@<TRIPOS>MOLECULE
2c5w_PCZ_B_1.pdb
 26 27 0 0 0
SMALL
GASTEIGER

@<TRIPOS>ATOM
      1  O1        38.9000   15.0640   14.7730 O.2   1370  PCZ1370    -0.2863
      2  C1        38.8070   14.1000   14.0130 C.2   1370  PCZ1370     0.2316
      3  C2        39.2820   12.7140   14.4520 C.3   1370  PCZ1370     0.1923
      4  C3        38.0900   12.0450   15.1860 C.3   1370  PCZ1370     0.1784
      5  C5        36.3910   11.6740   17.5840 C.2   1370  PCZ1370     0.0125
      6  C51       35.6190   11.5740   18.6760 C.2   1370  PCZ1370    -0.0020
      7  C52       37.1180   10.4030   17.1430 C.3   1370  PCZ1370     0.0873
      8  C6        36.4930   12.8930   16.9150 C.2   1370  PCZ1370     0.1534
      9  C61       35.7280   14.1350   17.3800 C.2   1370  PCZ1370     0.4044
     10  O62       35.2790   14.8930   16.4930 O.co2 1370  PCZ1370    -0.2389
     11  O63       35.5780   14.3280   18.6050 O.co2 1370  PCZ1370    -0.2389
     12  N7        37.2780   13.0560   15.8390 N.2   1370  PCZ1370    -0.2528
     13  N8        40.5100   12.8610   15.2270 N.am  1370  PCZ1370    -0.1910
     14  C9        41.5250   12.0040   15.1420 C.2   1370  PCZ1370     0.2884
     15  O91       41.5410   11.0000   14.4300 O.2   1370  PCZ1370    -0.2665
     16  C10       42.6560   12.3570   15.9420 C.2   1370  PCZ1370     0.2002
     17  N11       42.7990   11.8770   17.1760 N.2   1370  PCZ1370    -0.0759
     18  O12       41.8730   11.0410   17.7210 O.2   1370  PCZ1370    -0.3729
     19  C13       42.2300   10.7200   19.0690 C.3   1370  PCZ1370     0.2885
     20  C14       43.5790   13.3500   15.4490 C.2   1370  PCZ1370     0.1478
     21  C15       43.2860   14.1980   14.4610 C.3   1370  PCZ1370     0.1266
     22  S16       44.5870   15.2100   14.2240 S.3   1370  PCZ1370    -0.0564
     23  C17       45.5110   14.5000   15.4220 C.2   1370  PCZ1370     0.2461
     24  N18       44.8000   13.5170   15.9700 N.2   1370  PCZ1370    -0.3794
     25  N19       46.7480   14.8500   15.7680 N.pl3 1370  PCZ1370    -0.0867
     26  S1        38.6840   10.8160   16.3580 S.3   1370  PCZ1370    -0.1100
@<TRIPOS>BOND
     1     2     3    1
     2     2     1    2
     3    22    21    1
     4    22    23    1
     5    15    14    2
     6     3     4    1
     7     3    13    1
     8    21    20    1
     9    14    13   am
    10    14    16    1
    11     4    12    1
    12     4    26    1
    13    23    25    1
    14    23    24    2
    15    20    16    1
    16    20    24    2
    17    12     8    2
    18    16    17    2
    19    26     7    1
    20    10     9   ar
    21     8     9    1
    22     8     5    1
    23     7     5    1
    24    17    18    1
    25     9    11   ar
    26     5     6    2
    27    18    19    1
