@<TRIPOS>MOLECULE
2c5x_MTW_A_1.pdb
 28 31 0 0 0
SMALL
GASTEIGER

@<TRIPOS>ATOM
      1  C          2.9360   44.8920   -0.8800 C.ar  1297  MTW1297     0.1975
      2  N1         2.4000   44.2510   -1.9140 N.ar  1297  MTW1297    -0.2007
      3  C1         2.6670   42.9480   -1.7540 C.ar  1297  MTW1297     0.2210
      4  N2         3.3730   42.7990   -0.6320 N.ar  1297  MTW1297    -0.1448
      5  N          3.5160   43.9300   -0.1580 N.ar  1297  MTW1297    -0.2255
      6  C2         4.1930   44.1690    1.1140 C.3   1297  MTW1297     0.1556
      7  C3         4.9600   45.4890    1.1270 C.ar  1297  MTW1297     0.0022
      8  C4         4.4220   46.6460    1.6680 C.ar  1297  MTW1297     0.0002
      9  C17        6.2790   45.5020    0.7040 C.ar  1297  MTW1297    -0.0023
     10  C18        7.0340   46.6730    0.7560 C.ar  1297  MTW1297    -0.0002
     11  C6         6.5060   47.8250    1.3200 C.ar  1297  MTW1297     0.0026
     12  C5         5.1810   47.8120    1.7290 C.ar  1297  MTW1297     0.0303
     13  C7         4.6790   48.9720    2.3060 C.2   1297  MTW1297     0.1457
     14  N3         3.3690   49.0710    2.6160 N.2   1297  MTW1297    -0.3361
     15  C8         5.5630   49.9920    2.6510 C.2   1297  MTW1297     0.0545
     16  C9         4.9840   51.1000    3.2750 C.2   1297  MTW1297     0.1144
     17  N4         3.6860   51.1870    3.5420 N.2   1297  MTW1297    -0.1683
     18  C10        2.8660   50.1640    3.2260 C.1   1297  MTW1297     0.1696
     19  N5         1.5550   50.2690    3.4640 N.pl3 1297  MTW1297    -0.1357
     20  C11        0.6240   49.3960    3.0440 C.ar  1297  MTW1297     0.0842
     21  C14        0.9600   48.1570    2.5060 C.ar  1297  MTW1297     0.0414
     22  C12       -0.7300   49.7290    3.1320 C.ar  1297  MTW1297     0.0175
     23  C13       -1.7330   48.8480    2.7450 C.ar  1297  MTW1297     0.0031
     24  C16       -1.3640   47.5970    2.2640 C.ar  1297  MTW1297     0.0242
     25  C15       -0.0230   47.2390    2.1290 C.ar  1297  MTW1297     0.1442
     26  N6         0.2910   46.0390    1.6070 N.pl3 1297  MTW1297     0.0577
     27  O2        -0.7240   45.2820    0.9320 O.2   1297  MTW1297    -0.1261
     28  O1         1.6290   45.4930    1.6270 O.2   1297  MTW1297    -0.1261
@<TRIPOS>BOND
     1     2     3   ar
     2     2     1   ar
     3     3     4   ar
     4     1     5   ar
     5     4     5   ar
     6     5     6    1
     7     9    10   ar
     8     9     7   ar
     9    10    11   ar
    10    27    26    2
    11     6     7    1
    12     7     8   ar
    13    11    12   ar
    14    26    28    2
    15    26    25    1
    16     8    12   ar
    17    12    13    1
    18    25    24   ar
    19    25    21   ar
    20    24    23   ar
    21    13    14    2
    22    13    15    1
    23    21    20   ar
    24    14    18    2
    25    15    16    2
    26    23    22   ar
    27    20    22   ar
    28    20    19    1
    29    18    19    1
    30    18    17    2
    31    16    17    1
