@<TRIPOS>MOLECULE
2c5y_MTW_A_1.pdb
 28 31 0 0 0
SMALL
GASTEIGER

@<TRIPOS>ATOM
      1  C         27.3170   24.7460   25.0060 C.ar  1298  MTW1298     0.1975
      2  N1        28.1710   23.8510   25.4950 N.ar  1298  MTW1298    -0.2007
      3  C1        29.3960   24.3630   25.3530 C.ar  1298  MTW1298     0.2210
      4  N2        29.2690   25.5500   24.7660 N.ar  1298  MTW1298    -0.1448
      5  N         28.0710   25.7450   24.5510 N.ar  1298  MTW1298    -0.2255
      6  C2        27.5270   26.9730   23.9470 C.3   1298  MTW1298     0.1556
      7  C3        27.8720   28.1490   24.8670 C.ar  1298  MTW1298     0.0022
      8  C4        27.0430   28.6400   25.8710 C.ar  1298  MTW1298     0.0002
      9  C17       29.1360   28.7020   24.7240 C.ar  1298  MTW1298    -0.0023
     10  C18       29.5460   29.7810   25.4940 C.ar  1298  MTW1298    -0.0002
     11  C6        28.6960   30.2900   26.4670 C.ar  1298  MTW1298     0.0026
     12  C5        27.4590   29.6960   26.6770 C.ar  1298  MTW1298     0.0303
     13  C7        26.6340   30.2650   27.6430 C.2   1298  MTW1298     0.1457
     14  N3        25.6740   29.5350   28.2430 N.2   1298  MTW1298    -0.3361
     15  C8        26.7960   31.6240   27.9280 C.2   1298  MTW1298     0.0545
     16  C9        25.8880   32.1930   28.8060 C.2   1298  MTW1298     0.1144
     17  N4        24.9650   31.4110   29.3600 N.2   1298  MTW1298    -0.1683
     18  C10       24.8130   30.0970   29.1150 C.1   1298  MTW1298     0.1696
     19  N5        23.8420   29.3780   29.6980 N.pl3 1298  MTW1298    -0.1357
     20  C11       23.5140   28.1070   29.4030 C.ar  1298  MTW1298     0.0842
     21  C14       24.2540   27.2850   28.5510 C.ar  1298  MTW1298     0.0414
     22  C12       22.3480   27.5550   29.9320 C.ar  1298  MTW1298     0.0175
     23  C13       21.9220   26.2700   29.6070 C.ar  1298  MTW1298     0.0031
     24  C16       22.6820   25.4680   28.7580 C.ar  1298  MTW1298     0.0242
     25  C15       23.8590   25.9830   28.2190 C.ar  1298  MTW1298     0.1442
     26  N6        24.6680   25.1940   27.4930 N.pl3 1298  MTW1298     0.0577
     27  O2        24.5510   24.8250   26.1040 O.2   1298  MTW1298    -0.1261
     28  O1        25.8130   24.7340   28.1950 O.2   1298  MTW1298    -0.1261
@<TRIPOS>BOND
     1     6     5    1
     2     6     7    1
     3     5     4   ar
     4     5     1   ar
     5     9     7   ar
     6     9    10   ar
     7     4     3   ar
     8     7     8   ar
     9     1     2   ar
    10     3     2   ar
    11    10    11   ar
    12     8    12   ar
    13    27    26    2
    14    11    12   ar
    15    12    13    1
    16    26    28    2
    17    26    25    1
    18    13    15    1
    19    13    14    2
    20    15    16    2
    21    25    21   ar
    22    25    24   ar
    23    14    18    2
    24    21    20   ar
    25    24    23   ar
    26    16    17    1
    27    18    17    2
    28    18    19    1
    29    20    19    1
    30    20    22   ar
    31    23    22   ar
