@<TRIPOS>MOLECULE
2c63_III_P_1.pdb
 34 34 0 0 0
SMALL
GASTEIGER

@<TRIPOS>ATOM
      1  N          0.9160  -11.9660   17.3330 N.3     3  ILE3       -0.1231
      2  CA         2.3890  -11.6700   17.3300 C.3     3  ILE3        0.1692
      3  C          2.7890  -10.8640   16.0870 C.2     3  ILE3        0.2593
      4  O          2.7370  -11.3640   14.9770 O.2     3  ILE3       -0.2718
      5  CB         3.2520  -12.9640   17.3970 C.3     3  ILE3        0.0266
      6  CG1        2.8440  -13.8410   18.5990 C.3     3  ILE3        0.0019
      7  CG2        4.7670  -12.6060   17.4710 C.3     3  ILE3        0.0020
      8  CD1        2.9690  -13.1290   19.9880 C.3     3  ILE3        0.0001
      9  N          3.1600   -9.6060   16.3040 N.am    4  SER4       -0.1939
     10  CA         3.6970   -8.7310   15.2790 C.3     4  SER4        0.2027
     11  CB         3.3330   -7.2810   15.5830 C.3     4  SER4        0.1847
     12  OG         3.9640   -6.8720   16.7780 O.3     4  SER4       -0.2679
     13  C          5.1990   -8.8780   15.3140 C.2     4  SER4        0.2642
     14  O          5.7360   -9.5790   16.1840 O.2     4  SER4       -0.2714
     15  P          3.5550   -5.3730   17.2530 P.3     4  SER4        0.5327
     16  O1P        4.4650   -5.0950   18.5290 O.3     4  SER4       -0.1145
     17  O2P        2.0090   -5.3980   17.4410 O.3     4  SER4       -0.1145
     18  O3P        4.1080   -4.4280   16.0660 O.2     4  SER4       -0.2224
     19  N          5.8740   -8.2420   14.3680 N.am    5  LEU5       -0.1963
     20  CA         7.3040   -8.4020   14.2270 C.3     5  LEU5        0.1713
     21  C          8.0330   -7.8970   15.4840 C.2     5  LEU5        0.2459
     22  O          7.7840   -6.7870   15.9290 O.2     5  LEU5       -0.2730
     23  CB         7.8030   -7.6380   13.0220 C.3     5  LEU5        0.0310
     24  CG         9.2660   -7.8530   12.6640 C.3     5  LEU5        0.0022
     25  CD1        9.4550   -9.2360   12.0000 C.3     5  LEU5        0.0001
     26  CD2        9.6940   -6.7230   11.7610 C.3     5  LEU5        0.0001
     27  N          8.9370   -8.7170   16.0540 N.am    6  PRO6       -0.2699
     28  CA         9.7050   -8.2570   17.2040 C.3     6  PRO6        0.1791
     29  C         10.5560   -7.0300   16.8440 C.2     6  PRO6        0.3825
     30  O         10.9260   -6.2480   17.7370 O.co2   6  PRO6       -0.2438
     31  CB        10.5960   -9.4560   17.5480 C.3     6  PRO6        0.0332
     32  CG        10.0500  -10.6110   16.8550 C.3     6  PRO6        0.0238
     33  CD         9.3220  -10.0910   15.6550 C.3     6  PRO6        0.0940
     34  OXT       10.8640   -6.7670   15.6650 O.co2   6  PRO6       -0.2438
@<TRIPOS>BOND
     1    26    24    1
     2    25    24    1
     3    24    23    1
     4    23    20    1
     5    20    19    1
     6    20    21    1
     7    19    13   am
     8     4     3    2
     9    10    13    1
    10    10    11    1
    11    10     9    1
    12    13    14    2
    13    21    22    2
    14    21    27   am
    15    11    12    1
    16    33    27    1
    17    33    32    1
    18    34    29   ar
    19    27    28    1
    20    18    15    2
    21     3     9   am
    22     3     2    1
    23    12    15    1
    24    29    28    1
    25    29    30   ar
    26    32    31    1
    27    28    31    1
    28    15    17    1
    29    15    16    1
    30     2     1    1
    31     2     5    1
    32     5     7    1
    33     5     6    1
    34     6     8    1
