@<TRIPOS>MOLECULE
2c64_MA0_B_1.pdb
 15 16 0 0 0
SMALL
GASTEIGER

@<TRIPOS>ATOM
      1  C13       21.4840  123.7570   18.3080 C.3   1498  MA01498     0.0321
      2  C12       20.3270  124.3230   18.6870 C.2   1498  MA01498    -0.0100
      3  C11       19.9430  124.7130   20.0530 C.2   1498  MA01498     0.0570
      4  N10       18.8040  125.2190   20.3440 N.pl3 1498  MA01498    -0.3029
      5  C9        18.5290  125.6010   21.7430 C.3   1498  MA01498     0.0955
      6  C1        17.5220  124.6380   22.3820 C.3   1498  MA01498     0.0289
      7  C2        16.5860  125.4750   23.2400 C.3   1498  MA01498     0.0281
      8  C3        16.9920  126.8920   22.9670 C.ar  1498  MA01498    -0.0243
      9  C8        17.9120  126.9460   22.0120 C.ar  1498  MA01498    -0.0051
     10  C7        18.3790  128.1100   21.5580 C.ar  1498  MA01498     0.0390
     11  C4        16.3180  127.9700   23.4270 C.ar  1498  MA01498    -0.0012
     12  C5        16.7990  129.1740   23.0260 C.ar  1498  MA01498     0.0417
     13  C6        17.6480  129.2060   21.9180 C.ar  1498  MA01498     0.1955
     14  O6        17.7700  130.3350   21.1850 O.3   1498  MA01498    -0.2866
     15  C10       17.9500  125.3730   19.4220 C.3   1498  MA01498     0.1124
@<TRIPOS>BOND
     1     1     2    1
     2     2     3    2
     3    15     4    1
     4     3     4    1
     5     4     5    1
     6    14    13    1
     7    10    13   ar
     8    10     9   ar
     9     5     9    1
    10     5     6    1
    11    13    12   ar
    12     9     8   ar
    13     6     7    1
    14     8     7    1
    15     8    11   ar
    16    12    11   ar
