@<TRIPOS>MOLECULE
2c65_4CR_A_1.pdb
 21 22 0 0 0
SMALL
GASTEIGER

@<TRIPOS>ATOM
      1  O4A       48.9360  156.2480   29.7610 O.2   601  4CR601     -0.2258
      2  C4A       49.9810  156.8890   29.8320 C.2   601  4CR601      0.4095
      3  N4        50.0170  158.1940   30.0950 N.am  601  4CR601     -0.2439
      4  C4B       48.8140  158.9720   30.3960 C.3   601  4CR601      0.0969
      5  C4C       48.7960  159.4090   31.8460 C.3   601  4CR601      0.0234
      6  CN4       51.2460  158.9720   29.9420 C.3   601  4CR601      0.1183
      7  O4        51.2140  156.2440   29.4170 O.3   601  4CR601     -0.4104
      8  C4        51.2110  155.0370   28.7550 C.ar  601  4CR601      0.1457
      9  C3        51.8460  154.8940   27.5280 C.ar  601  4CR601      0.0102
     10  C2        52.4910  155.9830   26.7050 C.3   601  4CR601      0.0312
     11  C1        53.0010  155.2190   25.4690 C.3   601  4CR601      0.0290
     12  C5        50.8230  153.8750   29.4340 C.ar  601  4CR601      0.0373
     13  C6        50.9280  152.6360   28.7980 C.ar  601  4CR601      0.0028
     14  C7        51.3380  152.5550   27.4620 C.ar  601  4CR601     -0.0028
     15  C8        51.8730  153.6910   26.8670 C.ar  601  4CR601     -0.0054
     16  C9        52.3150  153.8390   25.4550 C.3   601  4CR601      0.0955
     17  N10       53.2670  152.8160   24.9870 N.pl3 601  4CR601     -0.3029
     18  C10       54.1360  152.3440   25.7850 C.3   601  4CR601      0.1124
     19  C11       53.3130  152.5100   23.7430 C.2   601  4CR601      0.0570
     20  C12       53.9900  151.2980   23.2430 C.2   601  4CR601     -0.0100
     21  C13       54.2090  150.9890   21.9510 C.3   601  4CR601      0.0321
@<TRIPOS>BOND
     1    21    20    1
     2    20    19    2
     3    19    17    1
     4    17    16    1
     5    17    18    1
     6    16    11    1
     7    16    15    1
     8    11    10    1
     9    10     9    1
    10    15    14   ar
    11    15     9   ar
    12    14    13   ar
    13     9     8   ar
    14     8     7    1
    15     8    12   ar
    16    13    12   ar
    17     7     2    1
    18     1     2    2
    19     2     3   am
    20     6     3    1
    21     3     4    1
    22     4     5    1
