@<TRIPOS>MOLECULE
2c66_RM2_A_1.pdb
 14 15 0 0 0
SMALL
GASTEIGER

@<TRIPOS>ATOM
      1  C13       54.7010  151.3600   22.0000 C.2   1503  RM21503     0.0016
      2  C12       54.8270  152.3050   22.9480 C.2   1503  RM21503     0.0202
      3  C11       53.7890  153.0640   23.6300 C.2   1503  RM21503     0.0939
      4  N10       54.0280  153.7280   24.6870 N.2   1503  RM21503    -0.2620
      5  C9        52.9210  154.4760   25.3170 C.3   1503  RM21503     0.1476
      6  C1        53.1800  155.9970   25.3760 C.2   1503  RM21503     0.0022
      7  C2        52.6860  156.4780   26.7490 C.2   1503  RM21503     0.0006
      8  C3        52.2230  155.2050   27.4610 C.ar  1503  RM21503     0.0369
      9  C8        52.3820  154.1290   26.6950 C.ar  1503  RM21503     0.0070
     10  C7        51.9860  152.9280   27.1360 C.ar  1503  RM21503    -0.0019
     11  C4        51.6900  155.0940   28.7060 C.ar  1503  RM21503     0.1954
     12  C5        51.3230  153.8690   29.1500 C.ar  1503  RM21503     0.0420
     13  C6        51.4700  152.7940   28.3760 C.ar  1503  RM21503     0.0030
     14  O4        51.5070  156.1460   29.5370 O.3   1503  RM21503    -0.2866
@<TRIPOS>BOND
     1     1     2    2
     2     2     3    1
     3     3     4    2
     4     4     5    1
     5     5     6    1
     6     5     9    1
     7     6     7    2
     8     9    10   ar
     9     9     8   ar
    10     7     8    1
    11    10    13   ar
    12     8    11   ar
    13    13    12   ar
    14    11    12   ar
    15    11    14    1
