@<TRIPOS>MOLECULE
2c67_RM1_A_1.pdb
 11 12 0 0 0
SMALL
GASTEIGER

@<TRIPOS>ATOM
      1  C10       53.7220  149.2390   24.6670 C.3   1503  RM11503     0.1082
      2  N10       53.6720  150.5050   25.4000 N.3   1503  RM11503    -0.2091
      3  C9        52.7900  151.5780   24.9500 C.3   1503  RM11503     0.1169
      4  C8        52.5840  152.6650   25.9580 C.ar  1503  RM11503    -0.0024
      5  C7        52.0700  152.5270   27.1890 C.ar  1503  RM11503    -0.0026
      6  C6        51.9250  153.6260   27.9520 C.ar  1503  RM11503    -0.0003
      7  C5        52.2620  154.8420   27.4850 C.ar  1503  RM11503    -0.0000
      8  C4        52.7850  154.9660   26.2510 C.ar  1503  RM11503    -0.0003
      9  C3        52.9580  153.8530   25.5140 C.ar  1503  RM11503    -0.0026
     10  C2        53.5600  153.7900   24.1370 C.2   1503  RM11503    -0.0031
     11  C1        53.5220  152.2930   23.8050 C.2   1503  RM11503    -0.0047
@<TRIPOS>BOND
     1    11    10    2
     2    11     3    1
     3    10     9    1
     4     1     2    1
     5     3     2    1
     6     3     4    1
     7     9     4   ar
     8     9     8   ar
     9     4     5   ar
    10     8     7   ar
    11     5     6   ar
    12     7     6   ar
