@<TRIPOS>MOLECULE
2c68_CT6_A_1.pdb
 24 27 0 0 0
SMALL
GASTEIGER

@<TRIPOS>ATOM
      1 BR1        14.3620   -8.2300    5.3870 Br    1297  CT61297    -0.0490
      2  C1        14.0730   -7.4410    7.0900 C.ar  1297  CT61297     0.0346
      3  C2        13.6340   -8.2290    8.1490 C.ar  1297  CT61297     0.0092
      4  C3        13.4350   -7.6580    9.4290 C.ar  1297  CT61297     0.0305
      5  C4        13.6910   -6.2870    9.6370 C.ar  1297  CT61297     0.0026
      6  C5        14.1590   -5.4950    8.5720 C.ar  1297  CT61297     0.0006
      7  C6        14.3450   -6.0700    7.2970 C.ar  1297  CT61297     0.0067
      8  C7        12.9620   -8.5150   10.5510 C.2   1297  CT61297     0.1426
      9  C8        11.7680   -9.2440   10.4280 C.2   1297  CT61297     0.1214
     10  C9        11.3510  -10.0490   11.4920 C.2   1297  CT61297     0.3407
     11  N2        12.1300  -10.1310   12.5920 N.pl3 1297  CT61297    -0.0378
     12  N3        11.9180  -10.8030   13.7110 N.pl3 1297  CT61297    -0.0485
     13  C12       12.9550  -10.5240   14.5670 C.2   1297  CT61297     0.1358
     14  C10       13.2390   -9.4030   12.7030 C.2   1297  CT61297     0.2995
     15  C11       13.8010   -9.6370   13.9220 C.2   1297  CT61297     0.0985
     16  N1        13.6800   -8.6010   11.6850 N.2   1297  CT61297    -0.3636
     17  N4        10.1510  -10.8060   11.4040 N.pl3 1297  CT61297    -0.0291
     18  C13        9.0250  -10.3210   10.5990 C.3   1297  CT61297     0.2776
     19  C14        8.7780  -11.2930    9.4560 C.ar  1297  CT61297     0.0316
     20  C15        9.0010  -12.6530    9.6390 C.ar  1297  CT61297     0.0205
     21  C16        8.8010  -13.5380    8.5750 C.ar  1297  CT61297     0.0987
     22  N5         8.3780  -13.0750    7.3670 N.ar  1297  CT61297    -0.2423
     23  C17        8.1380  -11.7330    7.1800 C.ar  1297  CT61297     0.0987
     24  C18        8.3390  -10.8290    8.2230 C.ar  1297  CT61297     0.0205
@<TRIPOS>BOND
     1     1     2    1
     2     2     7   ar
     3     2     3   ar
     4    23    22   ar
     5    23    24   ar
     6     7     6   ar
     7    22    21   ar
     8     3     4   ar
     9    24    19   ar
    10     6     5   ar
    11    21    20   ar
    12     4     5   ar
    13     4     8    1
    14    19    20   ar
    15    19    18    1
    16     9     8    1
    17     9    10    2
    18     8    16    2
    19    18    17    1
    20    17    10    1
    21    10    11    1
    22    16    14    2
    23    11    14    1
    24    11    12    1
    25    14    15    1
    26    12    13    1
    27    15    13    2
