@<TRIPOS>MOLECULE
2c69_CT8_A_1.pdb
 24 27 0 0 0
SMALL
GASTEIGER

@<TRIPOS>ATOM
      1 BR1        14.4220   -8.1890    5.7560 Br    1299  CT81299    -0.0490
      2  C1        14.1990   -7.4730    7.4940 C.ar  1299  CT81299     0.0346
      3  C2        13.7090   -8.2870    8.5090 C.ar  1299  CT81299     0.0093
      4  C3        13.5350   -7.7790    9.7960 C.ar  1299  CT81299     0.0313
      5  C4        13.8830   -6.4340   10.0800 C.ar  1299  CT81299     0.0026
      6  C5        14.3900   -5.6150    9.0570 C.ar  1299  CT81299     0.0006
      7  C6        14.5450   -6.1380    7.7610 C.ar  1299  CT81299     0.0067
      8  C7        13.0200   -8.6650   10.8840 C.2   1299  CT81299     0.1534
      9  C8        11.8400   -9.4090   10.7120 C.2   1299  CT81299     0.1232
     10  C9        11.3900  -10.2060   11.7890 C.2   1299  CT81299     0.3510
     11  N2        12.1240  -10.2480   12.9230 N.pl3 1299  CT81299     0.0175
     12  N3        11.9010  -10.9240   14.0230 N.2   1299  CT81299    -0.0484
     13  C12       12.8970  -10.6180   14.8970 C.2   1299  CT81299     0.2568
     14  C10       13.2390   -9.5560   13.0510 C.1   1299  CT81299     0.2733
     15  N1        13.6920   -8.7410   12.0680 N.2   1299  CT81299    -0.3171
     16  N4        10.1940  -10.9470   11.6970 N.pl3 1299  CT81299    -0.0284
     17  C13        9.0920  -10.4610   10.8780 C.3   1299  CT81299     0.2777
     18  C14        8.8270  -11.4590    9.7790 C.ar  1299  CT81299     0.0316
     19  C15        8.8290  -12.8200   10.0590 C.ar  1299  CT81299     0.0205
     20  C16        8.6090  -13.7350    9.0400 C.ar  1299  CT81299     0.0987
     21  N5         8.3860  -13.3020    7.7770 N.ar  1299  CT81299    -0.2423
     22  C17        8.3650  -11.9660    7.4890 C.ar  1299  CT81299     0.0987
     23  C18        8.6000  -11.0270    8.4870 C.ar  1299  CT81299     0.0205
     24  N11       13.7440   -9.7650   14.2660 N.2   1299  CT81299    -0.1228
@<TRIPOS>BOND
     1     1     2    1
     2    22    21   ar
     3    22    23   ar
     4     2     7   ar
     5     2     3   ar
     6     7     6   ar
     7    21    20   ar
     8    23    18   ar
     9     3     4   ar
    10    20    19   ar
    11     6     5   ar
    12    18    19   ar
    13    18    17    1
    14     4     5   ar
    15     4     8    1
    16     9     8    1
    17     9    10    2
    18    17    16    1
    19     8    15    2
    20    16    10    1
    21    10    11    1
    22    15    14    2
    23    11    14    1
    24    11    12    1
    25    14    24    2
    26    12    13    2
    27    24    13    1
