@<TRIPOS>MOLECULE
2c6c_NAG_A_1.pdb
 14 14 0 0 0
SMALL
GASTEIGER

@<TRIPOS>ATOM
      1  C1         3.7670   28.4280   25.8090 C.3   1757  NAG1757     0.1665
      2  C2         2.4000   29.1030   25.8880 C.3   1757  NAG1757     0.1576
      3  C3         1.2800   28.3020   25.2250 C.3   1757  NAG1757     0.2069
      4  C4         1.8440   27.1640   24.3660 C.3   1757  NAG1757     0.2134
      5  C5         3.1020   27.5580   23.6060 C.3   1757  NAG1757     0.1809
      6  C6         2.7320   28.2500   22.2770 C.3   1757  NAG1757     0.2141
      7  C7         1.6190   30.7380   27.4900 C.2   1757  NAG1757     0.2420
      8  C8         1.6150   31.7480   26.3760 C.3   1757  NAG1757     0.0964
      9  N2         2.0250   29.4820   27.2350 N.am  1757  NAG1757    -0.2019
     10  O3         0.4970   29.1890   24.4300 O.3   1757  NAG1757    -0.2184
     11  O4         2.1640   26.0090   25.1310 O.3   1757  NAG1757    -0.2176
     12  O5         4.0300   28.3090   24.4100 O.3   1757  NAG1757    -0.3489
     13  O6         1.8220   29.3260   22.4380 O.3   1757  NAG1757    -0.2176
     14  O7         1.2410   31.1050   28.5990 O.2   1757  NAG1757    -0.2733
@<TRIPOS>BOND
     1     6    13    1
     2     6     5    1
     3     5     4    1
     4     5    12    1
     5     4    11    1
     6     4     3    1
     7    12     1    1
     8    10     3    1
     9     3     2    1
    10     1     2    1
    11     2     9    1
    12     8     7    1
    13     9     7   am
    14     7    14    2
