@<TRIPOS>MOLECULE
2c6c_24I_A_1.pdb
 21 21 0 0 0
SMALL
GASTEIGER

@<TRIPOS>ATOM
      1  O5        14.0420   48.9140   41.2050 O.co2 1767  24I1767    -0.2457
      2  C14       14.0850   47.7170   40.9600 C.2   1767  24I1767     0.3649
      3  O6        13.0780   47.2080   40.2340 O.co2 1767  24I1767    -0.2457
      4  C13       15.2400   46.9010   41.5370 C.3   1767  24I1767     0.1146
      5  C12       14.9530   45.4160   41.6760 C.3   1767  24I1767     0.0236
      6  C10       16.1400   44.6590   42.2360 C.3   1767  24I1767     0.1137
      7  C9        17.2850   44.8080   41.2410 C.2   1767  24I1767     0.3649
      8  O4        17.2860   43.9800   40.2220 O.co2 1767  24I1767    -0.2457
      9  O3        18.1420   45.6770   41.3440 O.co2 1767  24I1767    -0.2457
     10  C7        16.4890   45.1770   43.6500 C.3   1767  24I1767     0.1010
     11  P1        17.7180   44.2040   44.5120 P.3   1767  24I1767     0.2588
     12  O1        17.0020   43.6120   45.7800 O.3   1767  24I1767    -0.1675
     13  O2        18.3300   43.0560   43.5460 O.2   1767  24I1767    -0.2865
     14  C6        18.9990   45.4030   44.9180 C.3   1767  24I1767     0.1157
     15  C8        20.1740   44.9130   45.6410 C.ar  1767  24I1767    -0.0124
     16  C5        21.3520   44.5990   44.9640 C.ar  1767  24I1767    -0.0033
     17  C3        22.4320   44.1360   45.7290 C.ar  1767  24I1767     0.0055
     18  C4        20.0810   44.8150   47.0150 C.ar  1767  24I1767    -0.0033
     19  C2        21.1360   44.3460   47.8040 C.ar  1767  24I1767     0.0055
     20  C1        22.3290   44.0220   47.1370 C.ar  1767  24I1767     0.0300
     21  I         23.9280   43.3670   48.4000 I     1767  24I1767    -0.0425
@<TRIPOS>BOND
     1     8     7   ar
     2     3     2   ar
     3     2     1   ar
     4     2     4    1
     5     7     9   ar
     6     7     6    1
     7     4     5    1
     8     5     6    1
     9     6    10    1
    10    13    11    2
    11    10    11    1
    12    11    14    1
    13    11    12    1
    14    14    15    1
    15    16    15   ar
    16    16    17   ar
    17    15    18   ar
    18    17    20   ar
    19    18    19   ar
    20    20    19   ar
    21    20    21    1
