@<TRIPOS>MOLECULE
2c6d_ANP_A_1.pdb
 27 29 0 0 0
SMALL
GASTEIGER

@<TRIPOS>ATOM
      1  PB        15.0370   57.7380   17.9690 P.3   1391  ANP1391     0.4738
      2  O1B       15.5060   57.4530   19.3080 O.3   1391  ANP1391    -0.1247
      3  O2B       14.6170   59.1600   17.8290 O.2   1391  ANP1391    -0.2343
      4  N3B       13.8540   56.7380   17.6110 N.3   1391  ANP1391    -0.0178
      5  PA        17.5330   56.6440   17.1150 P.3   1391  ANP1391     0.2220
      6  O1A       18.1370   56.4430   15.7850 O.2   1391  ANP1391    -0.5170
      7  O2A       18.3540   57.4840   18.0410 O.3   1391  ANP1391    -0.4370
      8  O3A       16.1050   57.3020   16.9240 O.3   1391  ANP1391    -0.2354
      9  O5'       17.1770   55.2950   17.8770 O.3   1391  ANP1391    -0.3111
     10  C5'       17.8770   54.0900   17.4900 C.3   1391  ANP1391     0.1813
     11  C4'       17.4600   52.8620   18.3180 C.3   1391  ANP1391     0.1821
     12  O4'       18.5760   52.4000   19.1790 O.3   1391  ANP1391    -0.3135
     13  C3'       16.3280   53.0190   19.3590 C.3   1391  ANP1391     0.2184
     14  O3'       15.5600   51.8460   19.5880 O.3   1391  ANP1391    -0.2174
     15  C2'       17.0760   53.5660   20.5840 C.3   1391  ANP1391     0.2570
     16  O2'       16.3980   53.5190   21.8250 O.3   1391  ANP1391    -0.2130
     17  C1'       18.3690   52.8070   20.5580 C.3   1391  ANP1391     0.3186
     18  N9        19.5330   53.6320   21.0810 N.pl3 1391  ANP1391    -0.1439
     19  C8        20.1370   54.6880   20.4100 C.3   1391  ANP1391     0.3377
     20  N7        21.1380   55.2580   21.0640 N.2   1391  ANP1391    -0.2095
     21  C5        21.2220   54.5630   22.2280 C.2   1391  ANP1391     0.2526
     22  C6        22.0770   54.6300   23.4080 C.2   1391  ANP1391     0.4393
     23  N6        23.0580   55.5060   23.5710 N.pl3 1391  ANP1391     0.2180
     24  N1        21.8580   53.7060   24.4600 N.2   1391  ANP1391     0.0021
     25  C2        20.8440   52.7460   24.3720 C.3   1391  ANP1391     0.5254
     26  N3        19.9920   52.6070   23.3020 N.2   1391  ANP1391    -0.0055
     27  C4        20.2230   53.5380   22.2580 C.2   1391  ANP1391     0.3518
@<TRIPOS>BOND
     1     6     5    2
     2     8     5    1
     3     8     1    1
     4     5     9    1
     5     5     7    1
     6    10     9    1
     7    10    11    1
     8     4     1    1
     9     3     1    2
    10     1     2    1
    11    11    12    1
    12    11    13    1
    13    12    17    1
    14    13    14    1
    15    13    15    1
    16    19    20    1
    17    19    18    1
    18    17    15    1
    19    17    18    1
    20    15    16    1
    21    20    21    2
    22    18    27    1
    23    21    27    1
    24    21    22    1
    25    27    26    2
    26    26    25    1
    27    22    23    1
    28    22    24    2
    29    25    24    1
