@<TRIPOS>MOLECULE
2c6e_HPM_A_1.pdb
 39 43 0 0 0
SMALL
GASTEIGER

@<TRIPOS>ATOM
      1  C1        21.3640   83.8490   79.7510 C.3   1389  HPM1389     0.0722
      2  C2        21.2040   82.4820   80.4880 C.3   1389  HPM1389     0.0174
      3  C3        20.0890   81.5940   79.8480 C.3   1389  HPM1389     0.0029
      4  C4        20.1710   81.5300   78.2860 C.3   1389  HPM1389     0.0174
      5  C5        20.4030   82.9310   77.6370 C.3   1389  HPM1389     0.0722
      6  N6        21.5620   83.6780   78.2680 N.3   1389  HPM1389    -0.2705
      7  C7        21.8440   85.0070   77.5900 C.3   1389  HPM1389     0.1093
      8  C8        22.0910   84.9460   76.0620 C.3   1389  HPM1389     0.2112
      9  C9        21.7030   86.2170   75.3010 C.3   1389  HPM1389     0.2396
     10  O10       22.1860   86.1270   73.9300 O.2   1389  HPM1389    -0.4696
     11  C11       22.2940   87.2270   73.0660 C.2   1389  HPM1389     0.1732
     12  C12       22.7810   87.0730   71.7280 C.2   1389  HPM1389     0.1691
     13  C13       22.8810   88.1970   70.8700 C.2   1389  HPM1389     0.0318
     14  C14       22.5060   89.4830   71.3120 C.3   1389  HPM1389     0.1742
     15  C15       22.0050   89.6510   72.6950 C.2   1389  HPM1389     0.0769
     16  C16       21.9110   88.5160   73.5370 C.2   1389  HPM1389     0.0553
     17  N17       21.6340   90.8720   73.1620 N.2   1389  HPM1389    -0.2220
     18  C18       21.7330   91.9110   72.3470 C.3   1389  HPM1389     0.3913
     19  N19       22.1690   91.8770   71.0880 N.2   1389  HPM1389    -0.0363
     20  C20       22.5600   90.6930   70.5390 C.2   1389  HPM1389     0.3481
     21  N21       23.0250   90.7040   69.1480 N.pl3 1389  HPM1389    -0.0102
     22  C22       23.0010   91.7570   68.1800 C.2   1389  HPM1389     0.2057
     23  C23       24.0610   91.9230   67.2460 C.3   1389  HPM1389     0.2102
     24  N24       24.0420   92.9330   66.3670 N.2   1389  HPM1389    -0.1974
     25  C25       22.9920   93.7830   66.3940 C.1   1389  HPM1389     0.1148
     26  N26       21.9550   93.7080   67.2140 N.2   1389  HPM1389    -0.1753
     27  C27       21.9360   92.7240   68.0970 C.2   1389  HPM1389     0.1525
     28  N28       23.0430   94.8760   65.4670 N.am  1389  HPM1389    -0.1063
     29  C29       23.6960   95.2140   64.3460 C.2   1389  HPM1389     0.2780
     30  C30       23.3520   96.5850   63.7860 C.ar  1389  HPM1389     0.0561
     31  C31       22.4050   97.4700   64.4110 C.ar  1389  HPM1389     0.0046
     32  C32       22.1220   98.7420   63.8600 C.ar  1389  HPM1389     0.0001
     33  C33       22.7760   99.1530   62.6760 C.ar  1389  HPM1389     0.0000
     34  C34       23.7100   98.3030   62.0420 C.ar  1389  HPM1389     0.0001
     35  C35       23.9980   97.0350   62.5890 C.ar  1389  HPM1389     0.0046
     36  O36       24.5310   94.4480   63.8240 O.2   1389  HPM1389    -0.2673
     37  O37       23.1700   85.8270   71.2400 O.2   1389  HPM1389    -0.4687
     38  C38       22.6790   85.3750   69.9510 C.3   1389  HPM1389     0.2526
     39  O39       23.4660   84.6770   75.8200 O.3   1389  HPM1389    -0.2176
@<TRIPOS>BOND
     1    34    35   ar
     2    34    33   ar
     3    35    30   ar
     4    33    32   ar
     5    30    29    1
     6    30    31   ar
     7    36    29    2
     8    32    31   ar
     9    29    28   am
    10    28    25    1
    11    24    25    2
    12    24    23    1
    13    25    26    2
    14    26    27    1
    15    23    22    1
    16    27    22    2
    17    22    21    1
    18    21    20    1
    19    38    37    1
    20    20    19    2
    21    20    14    1
    22    13    14    1
    23    13    12    2
    24    19    18    1
    25    37    12    1
    26    14    15    1
    27    12    11    1
    28    18    17    1
    29    15    17    2
    30    15    16    1
    31    11    16    2
    32    11    10    1
    33    10     9    1
    34     9     8    1
    35    39     8    1
    36     8     7    1
    37     7     6    1
    38     5     6    1
    39     5     4    1
    40     6     1    1
    41     4     3    1
    42     1     2    1
    43     3     2    1
