@<TRIPOS>MOLECULE
2c6g_NAG_A_1.pdb
 14 14 0 0 0
SMALL
GASTEIGER

@<TRIPOS>ATOM
      1  C1         4.0140   27.9880   25.2890 C.3   1757  NAG1757     0.1665
      2  C2         2.6870   28.7520   25.2530 C.3   1757  NAG1757     0.1576
      3  C3         1.5290   27.9600   24.6060 C.3   1757  NAG1757     0.2069
      4  C4         1.9530   26.9680   23.4940 C.3   1757  NAG1757     0.2134
      5  C5         3.4450   26.9840   23.0730 C.3   1757  NAG1757     0.1809
      6  C6         3.6060   27.4720   21.6060 C.3   1757  NAG1757     0.2141
      7  C7         2.0150   30.4970   26.8840 C.2   1757  NAG1757     0.2420
      8  C8         1.9000   31.5250   25.7760 C.3   1757  NAG1757     0.0964
      9  N2         2.3340   29.2190   26.5930 N.am  1757  NAG1757    -0.2019
     10  O3         0.5630   28.8440   24.0530 O.3   1757  NAG1757    -0.2184
     11  O4         1.6060   25.6360   23.8510 O.3   1757  NAG1757    -0.2176
     12  O5         4.3640   27.6710   23.9490 O.3   1757  NAG1757    -0.3489
     13  O6         3.0730   28.7710   21.3450 O.3   1757  NAG1757    -0.2176
     14  O7         1.8030   30.8610   28.0440 O.2   1757  NAG1757    -0.2733
@<TRIPOS>BOND
     1    13     6    1
     2     6     5    1
     3     5     4    1
     4     5    12    1
     5     4    11    1
     6     4     3    1
     7    12     1    1
     8    10     3    1
     9     3     2    1
    10     2     1    1
    11     2     9    1
    12     8     7    1
    13     9     7   am
    14     7    14    2
