@<TRIPOS>MOLECULE
2c6g_GLU_A_1.pdb
 10 9 0 0 0
SMALL
GASTEIGER

@<TRIPOS>ATOM
      1  N         16.5860   45.1380   43.2530 N.3   1766  GLU1766    -0.1208
      2  CA        16.0730   44.5800   41.9820 C.3   1766  GLU1766     0.1949
      3  C         17.1630   44.7030   40.9110 C.2   1766  GLU1766     0.3819
      4  O         18.0380   45.5600   41.1360 O.co2 1766  GLU1766    -0.2441
      5  CB        14.8300   45.3100   41.4900 C.3   1766  GLU1766     0.0424
      6  CG        15.1460   46.7700   41.1330 C.3   1766  GLU1766     0.1161
      7  CD        13.9760   47.5390   40.5540 C.2   1766  GLU1766     0.3649
      8  OE1       13.0750   46.9210   39.9240 O.co2 1766  GLU1766    -0.2457
      9  OE2       13.9820   48.7750   40.7490 O.co2 1766  GLU1766    -0.2457
     10  OXT       17.0450   43.9180   39.9610 O.co2 1766  GLU1766    -0.2441
@<TRIPOS>BOND
     1     8     7   ar
     2    10     3   ar
     3     7     9   ar
     4     7     6    1
     5     3     4   ar
     6     3     2    1
     7     6     5    1
     8     5     2    1
     9     2     1    1
