@<TRIPOS>MOLECULE
2c6h_HEM_A_1.pdb
 43 50 0 0 0
SMALL
GASTEIGER

@<TRIPOS>ATOM
      1 FE        -22.9470   28.7690   64.1330 Fe    1407  HEM1407     0.0000
      2  CHA      -22.1460   31.0030   66.5320 C.2   1407  HEM1407     0.0000
      3  CHB      -20.0840   29.4620   62.4800 C.2   1407  HEM1407     0.0000
      4  CHC      -23.8110   26.5160   61.7060 C.2   1407  HEM1407     0.0000
      5  CHD      -26.0690   28.5240   65.4530 C.2   1407  HEM1407     0.0000
      6  NA       -21.4100   29.9680   64.4470 N.ar  1407  HEM1407     0.0000
      7  C1A      -21.2010   30.7950   65.5260 C.ar  1407  HEM1407     0.0000
      8  C2A      -19.9300   31.5140   65.4110 C.ar  1407  HEM1407     0.0000
      9  C3A      -19.3760   31.1040   64.2380 C.ar  1407  HEM1407     0.0000
     10  C4A      -20.2950   30.1450   63.6590 C.ar  1407  HEM1407     0.0000
     11  CMA      -18.0410   31.5910   63.6680 C.3   1407  HEM1407     0.0000
     12  CAA      -19.3960   32.5810   66.3850 C.3   1407  HEM1407     0.0000
     13  CBA      -18.9620   33.8550   65.6810 C.3   1407  HEM1407     0.0000
     14  CGA      -18.5080   34.9450   66.6410 C.2   1407  HEM1407     0.0000
     15  O1A      -18.7240   36.1420   66.3310 O.co2 1407  HEM1407     0.0000
     16  O2A      -17.9220   34.6010   67.6920 O.co2 1407  HEM1407     0.0000
     17  NB       -22.1340   28.1870   62.3770 N.2   1407  HEM1407     0.0000
     18  C1B      -20.9120   28.5360   61.8600 C.2   1407  HEM1407     0.0000
     19  C2B      -20.5800   27.7750   60.6760 C.2   1407  HEM1407     0.0000
     20  C3B      -21.6730   26.9760   60.4210 C.2   1407  HEM1407     0.0000
     21  C4B      -22.6170   27.2220   61.5010 C.2   1407  HEM1407     0.0000
     22  CMB      -19.2340   27.7730   59.9280 C.3   1407  HEM1407     0.0000
     23  CAB      -21.9360   26.1470   59.3160 C.3   1407  HEM1407     0.0000
     24  CBB      -20.9160   25.3530   58.6630 C.3   1407  HEM1407     0.0000
     25  NC       -24.5890   27.7240   63.6820 N.ar  1407  HEM1407     0.0000
     26  C1C      -24.7260   26.7150   62.7360 C.ar  1407  HEM1407     0.0000
     27  C2C      -26.0150   26.0270   62.8540 C.ar  1407  HEM1407     0.0000
     28  C3C      -26.7010   26.7220   63.8080 C.ar  1407  HEM1407     0.0000
     29  C4C      -25.8000   27.7380   64.3300 C.ar  1407  HEM1407     0.0000
     30  CMC      -26.5040   24.7980   62.0750 C.3   1407  HEM1407     0.0000
     31  CAC      -28.0330   26.5720   64.1580 C.3   1407  HEM1407     0.0000
     32  CBC      -28.5320   25.3000   64.5940 C.3   1407  HEM1407     0.0000
     33  ND       -23.9060   29.5900   65.7010 N.2   1407  HEM1407     0.0000
     34  C1D      -25.2150   29.4090   66.0770 C.2   1407  HEM1407     0.0000
     35  C2D      -25.5870   30.2240   67.1980 C.2   1407  HEM1407     0.0000
     36  C3D      -24.4510   30.8500   67.5960 C.2   1407  HEM1407     0.0000
     37  C4D      -23.4200   30.4670   66.6240 C.2   1407  HEM1407     0.0000
     38  CMD      -26.9980   30.3500   67.7830 C.3   1407  HEM1407     0.0000
     39  CAD      -24.3000   31.7080   68.8670 C.3   1407  HEM1407     0.0000
     40  CBD      -23.4840   31.0430   69.9660 C.3   1407  HEM1407     0.0000
     41  CGD      -23.3200   31.9190   71.2020 C.2   1407  HEM1407     0.0000
     42  O1D      -23.2590   33.1620   71.0640 O.co2 1407  HEM1407     0.0000
     43  O2D      -23.2270   31.3650   72.3160 O.co2 1407  HEM1407     0.0000
@<TRIPOS>BOND
     1    24    23    1
     2    23    20    1
     3    22    19    1
     4    20    19    2
     5    20    21    1
     6    19    18    1
     7    21     4    2
     8    21    17    1
     9     4    26    1
    10    18    17    2
    11    18     3    1
    12    30    27    1
    13    17     1    1
    14     3    10    2
    15    26    27   ar
    16    26    25   ar
    17    27    28   ar
    18    10     9   ar
    19    10     6   ar
    20    11     9    1
    21    25     1    1
    22    25    29   ar
    23    28    31    1
    24    28    29   ar
    25     1     6    1
    26     1    33    1
    27    31    32    1
    28     9     8   ar
    29    29     5    1
    30     6     7   ar
    31     8     7   ar
    32     8    12    1
    33     5    34    2
    34     7     2    2
    35    13    12    1
    36    13    14    1
    37    33    34    1
    38    33    37    2
    39    34    35    1
    40    15    14   ar
    41     2    37    1
    42    37    36    1
    43    14    16   ar
    44    35    36    2
    45    35    38    1
    46    36    39    1
    47    39    40    1
    48    40    41    1
    49    42    41   ar
    50    41    43   ar
