@<TRIPOS>MOLECULE
2c6h_PXI_A_1.pdb
 32 33 0 0 0
SMALL
GASTEIGER

@<TRIPOS>ATOM
      1  C1       -23.0560   33.1960   63.5270 C.3   1408  PXI1408     0.0038
      2  C2       -22.2190   33.4910   62.2800 C.3   1408  PXI1408     0.0440
      3  C3       -23.0860   34.1070   61.1090 C.3   1408  PXI1408     0.1727
      4  O1       -23.7470   35.3680   61.4920 O.3   1408  PXI1408    -0.4519
      5  C4       -25.0700   35.6180   61.7040 C.2   1408  PXI1408     0.3187
      6  O2       -25.9250   34.7810   61.6020 O.2   1408  PXI1408    -0.2500
      7  C5       -25.3190   37.0440   62.0430 C.3   1408  PXI1408     0.1262
      8  C6       -25.4370   37.1110   63.6000 C.3   1408  PXI1408     0.0142
      9  C7       -26.6520   37.6750   61.4400 C.3   1408  PXI1408     0.1283
     10  O3       -26.5130   39.0560   61.9660 O.3   1408  PXI1408    -0.3305
     11  C8       -27.5710   40.0280   62.0640 C.3   1408  PXI1408     0.2679
     12  O4       -28.8800   39.6020   61.6350 O.3   1408  PXI1408    -0.3311
     13  C9       -29.8850   40.6860   61.7520 C.3   1408  PXI1408     0.1194
     14  C10      -31.2290   40.1600   61.2770 C.3   1408  PXI1408     0.0322
     15  C11      -30.0460   41.1700   63.2120 C.3   1408  PXI1408     0.0483
     16  C12      -28.6670   41.7110   63.7030 C.3   1408  PXI1408     0.0957
     17  N1       -28.6040   42.2550   65.1090 N.3   1408  PXI1408    -0.2691
     18  C13      -28.0860   43.6290   64.9620 C.3   1408  PXI1408     0.0897
     19  C14      -29.9070   42.3740   65.7930 C.3   1408  PXI1408     0.0897
     20  C15      -27.5550   40.5710   63.5220 C.3   1408  PXI1408     0.2224
     21  O5       -26.2480   41.0780   63.8260 O.3   1408  PXI1408    -0.2163
     22  C16      -26.6780   37.6860   59.8060 C.3   1408  PXI1408     0.0283
     23  C17      -28.0120   38.0210   59.1780 C.3   1408  PXI1408     0.0025
     24  C18      -25.5690   38.6000   59.2210 C.3   1408  PXI1408     0.0101
     25  C19      -24.5530   38.0850   58.1350 C.3   1408  PXI1408     0.0620
     26  C20      -24.5990   38.9600   56.8910 C.3   1408  PXI1408     0.0081
     27  C21      -24.7610   36.5460   57.7230 C.2   1408  PXI1408     0.1724
     28  O6       -25.5070   36.2280   56.8020 O.2   1408  PXI1408    -0.2914
     29  C22      -24.1000   35.4770   58.4570 C.2   1408  PXI1408     0.0330
     30  C23      -22.8620   35.5580   58.9280 C.2   1408  PXI1408    -0.0199
     31  C24      -22.2270   34.4250   59.7630 C.3   1408  PXI1408     0.0622
     32  C25      -20.8170   34.9580   60.0610 C.3   1408  PXI1408     0.0084
@<TRIPOS>BOND
     1    28    27    2
     2    26    25    1
     3    27    25    1
     4    27    29    1
     5    25    24    1
     6    29    30    2
     7    30    31    1
     8    23    22    1
     9    24    22    1
    10    31    32    1
    11    31     3    1
    12    22     9    1
    13     3     4    1
    14     3     2    1
    15    14    13    1
    16     9    10    1
    17     9     7    1
    18     4     5    1
    19     6     5    2
    20    12    13    1
    21    12    11    1
    22     5     7    1
    23    13    15    1
    24    10    11    1
    25     7     8    1
    26    11    20    1
    27     2     1    1
    28    15    16    1
    29    20    16    1
    30    20    21    1
    31    16    17    1
    32    18    17    1
    33    17    19    1
