@<TRIPOS>MOLECULE
2c6i_DT1_A_1.pdb
 28 31 0 0 0
SMALL
GASTEIGER

@<TRIPOS>ATOM
      1  O3         7.8650   26.0800    8.2840 O.2   1299  DT11299    -0.1503
      2  S1         6.6910   25.5750    7.5540 S.O2  1299  DT11299     0.0935
      3  O2         7.1400   25.2340    6.2070 O.2   1299  DT11299    -0.1503
      4  N6         6.0630   24.3420    8.3670 N.3   1299  DT11299     0.0392
      5  C16        5.5300   26.8220    7.3390 C.ar  1299  DT11299     0.1253
      6  C15        5.3050   27.3410    6.0700 C.ar  1299  DT11299     0.0236
      7  C17        4.8320   27.2350    8.4800 C.ar  1299  DT11299     0.0236
      8  C18        3.9010   28.2530    8.2970 C.ar  1299  DT11299     0.0458
      9  C14        4.3590   28.3610    5.8990 C.ar  1299  DT11299     0.0458
     10  C13        3.6510   28.8130    7.0250 C.ar  1299  DT11299     0.1833
     11  N5         2.7320   29.8180    6.8610 N.pl3 1299  DT11299    -0.0078
     12  C9         1.6300   30.0300    7.6560 C.2   1299  DT11299     0.3588
     13  N2         1.0380   31.2550    7.7170 N.pl3 1299  DT11299     0.0181
     14  C10       -0.0430   31.5170    8.4690 C.1   1299  DT11299     0.2761
     15  N1        -0.6290   30.5620    9.2090 N.2   1299  DT11299    -0.2797
     16  N4        -0.3670   32.8210    8.3680 N.2   1299  DT11299    -0.1227
     17  C11        0.5600   33.3420    7.5250 C.2   1299  DT11299     0.2568
     18  N3         1.4030   32.3730    7.1160 N.2   1299  DT11299    -0.0484
     19  C8         1.0180   28.9900    8.3690 C.2   1299  DT11299     0.1629
     20  C7        -0.0980   29.2930    9.1560 C.2   1299  DT11299     0.2979
     21  C20       -0.3950   28.4590   11.2650 C.3   1299  DT11299     0.2081
     22  O1        -0.6940   28.3000    9.8760 O.2   1299  DT11299    -0.4510
     23  C1        -0.6000   27.1080   11.9700 C.3   1299  DT11299     0.0438
     24  C2        -1.7920   26.2940   11.4500 C.3   1299  DT11299     0.0037
     25  C3        -1.8410   24.9440   12.1760 C.3   1299  DT11299     0.0001
     26  C4        -1.9490   25.1650   13.6910 C.3   1299  DT11299     0.0000
     27  C5        -0.7450   25.9710   14.1840 C.3   1299  DT11299     0.0001
     28  C6        -0.7370   27.3270   13.4790 C.3   1299  DT11299     0.0037
@<TRIPOS>BOND
     1     9     6   ar
     2     9    10   ar
     3     6     5   ar
     4     3     2    2
     5    11    10    1
     6    11    12    1
     7    10     8   ar
     8    18    17    2
     9    18    13    1
    10     5     2    1
    11     5     7   ar
    12    17    16    1
    13     2     1    2
    14     2     4    1
    15    12    13    1
    16    12    19    2
    17    13    14    1
    18     8     7   ar
    19    16    14    2
    20    19    20    1
    21    14    15    2
    22    20    15    2
    23    20    22    1
    24    22    21    1
    25    21    23    1
    26    24    23    1
    27    24    25    1
    28    23    28    1
    29    25    26    1
    30    28    27    1
    31    26    27    1
