@<TRIPOS>MOLECULE
2c6k_DT2_A_1.pdb
 27 30 0 0 0
SMALL
GASTEIGER

@<TRIPOS>ATOM
      1  O2         6.2400  -12.0470    6.8590 O.2   1299  DT21299    -0.1503
      2  S1         6.6560  -10.7510    7.1710 S.O2  1299  DT21299     0.0935
      3  O3         5.6040   -9.9930    7.6480 O.2   1299  DT21299    -0.1503
      4  N6         7.3480  -10.0780    5.9650 N.3   1299  DT21299     0.0392
      5  C16        7.8480  -10.8850    8.4680 C.ar  1299  DT21299     0.1253
      6  C15        8.1500  -12.1350    8.9940 C.ar  1299  DT21299     0.0236
      7  C14        9.0900  -12.2590   10.0120 C.ar  1299  DT21299     0.0458
      8  C13        9.7400  -11.1250   10.5040 C.ar  1299  DT21299     0.1833
      9  C18        9.4240   -9.8540    9.9880 C.ar  1299  DT21299     0.0458
     10  C17        8.4900   -9.7390    8.9600 C.ar  1299  DT21299     0.0236
     11  N5        10.6320  -11.2550   11.5140 N.pl3 1299  DT21299    -0.0079
     12  C9        11.7190  -10.4320   11.6290 C.2   1299  DT21299     0.3570
     13  N2        12.3240  -10.2990   12.8200 N.pl3 1299  DT21299     0.0179
     14  N3        12.0180  -10.8720   13.9780 N.2   1299  DT21299    -0.0484
     15  C11       12.9080  -10.4240   14.8910 C.2   1299  DT21299     0.2568
     16  C10       13.3940   -9.5500   12.9720 C.1   1299  DT21299     0.2746
     17  N4        13.7700   -9.5820   14.2460 N.2   1299  DT21299    -0.1227
     18  N1        13.9080   -8.8230   11.9530 N.2   1299  DT21299    -0.3002
     19  C7        13.3660   -8.9130   10.7180 C.2   1299  DT21299     0.2213
     20  C8        12.2450   -9.7420   10.5180 C.2   1299  DT21299     0.1407
     21  N7        13.9630   -8.2450    9.6750 N.pl3 1299  DT21299    -0.2105
     22  C1        13.2340   -7.8600    8.4730 C.3   1299  DT21299     0.0951
     23  C2        13.3010   -9.0800    7.5620 C.3   1299  DT21299     0.0217
     24  C3        12.7350   -8.7230    6.1900 C.3   1299  DT21299     0.0018
     25  C4        13.5550   -7.5900    5.5790 C.3   1299  DT21299     0.0001
     26  C5        13.4940   -6.3680    6.4910 C.3   1299  DT21299     0.0018
     27  C6        14.0570   -6.7270    7.8630 C.3   1299  DT21299     0.0217
@<TRIPOS>BOND
     1    25    24    1
     2    25    26    1
     3     4     2    1
     4    24    23    1
     5    26    27    1
     6     1     2    2
     7     2     3    2
     8     2     5    1
     9    23    22    1
    10    27    22    1
    11     5    10   ar
    12     5     6   ar
    13    22    21    1
    14    10     9   ar
    15     6     7   ar
    16    21    19    1
    17     9     8   ar
    18     7     8   ar
    19     8    11    1
    20    20    19    1
    21    20    12    2
    22    19    18    2
    23    11    12    1
    24    12    13    1
    25    18    16    2
    26    13    16    1
    27    13    14    1
    28    16    17    2
    29    14    15    2
    30    17    15    1
