@<TRIPOS>MOLECULE
2c6l_DT4_A_1.pdb
 28 31 0 0 0
SMALL
GASTEIGER

@<TRIPOS>ATOM
      1  O2         5.8780  -12.0370    6.8320 O.2   1299  DT41299    -0.1503
      2  S1         6.4730  -10.8020    7.0150 S.O2  1299  DT41299     0.0935
      3  O3         5.5680   -9.8720    7.4710 O.2   1299  DT41299    -0.1503
      4  N6         7.1820  -10.3250    5.7270 N.3   1299  DT41299     0.0392
      5  C16        7.7030  -10.9970    8.2720 C.ar  1299  DT41299     0.1253
      6  C15        8.0150  -12.2700    8.7390 C.ar  1299  DT41299     0.0236
      7  C14        8.9590  -12.4360    9.7320 C.ar  1299  DT41299     0.0458
      8  C13        9.6070  -11.3230   10.2760 C.ar  1299  DT41299     0.1833
      9  C18        9.2790  -10.0330    9.8280 C.ar  1299  DT41299     0.0458
     10  C17        8.3340   -9.8720    8.8190 C.ar  1299  DT41299     0.0236
     11  N5        10.5080  -11.4970   11.2850 N.pl3 1299  DT41299    -0.0079
     12  C9        11.6070  -10.7240   11.3800 C.2   1299  DT41299     0.3570
     13  N2        12.2050  -10.5550   12.5570 N.pl3 1299  DT41299     0.0179
     14  N3        11.8770  -11.0470   13.7320 N.2   1299  DT41299    -0.0484
     15  C11       12.7900  -10.5820   14.6340 C.2   1299  DT41299     0.2568
     16  C10       13.2850   -9.8110   12.6790 C.1   1299  DT41299     0.2746
     17  N4        13.6730   -9.8060   13.9580 N.2   1299  DT41299    -0.1227
     18  N1        13.8370   -9.1820   11.6190 N.2   1299  DT41299    -0.3002
     19  C7        13.2530   -9.3030   10.3950 C.2   1299  DT41299     0.2213
     20  C8        12.1390  -10.1100   10.2550 C.2   1299  DT41299     0.1407
     21  N7        13.8370   -8.7680    9.3050 N.pl3 1299  DT41299    -0.2105
     22  C1        13.7310   -7.3600    8.9880 C.3   1299  DT41299     0.0951
     23  C2        14.4750   -7.2050    7.6630 C.3   1299  DT41299     0.0231
     24  C3        14.6010   -5.7250    7.3210 C.3   1299  DT41299     0.0208
     25  C4        15.3790   -5.0150    8.4210 C.3   1299  DT41299     0.0919
     26  N8        15.5140   -3.5880    8.0860 N.3   1299  DT41299    -0.1329
     27  C5        14.6350   -5.1620    9.7460 C.3   1299  DT41299     0.0208
     28  C6        14.5020   -6.6430   10.0950 C.3   1299  DT41299     0.0231
@<TRIPOS>BOND
     1     4     2    1
     2     1     2    2
     3     2     3    2
     4     2     5    1
     5    24    23    1
     6    24    25    1
     7    23    22    1
     8    26    25    1
     9     5     6   ar
    10     5    10   ar
    11    25    27    1
    12     6     7   ar
    13    10     9   ar
    14    22    21    1
    15    22    28    1
    16    21    19    1
    17     7     8   ar
    18    27    28    1
    19     9     8   ar
    20    20    19    1
    21    20    12    2
    22     8    11    1
    23    19    18    2
    24    11    12    1
    25    12    13    1
    26    18    16    2
    27    13    16    1
    28    13    14    1
    29    16    17    2
    30    14    15    2
    31    17    15    1
