@<TRIPOS>MOLECULE
2c6m_DT5_A_1.pdb
 27 30 0 0 0
SMALL
GASTEIGER

@<TRIPOS>ATOM
      1  N6         6.1140  -12.0210    6.9000 N.3   1297  DT51297     0.0392
      2  S1         6.6110  -10.5820    7.3350 S.O2  1297  DT51297     0.0935
      3  O2         7.2320   -9.9080    6.1890 O.2   1297  DT51297    -0.1503
      4  O3         5.4820   -9.7940    7.8170 O.2   1297  DT51297    -0.1503
      5  C16        7.7930  -10.7200    8.5890 C.ar  1297  DT51297     0.1253
      6  C15        8.0910  -11.9570    9.1300 C.ar  1297  DT51297     0.0236
      7  C17        8.4570   -9.5710    9.0410 C.ar  1297  DT51297     0.0236
      8  C18        9.4190   -9.6660   10.0390 C.ar  1297  DT51297     0.0458
      9  C14        9.0400  -12.0580   10.1430 C.ar  1297  DT51297     0.0458
     10  C13        9.7420  -10.9150   10.5760 C.ar  1297  DT51297     0.1833
     11  N5        10.6100  -11.0310   11.6250 N.pl3 1297  DT51297    -0.0078
     12  C9        11.7600  -10.2450   11.8100 C.2   1297  DT51297     0.3588
     13  N2        12.3410  -10.2420   13.0150 N.pl3 1297  DT51297     0.0181
     14  C10       13.4410   -9.5510   13.2630 C.1   1297  DT51297     0.2761
     15  N1        14.0340   -8.7990   12.3310 N.2   1297  DT51297    -0.2797
     16  N4        13.7520   -9.6740   14.5510 N.2   1297  DT51297    -0.1227
     17  C11       12.8130  -10.4920   15.1050 C.2   1297  DT51297     0.2568
     18  N3        11.9550  -10.8540   14.1150 N.2   1297  DT51297    -0.0484
     19  C8        12.3890   -9.5160   10.7480 C.2   1297  DT51297     0.1629
     20  C7        13.5490   -8.7620   11.0640 C.2   1297  DT51297     0.2978
     21  O1        14.2540   -8.0350   10.1230 O.2   1297  DT51297    -0.4548
     22  C1        13.6090   -7.8770    8.9240 C.3   1297  DT51297     0.1686
     23  C2        14.2050   -8.8760    7.9240 C.3   1297  DT51297     0.0436
     24  C3        13.6270   -8.6400    6.5200 C.3   1297  DT51297     0.0037
     25  C4        13.9550   -7.2180    6.0580 C.3   1297  DT51297     0.0002
     26  C5        13.3320   -6.2180    7.0330 C.3   1297  DT51297     0.0037
     27  C6        13.9010   -6.4470    8.4370 C.3   1297  DT51297     0.0436
@<TRIPOS>BOND
     1    25    24    1
     2    25    26    1
     3     3     2    2
     4    24    23    1
     5     1     2    1
     6    26    27    1
     7     2     4    2
     8     2     5    1
     9    23    22    1
    10    27    22    1
    11     5     7   ar
    12     5     6   ar
    13    22    21    1
    14     7     8   ar
    15     6     9   ar
    16     8    10   ar
    17    21    20    1
    18     9    10   ar
    19    10    11    1
    20    19    20    1
    21    19    12    2
    22    20    15    2
    23    11    12    1
    24    12    13    1
    25    15    14    2
    26    13    14    1
    27    13    18    1
    28    14    16    2
    29    18    17    2
    30    16    17    1
