@<TRIPOS>MOLECULE
2c6n_LPR_A_1.pdb
 29 30 0 0 0
SMALL
GASTEIGER

@<TRIPOS>ATOM
      1  O2       -28.3030  -20.4080  -34.7740 O.co2 705  LPR705     -0.2437
      2  O3       -26.2890  -21.2360  -34.7760 O.co2 705  LPR705     -0.2437
      3  C3       -27.0740  -20.3500  -34.4390 C.2   705  LPR705      0.3844
      4  C4       -26.5420  -19.1290  -33.6480 C.3   705  LPR705      0.1984
      5  C14      -26.4180  -19.7210  -32.3000 C.2   705  LPR705      0.0022
      6  C15      -25.1380  -20.3740  -31.8460 C.2   705  LPR705     -0.0026
      7  C16      -24.9480  -20.9490  -30.4960 C.ar  705  LPR705     -0.0003
      8  C17      -25.5160  -20.3160  -29.2880 C.ar  705  LPR705     -0.0000
      9  C18      -25.2750  -20.9120  -27.9950 C.ar  705  LPR705     -0.0000
     10  C19      -24.4700  -22.1380  -27.8800 C.ar  705  LPR705     -0.0000
     11  C20      -23.9090  -22.7670  -29.0800 C.ar  705  LPR705     -0.0000
     12  C21      -24.1500  -22.1680  -30.3820 C.ar  705  LPR705     -0.0000
     13  N1       -27.1190  -18.1380  -33.9690 N.3   705  LPR705     -0.1964
     14  N3       -28.5840  -11.5430  -36.0340 N.3   705  LPR705     -0.1314
     15  C1       -25.8070  -17.1520  -35.8840 C.2   705  LPR705      0.2423
     16  C2       -27.2610  -17.5220  -35.3340 C.3   705  LPR705      0.1498
     17  O1       -24.8520  -17.0380  -35.0470 O.2   705  LPR705     -0.2733
     18  C10      -28.1220  -16.2850  -35.2840 C.3   705  LPR705      0.0268
     19  C11      -27.6920  -15.0040  -34.7730 C.3   705  LPR705      0.0035
     20  C12      -28.2810  -13.8180  -35.6110 C.3   705  LPR705      0.0206
     21  C13      -27.9410  -12.5420  -35.1450 C.3   705  LPR705      0.1093
     22  O4       -22.5700  -15.1820  -36.9960 O.co2 705  LPR705     -0.2434
     23  O5       -24.4740  -14.2250  -37.5470 O.co2 705  LPR705     -0.2434
     24  N2       -25.6100  -16.9680  -37.2440 N.am  705  LPR705     -0.2627
     25  C5       -24.2490  -16.6190  -37.8570 C.3   705  LPR705      0.2018
     26  C6       -24.6010  -16.5590  -39.3420 C.2   705  LPR705      0.0019
     27  C7       -25.9190  -16.8080  -39.5360 C.2   705  LPR705     -0.0070
     28  C8       -26.6480  -17.0770  -38.3050 C.3   705  LPR705      0.1204
     29  C9       -23.7700  -15.1860  -37.4400 C.2   705  LPR705      0.3867
@<TRIPOS>BOND
     1    27    26    2
     2    27    28    1
     3    26    25    1
     4    28    24    1
     5    25    29    1
     6    25    24    1
     7    23    29   ar
     8    29    22   ar
     9    24    15   am
    10    14    21    1
    11    15    16    1
    12    15    17    2
    13    20    21    1
    14    20    19    1
    15    16    18    1
    16    16    13    1
    17    18    19    1
    18     2     3   ar
    19     1     3   ar
    20     3     4    1
    21    13     4    1
    22     4     5    1
    23     5     6    2
    24     6     7    1
    25     7    12   ar
    26     7     8   ar
    27    12    11   ar
    28     8     9   ar
    29    11    10   ar
    30     9    10   ar
