@<TRIPOS>MOLECULE
2c6o_4SP_A_1.pdb
 28 31 0 0 0
SMALL
GASTEIGER

@<TRIPOS>ATOM
      1  C2        11.1610  -10.9210   12.0300 C.1   1297  4SP1297     0.2364
      2  C8        14.5130   -9.3380   14.3240 C.3   1297  4SP1297     0.2628
      3  C10       12.7990   -8.2390    9.1340 C.3   1297  4SP1297     0.2081
      4  C11       13.6490   -7.0450    8.6870 C.3   1297  4SP1297     0.0438
      5  C12       13.0310   -6.0320    7.7410 C.3   1297  4SP1297     0.0037
      6  C13       13.7020   -4.6620    7.9730 C.3   1297  4SP1297     0.0001
      7  C14       15.2210   -4.7530    7.7320 C.3   1297  4SP1297     0.0000
      8  C15       15.8200   -6.1550    8.1270 C.3   1297  4SP1297     0.0001
      9  C16       14.9100   -7.4130    7.9720 C.3   1297  4SP1297     0.0037
     10  C19        7.4550  -12.0300    9.1550 C.ar  1297  4SP1297     0.0214
     11  C20        7.6260  -10.8820    8.3830 C.ar  1297  4SP1297     0.1251
     12  C21        8.6270   -9.9700    8.7320 C.ar  1297  4SP1297     0.0214
     13  C22        9.4620  -10.2110    9.8480 C.ar  1297  4SP1297     0.0188
     14  N26        7.2460   -9.6050    5.8070 N.3   1297  4SP1297     0.0392
     15  N1        11.7660  -10.1610   11.0430 N.2   1297  4SP1297    -0.2865
     16  C6        12.8640   -9.4250   11.2830 C.2   1297  4SP1297     0.3177
     17  O6        13.5020   -8.6820   10.3840 O.2   1297  4SP1297    -0.4497
     18  C5        13.4100   -9.5190   12.5370 C.2   1297  4SP1297     0.2195
     19  N7        14.4690   -8.9600   13.0550 N.2   1297  4SP1297    -0.2273
     20  N9        13.4840  -10.1640   14.5740 N.2   1297  4SP1297    -0.1806
     21  C4        12.7740  -10.2850   13.5300 C.1   1297  4SP1297     0.1221
     22  N3        11.6770  -10.9880   13.2900 N.2   1297  4SP1297    -0.2702
     23  N2        10.0330  -11.6130   11.7300 N.pl3 1297  4SP1297    -0.1248
     24  C17        9.2890  -11.3560   10.6390 C.ar  1297  4SP1297     0.0836
     25  C18        8.2740  -12.2530   10.2600 C.ar  1297  4SP1297     0.0188
     26  S23        6.5670  -10.5610    6.9880 S.O2  1297  4SP1297     0.0935
     27  O24        5.3870   -9.9200    7.6140 O.2   1297  4SP1297    -0.1503
     28  O25        6.2220  -11.7970    6.2810 O.2   1297  4SP1297    -0.1503
@<TRIPOS>BOND
     1    14    26    1
     2    28    26    2
     3    26    27    2
     4    26    11    1
     5     7     6    1
     6     7     8    1
     7     5     6    1
     8     5     4    1
     9     9     8    1
    10     9     4    1
    11    11    12   ar
    12    11    10   ar
    13     4     3    1
    14    12    13   ar
    15     3    17    1
    16    10    25   ar
    17    13    24   ar
    18    25    24   ar
    19    17    16    1
    20    24    23    1
    21    15    16    2
    22    15     1    2
    23    16    18    1
    24    23     1    1
    25     1    22    2
    26    18    19    2
    27    18    21    1
    28    19     2    1
    29    22    21    2
    30    21    20    2
    31     2    20    1
