@<TRIPOS>MOLECULE
2c6p_NAG_A_1.pdb
 14 14 0 0 0
SMALL
GASTEIGER

@<TRIPOS>ATOM
      1  C1        19.4690   24.9150   18.0810 C.3   1757  NAG1757     0.1665
      2  C2        20.1000   23.6790   17.4060 C.3   1757  NAG1757     0.1576
      3  C3        19.4080   23.4880   16.0600 C.3   1757  NAG1757     0.2069
      4  C4        17.9280   23.1410   16.3190 C.3   1757  NAG1757     0.2134
      5  C5        17.2820   24.2520   17.2180 C.3   1757  NAG1757     0.1809
      6  C6        15.8680   23.9610   17.7860 C.3   1757  NAG1757     0.2141
      7  C7        22.3380   22.7500   17.8290 C.2   1757  NAG1757     0.2420
      8  C8        23.8300   22.9220   17.7280 C.3   1757  NAG1757     0.0964
      9  N2        21.5640   23.7000   17.2680 N.am  1757  NAG1757    -0.2019
     10  O3        20.1170   22.5490   15.2880 O.3   1757  NAG1757    -0.2184
     11  O4        17.2370   22.9180   15.0810 O.3   1757  NAG1757    -0.2176
     12  O5        18.1030   24.6180   18.3250 O.3   1757  NAG1757    -0.3489
     13  O6        15.7710   22.8420   18.6560 O.3   1757  NAG1757    -0.2176
     14  O7        21.8870   21.7520   18.4160 O.2   1757  NAG1757    -0.2733
@<TRIPOS>BOND
     1    11     4    1
     2    10     3    1
     3     3     4    1
     4     3     2    1
     5     4     5    1
     6     5     6    1
     7     5    12    1
     8     9     2    1
     9     9     7   am
    10     2     1    1
    11     8     7    1
    12     6    13    1
    13     7    14    2
    14     1    12    1
