@<TRIPOS>MOLECULE
2c6q_IMP_A_1.pdb
 23 25 0 0 0
SMALL
GASTEIGER

@<TRIPOS>ATOM
      1  P         15.4780   -2.1820   18.2570 P.3   1337  IMP1337     0.5327
      2  O1P       16.6190   -3.2130   18.0040 O.3   1337  IMP1337    -0.1145
      3  O2P       14.1840   -3.0090   18.3000 O.3   1337  IMP1337    -0.1145
      4  O3P       15.4500   -1.1170   17.2010 O.2   1337  IMP1337    -0.2224
      5  O5'       15.7490   -1.5260   19.6970 O.3   1337  IMP1337    -0.2675
      6  C5'       15.9150   -2.3540   20.8310 C.3   1337  IMP1337     0.1860
      7  C4'       16.0020   -1.4080   22.0070 C.3   1337  IMP1337     0.1823
      8  O4'       14.8130   -0.6030   22.1520 O.3   1337  IMP1337    -0.3135
      9  C3'       16.1530   -2.0550   23.3760 C.3   1337  IMP1337     0.2184
     10  O3'       17.3990   -2.6390   23.5900 O.3   1337  IMP1337    -0.2174
     11  C2'       15.8410   -0.8460   24.2460 C.3   1337  IMP1337     0.2570
     12  O2'       16.8960    0.0780   24.4130 O.3   1337  IMP1337    -0.2130
     13  C1'       14.7570   -0.1140   23.4850 C.3   1337  IMP1337     0.3186
     14  N9        13.3840   -0.2840   24.0300 N.pl3 1337  IMP1337    -0.1435
     15  C8        12.7250   -1.4080   24.5010 C.3   1337  IMP1337     0.3382
     16  N7        11.4880   -1.0290   24.9100 N.2   1337  IMP1337    -0.2054
     17  C5        11.3580    0.2900   24.6820 C.2   1337  IMP1337     0.2446
     18  C6        10.3050    1.1920   24.9290 C.1   1337  IMP1337     0.1792
     19  O6         9.1870    0.7660   25.3630 O.2   1337  IMP1337    -0.2203
     20  N1        10.4590    2.4780   24.6480 N.2   1337  IMP1337    -0.1458
     21  C2        11.6520    2.9320   24.0810 C.3   1337  IMP1337     0.4017
     22  N3        12.7060    2.0580   23.8870 N.2   1337  IMP1337    -0.0334
     23  C4        12.5560    0.7560   24.1590 C.2   1337  IMP1337     0.3528
@<TRIPOS>BOND
     1     4     1    2
     2     2     1    1
     3     1     3    1
     4     1     5    1
     5     5     6    1
     6     6     7    1
     7     7     8    1
     8     7     9    1
     9     8    13    1
    10     9    10    1
    11     9    11    1
    12    13    14    1
    13    13    11    1
    14    22    21    1
    15    22    23    2
    16    14    23    1
    17    14    15    1
    18    21    20    1
    19    23    17    1
    20    11    12    1
    21    15    16    1
    22    20    18    2
    23    17    16    2
    24    17    18    1
    25    18    19    2
