@<TRIPOS>MOLECULE
2c6q_NDP_A_1.pdb
 48 52 0 0 0
SMALL
GASTEIGER

@<TRIPOS>ATOM
      1  PA        13.4580    1.2170   36.2580 P.3   1338  NDP1338     0.2189
      2  O1A       13.5320    0.8270   34.7850 O.2   1338  NDP1338    -0.5170
      3  O2A       14.4030    0.5430   37.2040 O.3   1338  NDP1338    -0.4371
      4  O5B       13.9870    2.7010   36.5100 O.3   1338  NDP1338    -0.3112
      5  C5B       13.3730    3.8070   35.9730 C.3   1338  NDP1338     0.1813
      6  C4B       13.1670    4.7620   37.1210 C.3   1338  NDP1338     0.1820
      7  O4B       13.4490    6.0060   36.5150 O.3   1338  NDP1338    -0.3136
      8  C3B       11.7220    4.7060   37.5860 C.3   1338  NDP1338     0.2157
      9  O3B       11.6250    4.7300   38.9940 O.3   1338  NDP1338    -0.2175
     10  C2B       11.1310    5.9500   36.9630 C.3   1338  NDP1338     0.2314
     11  O2B       10.2260    6.6050   37.8150 O.3   1338  NDP1338    -0.2630
     12  C1B       12.3460    6.8660   36.7410 C.3   1338  NDP1338     0.3158
     13  N9A       12.2580    7.8220   35.6220 N.pl3 1338  NDP1338    -0.1439
     14  C8A       12.6330    9.1290   35.6700 C.3   1338  NDP1338     0.3377
     15  N7A       12.4380    9.6870   34.4620 N.2   1338  NDP1338    -0.2095
     16  C5A       11.9260    8.7410   33.6350 C.2   1338  NDP1338     0.2526
     17  C6A       11.5300    8.8070   32.3020 C.2   1338  NDP1338     0.4393
     18  N6A       11.6440    9.9600   31.6300 N.pl3 1338  NDP1338     0.2180
     19  N1A       11.0630    7.6550   31.6950 N.2   1338  NDP1338     0.0021
     20  C2A       10.9500    6.4760   32.4130 C.3   1338  NDP1338     0.5254
     21  N3A       11.3180    6.4250   33.7480 N.2   1338  NDP1338    -0.0055
     22  C4A       11.8110    7.5610   34.3500 C.2   1338  NDP1338     0.3518
     23  O3        11.9550    1.1810   36.8620 O.3   1338  NDP1338    -0.2703
     24  PN        10.6420    0.4660   36.2100 P.3   1338  NDP1338     0.2189
     25  O1N        9.5320    0.7320   37.1890 O.3   1338  NDP1338    -0.4371
     26  O2N       10.9850   -0.9100   35.7360 O.2   1338  NDP1338    -0.5170
     27  O5D       10.3240    1.2950   34.8620 O.3   1338  NDP1338    -0.3112
     28  C5D       10.0520    2.6920   34.8820 C.3   1338  NDP1338     0.1813
     29  C4D        9.5390    3.1170   33.5080 C.3   1338  NDP1338     0.1799
     30  O4D       10.4680    2.8700   32.4530 O.3   1338  NDP1338    -0.3327
     31  C3D        8.2810    2.2870   33.2590 C.3   1338  NDP1338     0.2158
     32  O3D        7.2480    3.1040   32.7140 O.3   1338  NDP1338    -0.2175
     33  C2D        8.8190    1.1870   32.3570 C.3   1338  NDP1338     0.2309
     34  O2D        7.8010    0.6230   31.5350 O.3   1338  NDP1338    -0.2158
     35  C1D        9.9320    1.8760   31.5750 C.3   1338  NDP1338     0.2263
     36  N1N       10.9100    0.8850   31.0160 N.pl3 1338  NDP1338    -0.2787
     37  C2N       11.3010    1.4090   29.7900 C.3   1338  NDP1338     0.1244
     38  C3N       12.5360    1.1630   29.1840 C.2   1338  NDP1338     0.0544
     39  C7N       12.8780    1.8880   27.8890 C.2   1338  NDP1338     0.2818
     40  O7N       11.9950    2.9180   27.4510 O.2   1338  NDP1338    -0.2670
     41  N7N       14.0490    1.6710   27.2580 N.am  1338  NDP1338    -0.0839
     42  C4N       13.5880    0.3180   29.8940 C.2   1338  NDP1338     0.0033
     43  C5N       13.0910   -0.2070   31.2160 C.2   1338  NDP1338     0.0157
     44  C6N       11.7810    0.0490   31.6800 C.2   1338  NDP1338     0.0633
     45  P2B        8.8270    7.1670   37.2160 P.3   1338  NDP1338     0.5328
     46  O1X        8.2540    6.0520   36.3940 O.2   1338  NDP1338    -0.2224
     47  O2X        8.0320    7.5070   38.4400 O.3   1338  NDP1338    -0.1145
     48  O3X        8.9680    8.4540   36.4170 O.3   1338  NDP1338    -0.1145
@<TRIPOS>BOND
     1    41    39   am
     2    40    39    2
     3    39    38    1
     4    38    37    1
     5    38    42    2
     6    37    36    1
     7    42    43    1
     8    36    35    1
     9    36    44    1
    10    43    44    2
    11    34    33    1
    12    35    33    1
    13    35    30    1
    14    18    17    1
    15    19    17    2
    16    19    20    1
    17    17    16    1
    18    33    31    1
    19    20    21    1
    20    30    29    1
    21    32    31    1
    22    31    29    1
    23    29    28    1
    24    16    22    1
    25    16    15    2
    26    21    22    2
    27    22    13    1
    28    15    14    1
    29     2     1    2
    30    27    28    1
    31    27    24    1
    32    13    14    1
    33    13    12    1
    34    26    24    2
    35     5     4    1
    36     5     6    1
    37    24    23    1
    38    24    25    1
    39     1     4    1
    40     1    23    1
    41     1     3    1
    42    46    45    2
    43    48    45    1
    44     7    12    1
    45     7     6    1
    46    12    10    1
    47    10     8    1
    48    10    11    1
    49     6     8    1
    50    45    11    1
    51    45    47    1
    52     8     9    1
