@<TRIPOS>MOLECULE
2c6t_DT5_A_1.pdb
 27 30 0 0 0
SMALL
GASTEIGER

@<TRIPOS>ATOM
      1  N6        35.2850  131.5110   37.1530 N.3   1297  DT51297     0.0392
      2  S1        34.0950  132.3920   36.5480 S.O2  1297  DT51297     0.0935
      3  O2        33.4750  133.1620   37.5890 O.2   1297  DT51297    -0.1503
      4  O3        33.1260  131.5230   35.9560 O.2   1297  DT51297    -0.1503
      5  C16       34.7290  133.4910   35.3160 C.ar  1297  DT51297     0.1253
      6  C15       34.7620  134.8690   35.5610 C.ar  1297  DT51297     0.0236
      7  C17       35.2090  132.9750   34.0910 C.ar  1297  DT51297     0.0236
      8  C18       35.7110  133.8390   33.1220 C.ar  1297  DT51297     0.0458
      9  C14       35.2570  135.7360   34.5880 C.ar  1297  DT51297     0.0458
     10  C13       35.7570  135.2220   33.3700 C.ar  1297  DT51297     0.1833
     11  N5        36.1770  136.0860   32.4050 N.pl3 1297  DT51297    -0.0078
     12  C9        37.1790  135.7930   31.5480 C.2   1297  DT51297     0.3588
     13  N2        37.3210  136.5040   30.4390 N.pl3 1297  DT51297     0.0181
     14  C10       38.3240  136.2870   29.5890 C.1   1297  DT51297     0.2761
     15  N1        39.2470  135.3190   29.7960 N.2   1297  DT51297    -0.2797
     16  N4        38.2020  137.1110   28.5710 N.2   1297  DT51297    -0.1227
     17  C11       37.0910  137.8820   28.8080 C.2   1297  DT51297     0.2568
     18  N3        36.5610  137.4900   29.9830 N.2   1297  DT51297    -0.0484
     19  C8        38.1170  134.8190   31.8410 C.2   1297  DT51297     0.1629
     20  C7        39.1600  134.5690   30.9190 C.2   1297  DT51297     0.2978
     21  O1        40.0830  133.5890   31.1930 O.2   1297  DT51297    -0.4548
     22  C1        40.7860  133.1930   30.0790 C.3   1297  DT51297     0.1686
     23  C2        41.8000  132.1300   30.5180 C.3   1297  DT51297     0.0436
     24  C3        41.0520  130.9700   31.1850 C.3   1297  DT51297     0.0037
     25  C4        40.0970  130.3270   30.1720 C.3   1297  DT51297     0.0002
     26  C5        39.1070  131.3710   29.6360 C.3   1297  DT51297     0.0037
     27  C6        39.8460  132.5770   29.0320 C.3   1297  DT51297     0.0436
@<TRIPOS>BOND
     1    16    17    1
     2    16    14    2
     3    17    18    2
     4    27    26    1
     5    27    22    1
     6    14    15    2
     7    14    13    1
     8    26    25    1
     9    15    20    2
    10    18    13    1
    11    22    23    1
    12    22    21    1
    13    25    24    1
    14    13    12    1
    15    23    24    1
    16    20    21    1
    17    20    19    1
    18    12    19    2
    19    12    11    1
    20    11    10    1
    21     8    10   ar
    22     8     7   ar
    23    10     9   ar
    24     7     5   ar
    25     9     6   ar
    26     5     6   ar
    27     5     2    1
    28     4     2    2
    29     2     1    1
    30     2     3    2
