@<TRIPOS>MOLECULE
2c6x_CIT_A_1.pdb
 13 12 0 0 0
SMALL
GASTEIGER

@<TRIPOS>ATOM
      1  C1        -4.5480    2.8890   17.2100 C.2   1366  CIT1366     0.3680
      2  O1        -5.5180    2.4950   16.8600 O.co2 1366  CIT1366    -0.2455
      3  O2        -4.2990    3.7020   18.0530 O.co2 1366  CIT1366    -0.2455
      4  C2        -3.2270    2.3870   16.5700 C.3   1366  CIT1366     0.1560
      5  C3        -3.2330    1.1650   15.5940 C.3   1366  CIT1366     0.2402
      6  O7        -3.0570    1.1370   14.1570 O.3   1366  CIT1366    -0.2129
      7  C4        -2.9700   -0.2670   16.2660 C.3   1366  CIT1366     0.1560
      8  C5        -2.9760   -1.4750   15.3130 C.2   1366  CIT1366     0.3680
      9  O3        -2.7340   -2.6280   15.9180 O.co2 1366  CIT1366    -0.2455
     10  O4        -3.1610   -1.4660   14.1150 O.co2 1366  CIT1366    -0.2455
     11  C6        -1.6820    1.5130   15.5560 C.2   1366  CIT1366     0.3927
     12  O5        -1.3040    2.3970   14.6950 O.co2 1366  CIT1366    -0.2429
     13  O6        -0.8530    0.9410   16.3570 O.co2 1366  CIT1366    -0.2429
@<TRIPOS>BOND
     1    10     8   ar
     2     6     5    1
     3    12    11   ar
     4     8     9   ar
     5     8     7    1
     6    11     5    1
     7    11    13   ar
     8     5     7    1
     9     5     4    1
    10     4     1    1
    11     2     1   ar
    12     1     3   ar
