@<TRIPOS>MOLECULE
2c6x_COZ_A_1.pdb
 48 50 0 0 0
SMALL
GASTEIGER

@<TRIPOS>ATOM
      1  N1A      -15.9250   -8.6390    3.3480 N.2   1365  COZ1365     0.0021
      2  C2A      -17.2180   -8.3570    3.1270 C.3   1365  COZ1365     0.5254
      3  N3A      -17.7470   -7.2020    3.5530 N.2   1365  COZ1365    -0.0055
      4  C4A      -16.9860   -6.2990    4.2160 C.2   1365  COZ1365     0.3518
      5  C5A      -15.6490   -6.5670    4.4520 C.2   1365  COZ1365     0.2526
      6  C6A      -15.1230   -7.7690    4.0040 C.2   1365  COZ1365     0.4393
      7  N6A      -13.8470   -8.0650    4.2360 N.pl3 1365  COZ1365     0.2180
      8  N7A      -15.1350   -5.5420    5.1110 N.2   1365  COZ1365    -0.2095
      9  C8A      -16.1070   -4.6470    5.2950 C.3   1365  COZ1365     0.3377
     10  N9A      -17.2450   -5.1040    4.7510 N.pl3 1365  COZ1365    -0.1439
     11  C1B      -18.5500   -4.3690    4.7740 C.3   1365  COZ1365     0.3185
     12  C2B      -19.8170   -5.1960    4.8770 C.3   1365  COZ1365     0.2543
     13  O2B      -20.1440   -5.7980    3.6210 O.3   1365  COZ1365    -0.2131
     14  C3B      -20.8520   -4.1720    5.2800 C.3   1365  COZ1365     0.1928
     15  O3B      -21.3350   -3.5120    4.0750 O.3   1365  COZ1365    -0.2673
     16  P3B      -22.9360   -3.7500    3.8130 P.3   1365  COZ1365     0.5327
     17  O7A      -23.7960   -4.0330    5.1480 O.3   1365  COZ1365    -0.1145
     18  O8A      -23.6010   -2.6540    2.8320 O.2   1365  COZ1365    -0.2224
     19  O9A      -23.0210   -5.0220    3.0470 O.3   1365  COZ1365    -0.1145
     20  C4B      -20.0650   -3.1410    6.1440 C.3   1365  COZ1365     0.1795
     21  O4B      -18.6490   -3.5500    5.9610 O.3   1365  COZ1365    -0.3136
     22  C5B      -20.3960   -2.6880    7.5440 C.3   1365  COZ1365     0.1812
     23  O5B      -19.4910   -1.6420    7.9460 O.3   1365  COZ1365    -0.3112
     24  P1A      -18.6150   -2.0990    9.2410 P.3   1365  COZ1365     0.2189
     25  O1A      -19.4380   -2.9360   10.3460 O.3   1365  COZ1365    -0.4371
     26  O2A      -17.6390   -3.0740    8.7130 O.2   1365  COZ1365    -0.5170
     27  O3A      -17.7240   -0.9030    9.8660 O.3   1365  COZ1365    -0.2703
     28  P2A      -16.3720   -0.6710    9.0100 P.3   1365  COZ1365     0.2188
     29  O4A      -16.5090   -1.0530    7.4520 O.2   1365  COZ1365    -0.5170
     30  O5A      -16.1860    0.7980    8.9980 O.3   1365  COZ1365    -0.4371
     31  O6A      -15.0390   -1.2550    9.7450 O.3   1365  COZ1365    -0.3138
     32  CBP      -13.8650   -3.3970    9.5710 C.3   1365  COZ1365     0.0645
     33  CCP      -14.2560   -2.0720    8.8570 C.3   1365  COZ1365     0.1519
     34  CDP      -12.6760   -3.1720   10.5310 C.3   1365  COZ1365     0.0056
     35  CEP      -14.9840   -4.3210    9.9940 C.3   1365  COZ1365     0.0056
     36  CAP      -13.1810   -4.1900    8.3970 C.3   1365  COZ1365     0.2312
     37  OAP      -14.0510   -4.2150    7.2610 O.3   1365  COZ1365    -0.2131
     38  C9P      -12.8000   -5.6620    8.7530 C.2   1365  COZ1365     0.2719
     39  O9P      -13.6590   -6.4550    9.1360 O.2   1365  COZ1365    -0.2706
     40  N8P      -11.5120   -5.9900    8.5880 N.am  1365  COZ1365    -0.2028
     41  C7P      -11.0340   -7.3530    8.8710 C.3   1365  COZ1365     0.1248
     42  C6P      -10.3720   -7.4200   10.2510 C.3   1365  COZ1365     0.1102
     43  C5P       -8.9340   -6.8990   10.2440 C.2   1365  COZ1365     0.2432
     44  O5P       -8.6530   -5.7790    9.8250 O.2   1365  COZ1365    -0.2733
     45  N4P       -8.0590   -7.7670   10.7350 N.am  1365  COZ1365    -0.2044
     46  C3P       -6.6210   -7.5170   10.8370 C.3   1365  COZ1365     0.1276
     47  C2P       -6.0740   -8.3990   11.9510 C.3   1365  COZ1365     0.0920
     48  S1P       -6.4660  -10.1690   11.6990 S.3   1365  COZ1365    -0.0802
@<TRIPOS>BOND
     1    18    16    2
     2    19    16    1
     3     2     1    1
     4     2     3    1
     5     1     6    2
     6     3     4    2
     7    13    12    1
     8    16    15    1
     9    16    17    1
    10     6     7    1
    11     6     5    1
    12    15    14    1
    13     4     5    1
    14     4    10    1
    15     5     8    2
    16    10    11    1
    17    10     9    1
    18    11    12    1
    19    11    21    1
    20    12    14    1
    21     8     9    1
    22    14    20    1
    23    21    20    1
    24    20    22    1
    25    37    36    1
    26    29    28    2
    27    22    23    1
    28    23    24    1
    29    36    38    1
    30    36    32    1
    31    40    38   am
    32    40    41    1
    33    26    24    2
    34    38    39    2
    35    33    32    1
    36    33    31    1
    37    41    42    1
    38    30    28    1
    39    28    31    1
    40    28    27    1
    41    24    27    1
    42    24    25    1
    43    32    35    1
    44    32    34    1
    45    44    43    2
    46    43    42    1
    47    43    45   am
    48    45    46    1
    49    46    47    1
    50    48    47    1
