@<TRIPOS>MOLECULE
2c6z_CIR_A_1.pdb
 12 11 0 0 0
SMALL
GASTEIGER

@<TRIPOS>ATOM
      1  C1         5.1880   11.5200    8.4640 C.2   1281  CIR1281     0.3819
      2  O1         5.6780   11.0310    9.4980 O.co2 1281  CIR1281    -0.2441
      3  O2         5.7060   12.3380    7.7000 O.co2 1281  CIR1281    -0.2441
      4  C2         3.7650   11.0430    8.0920 C.3   1281  CIR1281     0.1944
      5  N2         3.0660   12.1000    7.2930 N.3   1281  CIR1281    -0.1208
      6  C3         3.8360    9.7370    7.3330 C.3   1281  CIR1281     0.0324
      7  C4         4.4080    8.5780    8.1670 C.3   1281  CIR1281     0.0256
      8  C5         4.3710    7.2640    7.4120 C.3   1281  CIR1281     0.1169
      9  N6         4.9400    6.1850    8.2110 N.am  1281  CIR1281    -0.1859
     10  C7         4.9790    4.9140    7.7660 C.2   1281  CIR1281     0.3589
     11  O7         4.5130    4.5480    6.6630 O.2   1281  CIR1281    -0.2474
     12  N8         5.4480    3.9230    8.4830 N.am  1281  CIR1281    -0.0679
@<TRIPOS>BOND
     1    11    10    2
     2     5     4    1
     3     6     4    1
     4     6     7    1
     5     8     7    1
     6     8     9    1
     7     3     1   ar
     8    10     9   am
     9    10    12   am
    10     4     1    1
    11     1     2   ar
