@<TRIPOS>MOLECULE
2c70_PNZ_A_1.pdb
 11 11 0 0 0
SMALL
GASTEIGER

@<TRIPOS>ATOM
      1  C6        51.8040  154.4970   27.3590 C.ar  601  PNZ601      0.1429
      2  C7        51.7670  153.1320   27.0320 C.ar  601  PNZ601      0.0238
      3  C8        52.3710  152.6930   25.8550 C.ar  601  PNZ601     -0.0011
      4  C9        52.9970  153.6090   24.9940 C.ar  601  PNZ601     -0.0031
      5  C4        53.0370  154.9700   25.3060 C.ar  601  PNZ601     -0.0011
      6  C5        52.4360  155.4060   26.4900 C.ar  601  PNZ601      0.0238
      7  N2        53.4200  151.7750   23.4320 N.3   601  PNZ601     -0.1262
      8  C3        53.6460  153.1250   23.7130 C.3   601  PNZ601      0.1356
      9  N10       51.1940  154.9610   28.5510 N.pl3 601  PNZ601      0.0577
     10  O11       51.1670  156.1540   28.8200 O.2   601  PNZ601     -0.1261
     11  O12       50.6790  154.1710   29.3400 O.2   601  PNZ601     -0.1261
@<TRIPOS>BOND
     1     7     8    1
     2     8     4    1
     3     4     5   ar
     4     4     3   ar
     5     5     6   ar
     6     3     2   ar
     7     6     1   ar
     8     2     1   ar
     9     1     9    1
    10     9    10    2
    11     9    11    2
