@<TRIPOS>MOLECULE
2c72_RSA_A_1.pdb
 13 14 0 0 0
SMALL
GASTEIGER

@<TRIPOS>ATOM
      1  C13       54.0420  150.5540   21.7010 C.2   601  RSA601      0.0016
      2  C12       54.1330  151.0430   22.8760 C.2   601  RSA601      0.0202
      3  C11       53.0840  152.0040   23.3960 C.2   601  RSA601      0.0935
      4  N10       53.3090  152.6360   24.4730 N.2   601  RSA601     -0.2664
      5  C9        52.2750  153.5280   24.9230 C.3   601  RSA601      0.1255
      6  C1        52.8560  154.9360   25.1370 C.3   601  RSA601      0.0335
      7  C2        52.3950  155.4060   26.5320 C.3   601  RSA601      0.0284
      8  C3        51.9820  154.1160   27.1780 C.ar  601  RSA601     -0.0243
      9  C8        51.9180  153.0890   26.2940 C.ar  601  RSA601     -0.0041
     10  C7        51.5770  151.8050   26.6740 C.ar  601  RSA601     -0.0027
     11  C4        51.6900  153.9230   28.5110 C.ar  601  RSA601     -0.0045
     12  C5        51.3290  152.6440   28.9250 C.ar  601  RSA601     -0.0003
     13  C6        51.2800  151.5910   28.0140 C.ar  601  RSA601     -0.0003
@<TRIPOS>BOND
     1     1     2    2
     2     2     3    1
     3     3     4    2
     4     4     5    1
     5     5     6    1
     6     5     9    1
     7     6     7    1
     8     9    10   ar
     9     9     8   ar
    10     7     8    1
    11    10    13   ar
    12     8    11   ar
    13    13    12   ar
    14    11    12   ar
