@<TRIPOS>MOLECULE
2c73_RSA_A_1.pdb
 13 14 0 0 0
SMALL
GASTEIGER

@<TRIPOS>ATOM
      1  C13       56.4160  149.9520   22.5620 C.3   601  RSA601      0.0321
      2  C12       56.3550  150.2100   23.8540 C.2   601  RSA601     -0.0084
      3  C11       55.4990  151.3600   24.3880 C.2   601  RSA601      0.0758
      4  N10       55.3830  151.5210   25.6640 N.pl3 601  RSA601     -0.2340
      5  C9        54.4880  152.6250   26.0280 C.3   601  RSA601      0.1147
      6  C1        55.0260  154.0670   25.9100 C.3   601  RSA601      0.0307
      7  C2        54.4480  154.8660   27.1150 C.3   601  RSA601      0.0282
      8  C3        53.8690  153.8060   28.0060 C.ar  601  RSA601     -0.0245
      9  C8        53.8890  152.5610   27.4050 C.ar  601  RSA601     -0.0066
     10  C7        53.3910  151.4300   28.0460 C.ar  601  RSA601     -0.0029
     11  C4        53.3460  154.0180   29.2790 C.ar  601  RSA601     -0.0045
     12  C5        52.8520  152.9120   29.9570 C.ar  601  RSA601     -0.0003
     13  C6        52.8810  151.6450   29.3450 C.ar  601  RSA601     -0.0003
@<TRIPOS>BOND
     1     1     2    1
     2     2     3    2
     3     3     4    1
     4     4     5    1
     5     6     5    1
     6     6     7    1
     7     5     9    1
     8     7     8    1
     9     9     8   ar
    10     9    10   ar
    11     8    11   ar
    12    10    13   ar
    13    11    12   ar
    14    13    12   ar
