@<TRIPOS>MOLECULE
2c74_III_P_1.pdb
 33 33 0 0 0
SMALL
GASTEIGER

@<TRIPOS>ATOM
      1  N         -9.9790  -21.9170   23.1880 N.3     3  GLN3       -0.1231
      2  CA       -10.5120  -22.8280   22.0900 C.3     3  GLN3        0.1694
      3  C        -10.1090  -22.3480   20.6720 C.2     3  GLN3        0.2592
      4  O        -10.9540  -22.2350   19.7660 O.2     3  GLN3       -0.2718
      5  CB       -12.0430  -22.9640   22.1900 C.3     3  GLN3        0.0304
      6  N         -8.8170  -22.0790   20.4930 N.am    4  ARG4       -0.1966
      7  CA        -8.3010  -21.5430   19.2500 C.3     4  ARG4        0.1728
      8  C         -8.1810  -22.6070   18.1510 C.2     4  ARG4        0.2617
      9  O         -7.9230  -23.7600   18.4120 O.2     4  ARG4       -0.2715
     10  CB        -6.9390  -20.8720   19.5040 C.3     4  ARG4        0.0334
     11  N         -8.4170  -22.1810   16.9180 N.am    5  SER5       -0.1937
     12  CA        -8.1420  -22.9580   15.6980 C.3     5  SER5        0.2027
     13  CB        -9.3540  -22.9650   14.7740 C.3     5  SER5        0.1847
     14  OG        -9.7350  -21.6490   14.4730 O.3     5  SER5       -0.2679
     15  C         -6.9440  -22.3160   14.9880 C.2     5  SER5        0.2642
     16  O         -6.3930  -21.3420   15.4550 O.2     5  SER5       -0.2714
     17  P        -11.0100  -21.5880   13.5450 P.3     5  SER5        0.5327
     18  O1P      -11.3530  -20.0670   13.2710 O.3     5  SER5       -0.1145
     19  O2P      -12.3490  -22.2040   14.1230 O.3     5  SER5       -0.1145
     20  O3P      -10.6300  -22.3270   12.1760 O.2     5  SER5       -0.2224
     21  N         -6.5310  -22.8880   13.8710 N.am    6  ALA6       -0.1963
     22  CA        -5.3350  -22.4540   13.2000 C.3     6  ALA6        0.1713
     23  C         -5.5190  -21.0360   12.7260 C.2     6  ALA6        0.2459
     24  O         -6.5770  -20.6990   12.2040 O.2     6  ALA6       -0.2730
     25  CB        -5.0470  -23.3590   12.0360 C.3     6  ALA6        0.0333
     26  N         -4.4910  -20.1910   12.8930 N.am    7  PRO7       -0.2699
     27  CA        -4.6460  -18.8410   12.3610 C.3     7  PRO7        0.1791
     28  C         -4.4320  -18.8660   10.8530 C.2     7  PRO7        0.3825
     29  O         -5.2500  -18.2530   10.1530 O.co2   7  PRO7       -0.2438
     30  CB        -3.5420  -18.0310   13.0620 C.3     7  PRO7        0.0332
     31  CG        -2.8310  -18.9960   13.9770 C.3     7  PRO7        0.0238
     32  CD        -3.1670  -20.3760   13.5000 C.3     7  PRO7        0.0940
     33  OXT       -3.4890  -19.5090   10.3430 O.co2   7  PRO7       -0.2438
@<TRIPOS>BOND
     1    29    28   ar
     2    33    28   ar
     3    28    27    1
     4    25    22    1
     5    20    17    2
     6    24    23    2
     7    27    26    1
     8    27    30    1
     9    23    26   am
    10    23    22    1
    11    26    32    1
    12    30    31    1
    13    22    21    1
    14    18    17    1
    15    32    31    1
    16    17    19    1
    17    17    14    1
    18    21    15   am
    19    14    13    1
    20    13    12    1
    21    15    16    2
    22    15    12    1
    23    12    11    1
    24    11     8   am
    25     8     9    2
    26     8     7    1
    27     7    10    1
    28     7     6    1
    29     4     3    2
    30     6     3   am
    31     3     2    1
    32     2     5    1
    33     2     1    1
