@<TRIPOS>MOLECULE
2c75_RSA_A_1.pdb
 13 14 0 0 0
SMALL
GASTEIGER

@<TRIPOS>ATOM
      1  C13       54.1440  151.1800   21.9310 C.2   601  RSA601      0.0016
      2  C12       54.2160  151.8040   23.0800 C.2   601  RSA601      0.0202
      3  C11       53.2470  152.8980   23.5680 C.2   601  RSA601      0.0935
      4  N10       53.3820  153.4360   24.7400 N.2   601  RSA601     -0.2664
      5  C9        52.4510  154.4690   25.1790 C.3   601  RSA601      0.1255
      6  C1        53.0890  155.8730   25.2470 C.3   601  RSA601      0.0335
      7  C2        52.5670  156.5480   26.5340 C.3   601  RSA601      0.0284
      8  C3        51.9990  155.4010   27.3140 C.ar  601  RSA601     -0.0243
      9  C8        51.9440  154.2530   26.5750 C.ar  601  RSA601     -0.0041
     10  C7        51.4510  153.0780   27.1160 C.ar  601  RSA601     -0.0027
     11  C4        51.5660  155.4340   28.6270 C.ar  601  RSA601     -0.0045
     12  C5        51.0700  154.2650   29.1890 C.ar  601  RSA601     -0.0003
     13  C6        51.0090  153.0940   28.4380 C.ar  601  RSA601     -0.0003
@<TRIPOS>BOND
     1     1     2    2
     2     2     3    1
     3     3     4    2
     4     4     5    1
     5     5     6    1
     6     5     9    1
     7     6     7    1
     8     7     8    1
     9     9    10   ar
    10     9     8   ar
    11    10    13   ar
    12     8    11   ar
    13    13    12   ar
    14    11    12   ar
