@<TRIPOS>MOLECULE
2c76_RSA_A_1.pdb
 13 14 0 0 0
SMALL
GASTEIGER

@<TRIPOS>ATOM
      1  C13       54.2830  151.6750   22.0380 C.2   601  RSA601      0.0016
      2  C12       54.3950  152.3710   23.1500 C.2   601  RSA601      0.0202
      3  C11       53.3610  153.3830   23.6790 C.2   601  RSA601      0.0935
      4  N10       53.5700  154.0770   24.7540 N.2   601  RSA601     -0.2664
      5  C9        52.5570  155.0090   25.2300 C.3   601  RSA601      0.1255
      6  C1        53.0850  156.4540   25.3770 C.3   601  RSA601      0.0335
      7  C2        52.5740  156.9940   26.7300 C.3   601  RSA601      0.0284
      8  C3        52.0620  155.7670   27.4240 C.ar  601  RSA601     -0.0243
      9  C8        52.0620  154.6730   26.6070 C.ar  601  RSA601     -0.0041
     10  C7        51.6300  153.4390   27.0740 C.ar  601  RSA601     -0.0027
     11  C4        51.6230  155.6890   28.7370 C.ar  601  RSA601     -0.0045
     12  C5        51.1950  154.4630   29.2260 C.ar  601  RSA601     -0.0003
     13  C6        51.1870  153.3450   28.3980 C.ar  601  RSA601     -0.0003
@<TRIPOS>BOND
     1     1     2    2
     2     2     3    1
     3     3     4    2
     4     4     5    1
     5     5     6    1
     6     5     9    1
     7     6     7    1
     8     9    10   ar
     9     9     8   ar
    10     7     8    1
    11    10    13   ar
    12     8    11   ar
    13    13    12   ar
    14    11    12   ar
