@<TRIPOS>MOLECULE
2c78_GNP_A_1.pdb
 32 34 0 0 0
SMALL
GASTEIGER

@<TRIPOS>ATOM
      1  PG        18.8650   58.3910   -0.3780 P.3   1406  GNP1406     0.4884
      2  O1G       18.5890   56.9390   -0.0870 O.3   1406  GNP1406    -0.1240
      3  O2G       20.2660   58.5400   -0.7740 O.2   1406  GNP1406    -0.2331
      4  O3G       18.4080   59.2290    0.7920 O.3   1406  GNP1406    -0.1240
      5  N3B       17.9300   58.7790   -1.6990 N.3   1406  GNP1406    -0.0163
      6  PB        17.6550   57.8330   -2.9930 P.3   1406  GNP1406     0.4669
      7  O1B       18.8580   57.7230   -3.8460 O.2   1406  GNP1406    -0.2351
      8  O2B       17.0740   56.5100   -2.5800 O.3   1406  GNP1406    -0.1253
      9  O3A       16.5550   58.6740   -3.8130 O.3   1406  GNP1406    -0.2360
     10  PA        14.9700   58.4880   -3.8410 P.3   1406  GNP1406     0.2220
     11  O1A       14.5640   57.2370   -4.5040 O.2   1406  GNP1406    -0.5170
     12  O2A       14.5090   58.6640   -2.4420 O.3   1406  GNP1406    -0.4370
     13  O5'       14.5640   59.6780   -4.7800 O.3   1406  GNP1406    -0.3111
     14  C5'       14.9110   61.0180   -4.4400 C.3   1406  GNP1406     0.1813
     15  C4'       13.9770   61.9520   -5.1370 C.3   1406  GNP1406     0.1799
     16  O4'       14.1370   62.0070   -6.5830 O.3   1406  GNP1406    -0.3326
     17  C3'       12.4610   61.7380   -4.9300 C.3   1406  GNP1406     0.2158
     18  O3'       11.7510   62.9770   -4.8530 O.3   1406  GNP1406    -0.2175
     19  C2'       12.0580   60.9250   -6.1340 C.3   1406  GNP1406     0.2310
     20  O2'       10.6910   60.9190   -6.5120 O.3   1406  GNP1406    -0.2158
     21  C1'       12.9830   61.4860   -7.2030 C.3   1406  GNP1406     0.2293
     22  N9        13.2630   60.5850   -8.2970 N.pl3 1406  GNP1406    -0.2354
     23  C8        13.7340   59.2800   -8.2490 C.3   1406  GNP1406     0.2246
     24  N7        13.8680   58.7450   -9.4180 N.2   1406  GNP1406    -0.2322
     25  C5        13.4700   59.7350  -10.3000 C.2   1406  GNP1406     0.2182
     26  C6        13.3930   59.7280  -11.7350 C.1   1406  GNP1406     0.2372
     27  O6        13.6790   58.8100  -12.4930 O.2   1406  GNP1406    -0.2069
     28  N1        12.9230   60.9720  -12.2690 N.2   1406  GNP1406    -0.2485
     29  C2        12.5680   62.0760  -11.4990 C.1   1406  GNP1406     0.2531
     30  N2        12.1470   63.1630  -12.1640 N.pl3 1406  GNP1406    -0.0226
     31  N3        12.6350   62.0840  -10.1400 N.2   1406  GNP1406    -0.3074
     32  C4        13.0920   60.8770   -9.6180 C.2   1406  GNP1406     0.2300
@<TRIPOS>BOND
     1    27    26    2
     2    28    26    2
     3    28    29    2
     4    30    29    1
     5    26    25    1
     6    29    31    2
     7    25    32    1
     8    25    24    2
     9    31    32    2
    10    32    22    1
    11    24    23    1
    12    22    23    1
    13    22    21    1
    14    21    16    1
    15    21    19    1
    16    16    15    1
    17    20    19    1
    18    19    17    1
    19    15    17    1
    20    15    14    1
    21    17    18    1
    22    13    14    1
    23    13    10    1
    24    11    10    2
    25     7     6    2
    26    10     9    1
    27    10    12    1
    28     9     6    1
    29     6     8    1
    30     6     5    1
    31     5     1    1
    32     3     1    2
    33     1     2    1
    34     1     4    1
