@<TRIPOS>MOLECULE
2c7e_ATP_A_1.pdb
 31 33 0 0 0
SMALL
GASTEIGER

@<TRIPOS>ATOM
      1  PG        33.9380   32.6060  -26.2320 P.3   551  ATP551      0.5373
      2  O1G       33.5620   31.3740  -25.4670 O.3   551  ATP551     -0.1143
      3  O2G       33.0200   33.0500  -27.3290 O.2   551  ATP551     -0.2221
      4  O3G       35.3750   32.6150  -26.6000 O.3   551  ATP551     -0.1143
      5  PB        34.9130   34.8430  -24.7130 P.3   551  ATP551      0.2277
      6  O1B       35.6520   35.3250  -25.9010 O.2   551  ATP551     -0.5168
      7  O2B       34.3200   35.8530  -23.7830 O.3   551  ATP551     -0.4368
      8  O3B       33.7510   33.8370  -25.2060 O.3   551  ATP551     -0.2258
      9  PA        37.4610   33.4990  -23.8720 P.3   551  ATP551      0.2189
     10  O1A       37.6650   32.3320  -23.0210 O.3   551  ATP551     -0.4371
     11  O2A       37.8940   33.3820  -25.2830 O.2   551  ATP551     -0.5170
     12  O3A       35.8890   33.9500  -23.7630 O.3   551  ATP551     -0.2700
     13  O5'       38.2910   34.6570  -23.1560 O.3   551  ATP551     -0.3112
     14  C5'       38.4020   35.9770  -23.6580 C.3   551  ATP551      0.1813
     15  C4'       38.8620   36.9330  -22.5820 C.3   551  ATP551      0.1821
     16  O4'       40.1360   36.5330  -22.0140 O.3   551  ATP551     -0.3135
     17  C3'       39.0300   38.3480  -23.1030 C.3   551  ATP551      0.2184
     18  O3'       38.6180   39.2180  -22.0550 O.3   551  ATP551     -0.2174
     19  C2'       40.5620   38.3620  -23.3330 C.3   551  ATP551      0.2570
     20  O2'       41.1890   39.6730  -23.3710 O.3   551  ATP551     -0.2130
     21  C1'       41.0450   37.6160  -22.1120 C.3   551  ATP551      0.3186
     22  N9        42.4600   37.1880  -22.1550 N.pl3 551  ATP551     -0.1439
     23  C8        43.1920   36.5310  -23.1270 C.3   551  ATP551      0.3377
     24  N7        44.4480   36.3190  -22.8050 N.2   551  ATP551     -0.2095
     25  C5        44.5580   36.8760  -21.5330 C.2   551  ATP551      0.2526
     26  C6        45.6200   37.0040  -20.5960 C.2   551  ATP551      0.4393
     27  N6        46.8590   36.5650  -20.7880 N.pl3 551  ATP551      0.2180
     28  N1        45.3530   37.6280  -19.4090 N.2   551  ATP551      0.0021
     29  C2        44.1300   38.0910  -19.1540 C.3   551  ATP551      0.5254
     30  N3        43.0580   38.0280  -19.9580 N.2   551  ATP551     -0.0055
     31  C4        43.3450   37.4010  -21.1380 C.2   551  ATP551      0.3518
@<TRIPOS>BOND
     1     3     1    2
     2     4     1    1
     3     1     2    1
     4     1     8    1
     5     6     5    2
     6    11     9    2
     7     8     5    1
     8     5     7    1
     9     5    12    1
    10     9    12    1
    11     9    13    1
    12     9    10    1
    13    14    13    1
    14    14    15    1
    15    20    19    1
    16    19    17    1
    17    19    21    1
    18    23    24    1
    19    23    22    1
    20    17    15    1
    21    17    18    1
    22    24    25    2
    23    15    16    1
    24    22    21    1
    25    22    31    1
    26    21    16    1
    27    25    31    1
    28    25    26    1
    29    31    30    2
    30    27    26    1
    31    26    28    2
    32    30    29    1
    33    28    29    1
