@<TRIPOS>MOLECULE
2c7f_AHR_A_2.pdb
 10 10 0 0 0
SMALL
GASTEIGER

@<TRIPOS>ATOM
      1  O5'       29.6050   24.2470  -40.4550 O.2   1505  AHR1505    -0.2855
      2  C5'       30.0770   23.2400  -40.9580 C.2   1505  AHR1505     0.2394
      3  C4'       30.8670   23.2850  -42.2500 C.3   1505  AHR1505     0.2149
      4  O4'       32.0300   24.1300  -42.1480 O.3   1505  AHR1505    -0.3183
      5  C3'       30.0120   23.8180  -43.3920 C.3   1505  AHR1505     0.2219
      6  O3'       29.5800   22.7650  -44.2580 O.3   1505  AHR1505    -0.2171
      7  C2'       30.9410   24.7490  -44.1350 C.3   1505  AHR1505     0.2437
      8  O2'       30.2480   25.8710  -44.6880 O.3   1505  AHR1505    -0.2147
      9  C1'       31.9740   25.1880  -43.1120 C.3   1505  AHR1505     0.3027
     10  O1'       33.1550   25.4620  -43.8860 O.3   1505  AHR1505    -0.1869
@<TRIPOS>BOND
     1     8     7    1
     2     6     5    1
     3     7     5    1
     4     7     9    1
     5    10     9    1
     6     5     3    1
     7     9     4    1
     8     3     4    1
     9     3     2    1
    10     2     1    2
