@<TRIPOS>MOLECULE
2c7g_ODP_A_1.pdb
 49 53 0 0 0
SMALL
GASTEIGER

@<TRIPOS>ATOM
      1  O1X       68.7880   19.7990    1.8580 O.3   502  ODP502     -0.1145
      2  P2B       68.3600   20.6120    0.6850 P.3   502  ODP502      0.5328
      3  O2X       68.2610   19.7930   -0.5650 O.2   502  ODP502     -0.2224
      4  O3X       69.1040   21.9220    0.5350 O.3   502  ODP502     -0.1145
      5  O2B       66.8690   21.1210    1.0060 O.3   502  ODP502     -0.2630
      6  C2B       65.9050   20.2610    1.5980 C.3   502  ODP502      0.2314
      7  C3B       64.8320   19.7900    0.6210 C.3   502  ODP502      0.2157
      8  O3B       64.5250   20.8220   -0.3210 O.3   502  ODP502     -0.2175
      9  C1B       65.0350   21.0690    2.5330 C.3   502  ODP502      0.3158
     10  N9A       65.6300   21.3590    3.8550 N.pl3 502  ODP502     -0.1439
     11  C8A       66.1060   20.4870    4.7640 C.3   502  ODP502      0.3377
     12  N7A       66.5280   21.2070    5.8380 N.2   502  ODP502     -0.2095
     13  C5A       66.2960   22.5200    5.5930 C.2   502  ODP502      0.2526
     14  C4A       65.7300   22.6060    4.3250 C.2   502  ODP502      0.3518
     15  N3A       65.3900   23.8240    3.7980 N.2   502  ODP502     -0.0055
     16  C2A       65.5970   24.9400    4.5260 C.3   502  ODP502      0.5254
     17  N1A       66.1530   24.8810    5.7600 N.2   502  ODP502      0.0021
     18  C6A       66.5130   23.7010    6.3130 C.2   502  ODP502      0.4393
     19  N6A       67.0790   23.6650    7.5560 N.pl3 502  ODP502      0.2180
     20  O4B       63.8550   20.2930    2.7060 O.3   502  ODP502     -0.3136
     21  C4B       63.5880   19.6010    1.4890 C.3   502  ODP502      0.1820
     22  C5B       63.3230   18.1450    1.8020 C.3   502  ODP502      0.1813
     23  O5B       62.9280   17.5270    0.5760 O.3   502  ODP502     -0.3112
     24  PA        62.7260   15.9380    0.5190 P.3   502  ODP502      0.2189
     25  O1A       62.3050   15.5880   -0.9010 O.2   502  ODP502     -0.5170
     26  O2A       63.9160   15.2420    1.1060 O.3   502  ODP502     -0.4371
     27  O3        61.5550   15.6680    1.6130 O.3   502  ODP502     -0.2703
     28  PN        59.9420   15.7600    1.4500 P.3   502  ODP502      0.2189
     29  O1N       59.4900   16.8820    0.5470 O.2   502  ODP502     -0.5170
     30  O2N       59.4550   15.6610    2.8690 O.3   502  ODP502     -0.4371
     31  O5D       59.5200   14.3840    0.7450 O.3   502  ODP502     -0.3112
     32  C5D       59.9240   13.1120    1.2860 C.3   502  ODP502      0.1813
     33  C4D       60.0130   12.0080    0.2260 C.3   502  ODP502      0.1801
     34  O4D       58.6800   11.6450   -0.1800 O.3   502  ODP502     -0.3307
     35  C1D       58.5540   11.7880   -1.6110 C.3   502  ODP502      0.2387
     36  C2D       59.6390   12.8110   -1.9600 C.3   502  ODP502      0.2336
     37  O2D       60.0000   12.7710   -3.3530 O.3   502  ODP502     -0.2155
     38  C3D       60.7710   12.4910   -1.0070 C.3   502  ODP502      0.2161
     39  O3D       61.5720   11.3990   -1.4760 O.3   502  ODP502     -0.2175
     40  N1N       57.3210   12.3830   -2.1260 N.ar  502  ODP502     -0.3003
     41  C2N       57.0060   12.0870   -3.4080 C.ar  502  ODP502      0.0856
     42  C3N       55.8900   12.6240   -4.0410 C.ar  502  ODP502      0.1127
     43  C7N       55.6330   12.2020   -5.4620 C.2   502  ODP502      0.2888
     44  N7N       54.5960   12.5440   -6.0980 N.am  502  ODP502     -0.0836
     45  O7N       56.5500   11.4430   -6.0450 O.2   502  ODP502     -0.2665
     46  C4N       55.0910   13.5040   -3.3290 C.ar  502  ODP502      0.2031
     47  O99       54.0910   14.0460   -3.8470 O.2   502  ODP502     -0.2863
     48  C5N       55.4370   13.8180   -2.0030 C.ar  502  ODP502      0.0609
     49  C6N       56.5690   13.2470   -1.4230 C.ar  502  ODP502      0.0810
@<TRIPOS>BOND
     1    44    43   am
     2    45    43    2
     3    43    42    1
     4    42    41   ar
     5    42    46   ar
     6    47    46    2
     7    41    40   ar
     8    37    36    1
     9    46    48   ar
    10    40    35    1
    11    40    49   ar
    12    48    49   ar
    13    36    35    1
    14    36    38    1
    15    35    34    1
    16    39    38    1
    17    38    33    1
    18    25    24    2
    19     3     2    2
    20     8     7    1
    21    34    33    1
    22    33    32    1
    23    24    23    1
    24    24    26    1
    25    24    27    1
    26     4     2    1
    27    29    28    2
    28    23    22    1
    29     7    21    1
    30     7     6    1
    31     2     5    1
    32     2     1    1
    33    31    32    1
    34    31    28    1
    35     5     6    1
    36    28    27    1
    37    28    30    1
    38    21    22    1
    39    21    20    1
    40     6     9    1
    41     9    20    1
    42     9    10    1
    43    15    14    2
    44    15    16    1
    45    10    14    1
    46    10    11    1
    47    14    13    1
    48    16    17    1
    49    11    12    1
    50    13    12    2
    51    13    18    1
    52    17    18    2
    53    18    19    1
