@<TRIPOS>MOLECULE
2c7j_CYC_B_1.pdb
 43 46 0 0 0
SMALL
GASTEIGER

@<TRIPOS>ATOM
      1  CHA      -39.6540   63.0750   -5.6790 C.3   1174  CYC1174     0.1170
      2  NA       -38.1880   64.9440   -6.6760 N.2   1174  CYC1174    -0.4104
      3  C1A      -38.9230   63.7270   -6.7280 C.2   1174  CYC1174     0.1114
      4  C2A      -38.8050   63.1820   -8.0550 C.2   1174  CYC1174     0.0024
      5  C3A      -37.9840   64.0420   -8.8060 C.2   1174  CYC1174     0.0021
      6  C4A      -37.6080   65.1420   -7.9450 C.2   1174  CYC1174     0.1114
      7  CMA      -37.5810   63.8320  -10.2170 C.3   1174  CYC1174     0.0331
      8  CAA      -39.4230   61.9300   -8.5240 C.3   1174  CYC1174     0.0402
      9  CBA      -40.6960   62.1960   -9.3410 C.3   1174  CYC1174     0.1188
     10  CGA      -41.6360   63.1160   -8.5840 C.2   1174  CYC1174     0.3652
     11  O1A      -41.4830   64.3590   -8.6800 O.co2 1174  CYC1174    -0.2456
     12  O2A      -42.5350   62.5980   -7.8920 O.co2 1174  CYC1174    -0.2456
     13  CHB      -36.7890   66.2890   -8.2550 C.3   1174  CYC1174     0.1181
     14  NB       -35.1390   67.2930   -9.8120 N.2   1174  CYC1174    -0.3375
     15  C1B      -36.4320   66.8020   -9.5240 C.2   1174  CYC1174     0.1254
     16  C2B      -37.2840   66.9190  -10.6540 C.2   1174  CYC1174     0.0128
     17  C3B      -36.5240   67.4830  -11.6600 C.2   1174  CYC1174     0.0706
     18  C4B      -35.1810   67.7000  -11.0720 C.1   1174  CYC1174     0.2000
     19  CMB      -38.6980   66.5280  -10.7510 C.3   1174  CYC1174     0.0339
     20  CAB      -36.9550   67.8120  -13.0390 C.3   1174  CYC1174     0.0390
     21  CBB      -36.1720   66.9590  -14.0830 C.3   1174  CYC1174     0.0058
     22  OB       -34.2270   68.1950  -11.6760 O.2   1174  CYC1174    -0.2096
     23  NC       -42.5080   66.2570   -0.5560 N.2   1174  CYC1174    -0.3448
     24  C1C      -42.9540   67.0780    0.3920 C.1   1174  CYC1174     0.1788
     25  C2C      -42.0940   68.2980    0.6250 C.3   1174  CYC1174     0.1246
     26  C3C      -41.0100   68.1590   -0.3230 C.3   1174  CYC1174     0.0660
     27  C4C      -41.3020   66.9160   -1.0160 C.2   1174  CYC1174     0.1070
     28  CMC      -42.8880   69.5340    0.3880 C.3   1174  CYC1174     0.0192
     29  CAC      -39.6740   67.9550    0.3520 C.3   1174  CYC1174     0.0078
     30  CBC      -38.8010   69.2030    0.1500 C.3   1174  CYC1174     0.0005
     31  OC       -43.9870   66.8570    1.0260 O.2   1174  CYC1174    -0.2142
     32  CHD      -40.4020   66.4160   -2.1240 C.3   1174  CYC1174     0.1138
     33  ND       -39.8230   64.9360   -4.0110 N.2   1174  CYC1174    -0.4104
     34  C1D      -40.5170   65.1490   -2.8660 C.2   1174  CYC1174     0.1111
     35  C2D      -41.3460   64.0180   -2.6100 C.2   1174  CYC1174     0.0021
     36  C3D      -41.0880   63.0930   -3.6220 C.2   1174  CYC1174     0.0024
     37  C4D      -40.1560   63.6870   -4.4970 C.2   1174  CYC1174     0.1114
     38  CMD      -42.2850   63.7430   -1.5380 C.3   1174  CYC1174     0.0331
     39  CAD      -41.7440   61.7720   -3.6630 C.3   1174  CYC1174     0.0402
     40  CBD      -40.9450   60.6990   -2.8670 C.3   1174  CYC1174     0.1188
     41  CGD      -39.4830   60.6150   -3.3870 C.2   1174  CYC1174     0.3652
     42  O1D      -38.5440   61.0500   -2.6320 O.co2 1174  CYC1174    -0.2456
     43  O2D      -39.2610   60.1170   -4.5460 O.co2 1174  CYC1174    -0.2456
@<TRIPOS>BOND
     1    21    20    1
     2    20    17    1
     3    22    18    2
     4    17    18    1
     5    17    16    2
     6    18    14    2
     7    19    16    1
     8    16    15    1
     9     7     5    1
    10    14    15    2
    11    15    13    1
    12     9    10    1
    13     9     8    1
    14     5     4    2
    15     5     6    1
    16    11    10   ar
    17    10    12   ar
    18     8     4    1
    19    13     6    1
    20     4     3    1
    21     6     2    2
    22     3     2    2
    23     3     1    1
    24     1    37    1
    25    43    41   ar
    26    37    33    2
    27    37    36    1
    28    33    34    2
    29    39    36    1
    30    39    40    1
    31    36    35    2
    32    41    40    1
    33    41    42   ar
    34    34    35    1
    35    34    32    1
    36    35    38    1
    37    32    27    1
    38    27    23    2
    39    27    26    1
    40    23    24    2
    41    26    29    1
    42    26    25    1
    43    30    29    1
    44    28    25    1
    45    24    25    1
    46    24    31    2
