@<TRIPOS>MOLECULE
2c7j_BLA_A_1.pdb
 43 46 0 0 0
SMALL
GASTEIGER

@<TRIPOS>ATOM
      1  CHA        8.4300   51.7180    0.0370 C.3   1163  BLA1163     0.1170
      2  NA         6.0520   52.3500   -0.5340 N.2   1163  BLA1163    -0.4104
      3  C1A        7.3450   52.6340   -0.0800 C.2   1163  BLA1163     0.1114
      4  C2A        7.4210   54.0390    0.2620 C.2   1163  BLA1163     0.0024
      5  C3A        6.1720   54.6020    0.0060 C.2   1163  BLA1163     0.0021
      6  C4A        5.3260   53.5380   -0.4880 C.2   1163  BLA1163     0.1114
      7  CMA        5.8130   56.0210    0.2110 C.3   1163  BLA1163     0.0331
      8  CAA        8.5970   54.7440    0.7810 C.3   1163  BLA1163     0.0402
      9  CBA        8.6100   54.7580    2.3090 C.3   1163  BLA1163     0.1188
     10  CGA        8.4540   53.3450    2.8500 C.2   1163  BLA1163     0.3652
     11  O1A        9.4780   52.6140    2.9090 O.co2 1163  BLA1163    -0.2456
     12  O2A        7.3080   52.9550    3.2110 O.co2 1163  BLA1163    -0.2456
     13  CHB        3.9610   53.5880   -0.8840 C.3   1163  BLA1163     0.1181
     14  NB         3.0660   55.4560    0.4730 N.2   1163  BLA1163    -0.3375
     15  C1B        3.0670   54.6130   -0.6450 C.2   1163  BLA1163     0.1254
     16  C2B        2.0340   54.9180   -1.5310 C.2   1163  BLA1163     0.0128
     17  C3B        1.3550   55.9690   -0.9960 C.2   1163  BLA1163     0.0706
     18  C4B        2.0410   56.2750    0.2700 C.1   1163  BLA1163     0.2000
     19  CMB        1.7510   54.2320   -2.7870 C.3   1163  BLA1163     0.0339
     20  OB         1.7040   57.1740    1.0350 O.2   1163  BLA1163    -0.2096
     21  CAB        0.1870   56.6560   -1.5540 C.3   1163  BLA1163     0.0390
     22  CBB       -1.0720   56.3230   -0.7100 C.3   1163  BLA1163     0.0058
     23  NC         9.1110   46.1000   -3.6310 N.2   1163  BLA1163    -0.2002
     24  C1C        9.0740   45.3360   -4.7410 C.1   1163  BLA1163     0.1456
     25  C2C        7.6680   45.1720   -5.2130 C.2   1163  BLA1163     0.0549
     26  C3C        6.8570   45.8930   -4.3080 C.2   1163  BLA1163    -0.0142
     27  C4C        7.7170   46.5190   -3.2550 C.3   1163  BLA1163     0.1404
     28  CMC        7.2240   44.3970   -6.4080 C.3   1163  BLA1163     0.0430
     29  OC        10.0640   44.8410   -5.2940 O.2   1163  BLA1163    -0.2226
     30  CAC        5.3620   45.9990   -4.4130 C.3   1163  BLA1163     0.0244
     31  CBC        4.9330   46.3040   -5.8670 C.3   1163  BLA1163     0.0047
     32  CHD        7.5950   48.0450   -3.2770 C.3   1163  BLA1163     0.0879
     33  ND         7.7610   50.0340   -1.7260 N.2   1163  BLA1163    -0.4107
     34  C1D        8.2350   48.8130   -2.1420 C.2   1163  BLA1163     0.1067
     35  C2D        9.3770   48.4710   -1.3270 C.2   1163  BLA1163     0.0018
     36  C3D        9.5750   49.5450   -0.4220 C.2   1163  BLA1163     0.0024
     37  C4D        8.5640   50.4910   -0.6790 C.2   1163  BLA1163     0.1114
     38  CMD       10.2480   47.2870   -1.3500 C.3   1163  BLA1163     0.0331
     39  CAD       10.6830   49.5820    0.5780 C.3   1163  BLA1163     0.0402
     40  CBD       12.0840   49.8510   -0.0800 C.3   1163  BLA1163     0.1188
     41  CGD       12.5660   51.3220    0.1170 C.2   1163  BLA1163     0.3652
     42  O1D       12.6550   51.8090    1.3150 O.co2 1163  BLA1163    -0.2456
     43  O2D       12.8860   51.9950   -0.9260 O.co2 1163  BLA1163    -0.2456
@<TRIPOS>BOND
     1    28    25    1
     2    31    30    1
     3    29    24    2
     4    25    24    1
     5    25    26    2
     6    24    23    2
     7    30    26    1
     8    26    27    1
     9    23    27    1
    10    32    27    1
    11    32    34    1
    12    19    16    1
    13    34    33    2
    14    34    35    1
    15    33    37    2
    16    21    17    1
    17    21    22    1
    18    16    17    2
    19    16    15    1
    20    38    35    1
    21    35    36    2
    22    17    18    1
    23    43    41   ar
    24    13    15    1
    25    13     6    1
    26    37    36    1
    27    37     1    1
    28    15    14    2
    29     2     6    2
    30     2     3    2
    31     6     5    1
    32    36    39    1
    33    40    41    1
    34    40    39    1
    35     3     1    1
    36     3     4    1
    37     5     7    1
    38     5     4    2
    39    41    42   ar
    40     4     8    1
    41    18    14    2
    42    18    20    2
    43     8     9    1
    44     9    10    1
    45    10    11   ar
    46    10    12   ar
