@<TRIPOS>MOLECULE
2c7k_BLA_A_1.pdb
 43 46 0 0 0
SMALL
GASTEIGER

@<TRIPOS>ATOM
      1  CHA        8.2850   51.9300   -0.3030 C.3   1163  BLA1163     0.1170
      2  NA         5.8860   52.5480   -0.8710 N.2   1163  BLA1163    -0.4104
      3  C1A        7.1680   52.8230   -0.3490 C.2   1163  BLA1163     0.1114
      4  C2A        7.1810   54.1920    0.1450 C.2   1163  BLA1163     0.0024
      5  C3A        5.9070   54.7340   -0.0850 C.2   1163  BLA1163     0.0021
      6  C4A        5.1040   53.6990   -0.7200 C.2   1163  BLA1163     0.1114
      7  CMA        5.4970   56.1130    0.2680 C.3   1163  BLA1163     0.0331
      8  CAA        8.3200   54.8940    0.7730 C.3   1163  BLA1163     0.0402
      9  CBA        8.3140   54.7740    2.2960 C.3   1163  BLA1163     0.1188
     10  CGA        8.7110   53.3650    2.7030 C.2   1163  BLA1163     0.3652
     11  O1A        9.9390   53.0790    2.7750 O.co2 1163  BLA1163    -0.2456
     12  O2A        7.7950   52.5330    2.9460 O.co2 1163  BLA1163    -0.2456
     13  CHB        3.7340   53.7400   -1.1540 C.3   1163  BLA1163     0.1181
     14  NB         2.8480   55.7650   -0.0110 N.2   1163  BLA1163    -0.3375
     15  C1B        2.8260   54.7870   -1.0160 C.2   1163  BLA1163     0.1254
     16  C2B        1.7500   54.9770   -1.8960 C.2   1163  BLA1163     0.0128
     17  C3B        1.0740   56.0800   -1.4620 C.2   1163  BLA1163     0.0706
     18  C4B        1.8080   56.5430   -0.2670 C.1   1163  BLA1163     0.2000
     19  CMB        1.4150   54.1490   -3.0550 C.3   1163  BLA1163     0.0339
     20  OB         1.4930   57.5220    0.4010 O.2   1163  BLA1163    -0.2096
     21  CAB       -0.1300   56.6820   -2.0580 C.3   1163  BLA1163     0.0390
     22  CBB       -1.3170   56.6380   -1.0510 C.3   1163  BLA1163     0.0058
     23  NC         8.8570   46.2850   -3.8260 N.2   1163  BLA1163    -0.2002
     24  C1C        8.8080   45.5260   -4.9370 C.1   1163  BLA1163     0.1456
     25  C2C        7.3910   45.2430   -5.3130 C.2   1163  BLA1163     0.0549
     26  C3C        6.5890   45.8880   -4.3460 C.2   1163  BLA1163    -0.0142
     27  C4C        7.4640   46.5800   -3.3530 C.3   1163  BLA1163     0.1404
     28  CMC        6.9280   44.4360   -6.4830 C.3   1163  BLA1163     0.0430
     29  OC         9.7930   45.1210   -5.5590 O.2   1163  BLA1163    -0.2226
     30  CAC        5.0890   45.8650   -4.3410 C.3   1163  BLA1163     0.0244
     31  CBC        4.5220   46.2340   -5.7330 C.3   1163  BLA1163     0.0047
     32  CHD        7.2170   48.0910   -3.3520 C.3   1163  BLA1163     0.0879
     33  ND         7.5190   50.1740   -1.9530 N.2   1163  BLA1163    -0.4107
     34  C1D        7.9010   48.8910   -2.2700 C.2   1163  BLA1163     0.1067
     35  C2D        9.0030   48.5230   -1.4160 C.2   1163  BLA1163     0.0018
     36  C3D        9.2690   49.6300   -0.5860 C.2   1163  BLA1163     0.0024
     37  C4D        8.3410   50.6430   -0.9270 C.2   1163  BLA1163     0.1114
     38  CMD        9.7790   47.2830   -1.3350 C.3   1163  BLA1163     0.0331
     39  CAD       10.3560   49.6210    0.4240 C.3   1163  BLA1163     0.0402
     40  CBD       11.7500   49.9430   -0.2010 C.3   1163  BLA1163     0.1188
     41  CGD       12.2130   51.3720    0.1890 C.2   1163  BLA1163     0.3652
     42  O1D       12.2310   51.7060    1.4350 O.co2 1163  BLA1163    -0.2456
     43  O2D       12.5720   52.1700   -0.7460 O.co2 1163  BLA1163    -0.2456
@<TRIPOS>BOND
     1    28    25    1
     2    31    30    1
     3    29    24    2
     4    25    24    1
     5    25    26    2
     6    24    23    2
     7    26    30    1
     8    26    27    1
     9    23    27    1
    10    27    32    1
    11    32    34    1
    12    19    16    1
    13    34    33    2
    14    34    35    1
    15    21    17    1
    16    21    22    1
    17    33    37    2
    18    16    17    2
    19    16    15    1
    20    17    18    1
    21    35    38    1
    22    35    36    2
    23    13    15    1
    24    13     6    1
    25    15    14    2
    26    37    36    1
    27    37     1    1
    28     2     6    2
    29     2     3    2
    30    43    41   ar
    31     6     5    1
    32    36    39    1
    33     3     1    1
    34     3     4    1
    35    18    14    2
    36    18    20    2
    37    40    41    1
    38    40    39    1
    39     5     4    2
    40     5     7    1
    41     4     8    1
    42    41    42   ar
    43     8     9    1
    44     9    10    1
    45    10    11   ar
    46    10    12   ar
