@<TRIPOS>MOLECULE
2c7k_CYC_B_1.pdb
 43 46 0 0 0
SMALL
GASTEIGER

@<TRIPOS>ATOM
      1  CHA      -19.1820   95.4990    1.6020 C.3   1173  CYC1173     0.1170
      2  NA       -19.0430   92.9740    1.9160 N.2   1173  CYC1173    -0.4104
      3  C1A      -18.4950   94.2400    1.5890 C.2   1173  CYC1173     0.1114
      4  C2A      -17.0910   94.0540    1.2270 C.2   1173  CYC1173     0.0024
      5  C3A      -16.8110   92.6860    1.3380 C.2   1173  CYC1173     0.0021
      6  C4A      -18.0250   92.0290    1.7640 C.2   1173  CYC1173     0.1114
      7  CMA      -15.5010   92.0380    1.0650 C.3   1173  CYC1173     0.0331
      8  CAA      -16.1330   95.0990    0.8150 C.3   1173  CYC1173     0.0402
      9  CBA      -15.8770   95.0870   -0.6950 C.3   1173  CYC1173     0.1188
     10  CGA      -17.1850   95.2900   -1.4440 C.2   1173  CYC1173     0.3652
     11  O1A      -17.7710   96.4000   -1.3390 O.co2 1173  CYC1173    -0.2456
     12  O2A      -17.6370   94.3420   -2.1350 O.co2 1173  CYC1173    -0.2456
     13  CHB      -18.1990   90.6350    2.0000 C.3   1173  CYC1173     0.1181
     14  NB       -17.3030   89.8520   -0.1740 N.2   1173  CYC1173    -0.3375
     15  C1B      -18.0440   89.6690    1.0060 C.2   1173  CYC1173     0.1254
     16  C2B      -18.6090   88.3840    1.0670 C.2   1173  CYC1173     0.0128
     17  C3B      -18.2280   87.7290   -0.0790 C.2   1173  CYC1173     0.0706
     18  C4B      -17.4040   88.7060   -0.8290 C.1   1173  CYC1173     0.2000
     19  CMB      -19.4380   87.8490    2.1480 C.3   1173  CYC1173     0.0339
     20  CAB      -18.5740   86.3420   -0.4780 C.3   1173  CYC1173     0.0390
     21  CBB      -17.4200   85.6870   -1.2970 C.3   1173  CYC1173     0.0058
     22  OB       -16.8800   88.4860   -1.9130 O.2   1173  CYC1173    -0.2096
     23  NC       -24.5870   96.5870    5.5010 N.2   1173  CYC1173    -0.3448
     24  C1C      -25.6760   96.5780    6.2740 C.1   1173  CYC1173     0.1788
     25  C2C      -26.4050   95.2480    6.3200 C.3   1173  CYC1173     0.1246
     26  C3C      -25.6450   94.3830    5.4750 C.3   1173  CYC1173     0.0660
     27  C4C      -24.5360   95.2200    4.9840 C.2   1173  CYC1173     0.1070
     28  CMC      -26.4490   94.7380    7.7130 C.3   1173  CYC1173     0.0192
     29  CAC      -26.4630   93.8470    4.3390 C.3   1173  CYC1173     0.0078
     30  CBC      -27.1020   92.5300    4.8130 C.3   1173  CYC1173     0.0005
     31  OC       -26.0520   97.5750    6.9010 O.2   1173  CYC1173    -0.2142
     32  CHD      -23.4480   94.6730    4.0490 C.3   1173  CYC1173     0.1138
     33  ND       -21.3040   94.8060    2.7440 N.2   1173  CYC1173    -0.4104
     34  C1D      -22.2850   95.4300    3.4680 C.2   1173  CYC1173     0.1111
     35  C2D      -21.9580   96.8270    3.5670 C.2   1173  CYC1173     0.0021
     36  C3D      -20.7570   97.0180    2.8580 C.2   1173  CYC1173     0.0024
     37  C4D      -20.3610   95.7510    2.3630 C.2   1173  CYC1173     0.1114
     38  CMD      -22.6490   97.9360    4.2280 C.3   1173  CYC1173     0.0331
     39  CAD      -20.1210   98.3560    2.7330 C.3   1173  CYC1173     0.0402
     40  CBD      -19.3070   98.7640    3.9990 C.3   1173  CYC1173     0.1188
     41  CGD      -18.9930  100.2800    3.9500 C.2   1173  CYC1173     0.3652
     42  O1D      -19.0520  100.9560    5.0430 O.co2 1173  CYC1173    -0.2456
     43  O2D      -18.6860  100.8100    2.8270 O.co2 1173  CYC1173    -0.2456
@<TRIPOS>BOND
     1    12    10   ar
     2    22    18    2
     3    10    11   ar
     4    10     9    1
     5    21    20    1
     6    18    14    2
     7    18    17    1
     8     9     8    1
     9    20    17    1
    10    14    15    2
    11    17    16    2
    12     8     4    1
    13    15    16    1
    14    15    13    1
    15     7     5    1
    16    16    19    1
    17     4     5    2
    18     4     3    1
    19     5     6    1
    20     3     1    1
    21     3     2    2
    22     1    37    1
    23     6     2    2
    24     6    13    1
    25    37    33    2
    26    37    36    1
    27    39    36    1
    28    39    40    1
    29    33    34    2
    30    43    41   ar
    31    36    35    2
    32    34    35    1
    33    34    32    1
    34    35    38    1
    35    41    40    1
    36    41    42   ar
    37    32    27    1
    38    29    30    1
    39    29    26    1
    40    27    26    1
    41    27    23    2
    42    26    25    1
    43    23    24    2
    44    24    25    1
    45    24    31    2
    46    25    28    1
