@<TRIPOS>MOLECULE
2c7l_CYC_B_1.pdb
 43 46 0 0 0
SMALL
GASTEIGER

@<TRIPOS>ATOM
      1  CHA      -38.9670   62.3520   -5.2170 C.3   1174  CYC1174     0.1170
      2  NA       -38.0520   64.2490   -6.6960 N.2   1174  CYC1174    -0.4104
      3  C1A      -38.5110   62.9330   -6.4420 C.2   1174  CYC1174     0.1114
      4  C2A      -38.4570   62.1740   -7.6710 C.2   1174  CYC1174     0.0024
      5  C3A      -37.9570   63.0190   -8.6680 C.2   1174  CYC1174     0.0021
      6  C4A      -37.7230   64.3130   -8.0660 C.2   1174  CYC1174     0.1114
      7  CMA      -37.7290   62.6350  -10.0900 C.3   1174  CYC1174     0.0331
      8  CAA      -38.8610   60.7400   -7.8350 C.3   1174  CYC1174     0.0402
      9  CBA      -40.2510   60.5440   -8.5120 C.3   1174  CYC1174     0.1188
     10  CGA      -41.3580   61.4400   -7.9160 C.2   1174  CYC1174     0.3652
     11  O1A      -41.4620   62.6340   -8.3260 O.co2 1174  CYC1174    -0.2456
     12  O2A      -42.1250   60.9530   -7.0400 O.co2 1174  CYC1174    -0.2456
     13  CHB      -37.4750   65.5380   -8.7610 C.3   1174  CYC1174     0.1181
     14  NB       -35.1650   66.3600   -8.6250 N.2   1174  CYC1174    -0.3375
     15  C1B      -36.2800   65.9290   -9.3500 C.2   1174  CYC1174     0.1254
     16  C2B      -36.0410   65.9670  -10.7470 C.2   1174  CYC1174     0.0128
     17  C3B      -34.7510   66.4330  -10.9020 C.2   1174  CYC1174     0.0706
     18  C4B      -34.2520   66.6630   -9.5340 C.1   1174  CYC1174     0.2000
     19  CMB      -36.9690   65.5970  -11.8240 C.3   1174  CYC1174     0.0339
     20  CAB      -34.0060   66.6650  -12.1600 C.3   1174  CYC1174     0.0390
     21  CBB      -34.3780   68.0560  -12.7540 C.3   1174  CYC1174     0.0058
     22  OB       -33.1350   67.0820   -9.2720 O.2   1174  CYC1174    -0.2096
     23  NC       -42.1280   65.6150   -0.1700 N.2   1174  CYC1174    -0.3448
     24  C1C      -42.5870   66.4660    0.7480 C.1   1174  CYC1174     0.1788
     25  C2C      -41.7350   67.7060    0.9480 C.3   1174  CYC1174     0.1246
     26  C3C      -40.6420   67.5490    0.0240 C.3   1174  CYC1174     0.0660
     27  C4C      -40.9180   66.2700   -0.6440 C.2   1174  CYC1174     0.1070
     28  CMC      -42.5210   68.9390    0.6620 C.3   1174  CYC1174     0.0192
     29  CAC      -39.2860   67.3800    0.7220 C.3   1174  CYC1174     0.0078
     30  CBC      -38.3950   68.5650    0.3170 C.3   1174  CYC1174     0.0005
     31  OC       -43.6260   66.2560    1.3830 O.2   1174  CYC1174    -0.2142
     32  CHD      -39.9970   65.7340   -1.7480 C.3   1174  CYC1174     0.1138
     33  ND       -39.2890   64.2370   -3.6010 N.2   1174  CYC1174    -0.4104
     34  C1D      -40.0460   64.4370   -2.4830 C.2   1174  CYC1174     0.1111
     35  C2D      -40.8550   63.2680   -2.2570 C.2   1174  CYC1174     0.0021
     36  C3D      -40.5050   62.3380   -3.2470 C.2   1174  CYC1174     0.0024
     37  C4D      -39.5490   62.9710   -4.0850 C.2   1174  CYC1174     0.1114
     38  CMD      -41.8260   62.9590   -1.2250 C.3   1174  CYC1174     0.0331
     39  CAD      -41.0940   60.9680   -3.3070 C.3   1174  CYC1174     0.0402
     40  CBD      -40.3400   59.9660   -2.3700 C.3   1174  CYC1174     0.1188
     41  CGD      -39.0340   59.4950   -3.0460 C.2   1174  CYC1174     0.3652
     42  O1D      -37.9100   59.9010   -2.5640 O.co2 1174  CYC1174    -0.2456
     43  O2D      -39.1240   58.7330   -4.0760 O.co2 1174  CYC1174    -0.2456
@<TRIPOS>BOND
     1    21    20    1
     2    20    17    1
     3    19    16    1
     4    17    16    2
     5    17    18    1
     6    16    15    1
     7     7     5    1
     8    18    22    2
     9    18    14    2
    10    15    13    1
    11    15    14    2
    12    13     6    1
    13     5     6    1
    14     5     4    2
    15     9    10    1
    16     9     8    1
    17    11    10   ar
    18     6     2    2
    19    10    12   ar
    20     8     4    1
    21     4     3    1
    22     2     3    2
    23     3     1    1
    24     1    37    1
    25    37    33    2
    26    37    36    1
    27    43    41   ar
    28    33    34    2
    29    39    36    1
    30    39    40    1
    31    36    35    2
    32    41    42   ar
    33    41    40    1
    34    34    35    1
    35    34    32    1
    36    35    38    1
    37    32    27    1
    38    27    23    2
    39    27    26    1
    40    23    24    2
    41    26    29    1
    42    26    25    1
    43    30    29    1
    44    28    25    1
    45    24    25    1
    46    24    31    2
