@<TRIPOS>MOLECULE
2c7l_BLA_A_1.pdb
 43 46 0 0 0
SMALL
GASTEIGER

@<TRIPOS>ATOM
      1  CHA        8.5660   51.8010   -0.9340 C.3   1163  BLA1163     0.1170
      2  NA         6.0940   52.3150   -0.8730 N.2   1163  BLA1163    -0.4104
      3  C1A        7.4270   52.5210   -0.4600 C.2   1163  BLA1163     0.1114
      4  C2A        7.4480   53.5610    0.5580 C.2   1163  BLA1163     0.0024
      5  C3A        6.1050   53.9680    0.7560 C.2   1163  BLA1163     0.0021
      6  C4A        5.2830   53.1710   -0.1420 C.2   1163  BLA1163     0.1114
      7  CMA        5.6340   55.0060    1.7240 C.3   1163  BLA1163     0.0331
      8  CAA        8.6520   54.0780    1.2640 C.3   1163  BLA1163     0.0402
      9  CBA        8.6660   53.7660    2.7660 C.3   1163  BLA1163     0.1188
     10  CGA        8.8670   52.2880    3.0200 C.2   1163  BLA1163     0.3652
     11  O1A       10.0490   51.8370    3.0570 O.co2 1163  BLA1163    -0.2456
     12  O2A        7.8460   51.5730    3.1830 O.co2 1163  BLA1163    -0.2456
     13  CHB        3.8620   53.0890   -0.2060 C.3   1163  BLA1163     0.1181
     14  NB         2.9780   55.2920    0.4110 N.2   1163  BLA1163    -0.3375
     15  C1B        2.9700   54.1340   -0.3680 C.2   1163  BLA1163     0.1254
     16  C2B        1.9350   54.1440   -1.3150 C.2   1163  BLA1163     0.0128
     17  C3B        1.2670   55.3360   -1.1290 C.2   1163  BLA1163     0.0706
     18  C4B        1.9800   56.0120   -0.0240 C.1   1163  BLA1163     0.2000
     19  CMB        1.6290   53.0890   -2.2920 C.3   1163  BLA1163     0.0339
     20  OB         1.6870   57.0990    0.4360 O.2   1163  BLA1163    -0.2096
     21  CAB        0.0930   55.8450   -1.8570 C.3   1163  BLA1163     0.0390
     22  CBB       -1.2100   55.3820   -1.1420 C.3   1163  BLA1163     0.0058
     23  NC         8.6830   45.8680   -3.3570 N.2   1163  BLA1163    -0.2002
     24  C1C        8.7260   45.1540   -4.4900 C.1   1163  BLA1163     0.1456
     25  C2C        7.3520   44.7590   -4.9160 C.2   1163  BLA1163     0.0549
     26  C3C        6.4590   45.3190   -3.9390 C.2   1163  BLA1163    -0.0142
     27  C4C        7.2680   46.0220   -2.9100 C.3   1163  BLA1163     0.1404
     28  CMC        7.0310   43.9540   -6.1360 C.3   1163  BLA1163     0.0430
     29  OC         9.7650   44.8560   -5.0930 O.2   1163  BLA1163    -0.2226
     30  CAC        4.9400   45.2200   -3.9130 C.3   1163  BLA1163     0.0244
     31  CBC        4.3060   45.5990   -5.2760 C.3   1163  BLA1163     0.0047
     32  CHD        6.8690   47.4950   -2.7390 C.3   1163  BLA1163     0.0879
     33  ND         7.5590   49.7640   -1.9550 N.2   1163  BLA1163    -0.4107
     34  C1D        7.7680   48.4150   -1.9280 C.2   1163  BLA1163     0.1067
     35  C2D        8.9020   48.1450   -1.0400 C.2   1163  BLA1163     0.0018
     36  C3D        9.3590   49.4200   -0.5680 C.2   1163  BLA1163     0.0024
     37  C4D        8.4950   50.3950   -1.1470 C.2   1163  BLA1163     0.1114
     38  CMD        9.5430   46.8730   -0.6380 C.3   1163  BLA1163     0.0331
     39  CAD       10.5280   49.5960    0.3670 C.3   1163  BLA1163     0.0402
     40  CBD       11.9220   49.3090   -0.3100 C.3   1163  BLA1163     0.1188
     41  CGD       12.7340   50.6070   -0.5330 C.2   1163  BLA1163     0.3652
     42  O1D       13.1560   51.2620    0.5010 O.co2 1163  BLA1163    -0.2456
     43  O2D       12.9740   50.9700   -1.7410 O.co2 1163  BLA1163    -0.2456
@<TRIPOS>BOND
     1    28    25    1
     2    31    30    1
     3    29    24    2
     4    25    24    1
     5    25    26    2
     6    24    23    2
     7    26    30    1
     8    26    27    1
     9    23    27    1
    10    27    32    1
    11    32    34    1
    12    19    16    1
    13    33    34    2
    14    33    37    2
    15    34    35    1
    16    21    22    1
    17    21    17    1
    18    43    41   ar
    19    16    17    2
    20    16    15    1
    21    37     1    1
    22    37    36    1
    23    17    18    1
    24    35    38    1
    25    35    36    2
    26     1     3    1
    27     2     3    2
    28     2     6    2
    29    36    39    1
    30    41    40    1
    31    41    42   ar
    32     3     4    1
    33    15    13    1
    34    15    14    2
    35    40    39    1
    36    13     6    1
    37     6     5    1
    38    18    14    2
    39    18    20    2
    40     4     5    2
    41     4     8    1
    42     5     7    1
    43     8     9    1
    44     9    10    1
    45    10    11   ar
    46    10    12   ar
