@<TRIPOS>MOLECULE
2c7o_SAH_A_1.pdb
 26 28 0 0 0
SMALL
GASTEIGER

@<TRIPOS>ATOM
      1  N        -17.2640   30.8020   79.0110 N.3   1328  SAH1328    -0.1245
      2  CA       -17.6320   29.9600   80.1650 C.3   1328  SAH1328     0.1844
      3  CB       -17.5770   30.5960   81.5550 C.3   1328  SAH1328     0.0388
      4  CG       -16.2090   31.1400   81.9180 C.3   1328  SAH1328     0.0594
      5  SD       -16.1070   31.8810   83.5860 S.3   1328  SAH1328    -0.1376
      6  C        -19.0340   29.4620   79.7790 C.3   1328  SAH1328     0.4429
      7  O        -19.5690   29.7570   78.6620 O.2   1328  SAH1328    -0.2654
      8  OXT      -20.0120   29.6440   80.6380 O.2   1328  SAH1328    -0.2654
      9  C5'      -14.5890   31.0830   84.1470 C.3   1328  SAH1328     0.0899
     10  C4'      -14.7000   29.6170   84.5580 C.3   1328  SAH1328     0.1630
     11  O4'      -13.4320   29.1480   84.9440 O.3   1328  SAH1328    -0.3153
     12  C3'      -15.5690   29.3570   85.7750 C.3   1328  SAH1328     0.2168
     13  O3'      -16.6900   28.4910   85.4630 O.3   1328  SAH1328    -0.2175
     14  C2'      -14.5990   28.7210   86.7850 C.3   1328  SAH1328     0.2569
     15  O2'      -15.2060   27.7290   87.6460 O.3   1328  SAH1328    -0.2130
     16  C1'      -13.5800   28.1050   85.9040 C.3   1328  SAH1328     0.3185
     17  N9       -12.2940   27.9740   86.5260 N.pl3 1328  SAH1328    -0.1439
     18  C8       -11.6440   28.9100   87.3150 C.3   1328  SAH1328     0.3377
     19  N7       -10.4840   28.5010   87.7320 N.2   1328  SAH1328    -0.2095
     20  C5       -10.3390   27.2240   87.1960 C.2   1328  SAH1328     0.2526
     21  C6        -9.3090   26.2380   87.2660 C.2   1328  SAH1328     0.4393
     22  N6        -8.1700   26.3820   87.9330 N.pl3 1328  SAH1328     0.2180
     23  N1        -9.5060   25.0610   86.5980 N.2   1328  SAH1328     0.0021
     24  C2       -10.6380   24.8410   85.9000 C.3   1328  SAH1328     0.5254
     25  N3       -11.6680   25.6750   85.7580 N.2   1328  SAH1328    -0.0055
     26  C4       -11.4420   26.8710   86.4490 C.2   1328  SAH1328     0.3518
@<TRIPOS>BOND
     1     7     6    1
     2     1     2    1
     3     6     2    1
     4     6     8    1
     5     2     3    1
     6     3     4    1
     7     4     5    1
     8     5     9    1
     9     9    10    1
    10    10    11    1
    11    10    12    1
    12    11    16    1
    13    13    12    1
    14    25    24    1
    15    25    26    2
    16    12    14    1
    17    24    23    1
    18    16    17    1
    19    16    14    1
    20    26    17    1
    21    26    20    1
    22    17    18    1
    23    23    21    2
    24    14    15    1
    25    20    21    1
    26    20    19    2
    27    21    22    1
    28    18    19    1
