@<TRIPOS>MOLECULE
2c7p_SAH_A_1.pdb
 26 28 0 0 0
SMALL
GASTEIGER

@<TRIPOS>ATOM
      1  N        -17.1430   30.5430   79.2100 N.3   1328  SAH1328    -0.1245
      2  CA       -17.5340   29.6840   80.3470 C.3   1328  SAH1328     0.1844
      3  CB       -17.4580   30.3060   81.7340 C.3   1328  SAH1328     0.0388
      4  CG       -16.1140   30.9420   82.0310 C.3   1328  SAH1328     0.0594
      5  SD       -15.9960   31.6540   83.7060 S.3   1328  SAH1328    -0.1376
      6  C        -18.9540   29.2160   79.9600 C.3   1328  SAH1328     0.4429
      7  O        -19.4900   29.5170   78.8520 O.2   1328  SAH1328    -0.2654
      8  OXT      -19.9290   29.4080   80.8140 O.2   1328  SAH1328    -0.2654
      9  C5'      -14.4790   30.8420   84.2610 C.3   1328  SAH1328     0.0899
     10  C4'      -14.5830   29.3690   84.6540 C.3   1328  SAH1328     0.1630
     11  O4'      -13.3090   28.9120   85.0310 O.3   1328  SAH1328    -0.3153
     12  C3'      -15.4400   29.0940   85.8750 C.3   1328  SAH1328     0.2168
     13  O3'      -16.5480   28.2040   85.5730 O.3   1328  SAH1328    -0.2175
     14  C2'      -14.4520   28.4790   86.8750 C.3   1328  SAH1328     0.2569
     15  O2'      -15.0420   27.5110   87.7780 O.3   1328  SAH1328    -0.2130
     16  C1'      -13.4430   27.8560   85.9720 C.3   1328  SAH1328     0.3185
     17  N9       -12.1450   27.7160   86.5700 N.pl3 1328  SAH1328    -0.1439
     18  C8       -11.4730   28.6570   87.3360 C.3   1328  SAH1328     0.3377
     19  N7       -10.3160   28.2450   87.7360 N.2   1328  SAH1328    -0.2095
     20  C5       -10.1920   26.9640   87.2200 C.2   1328  SAH1328     0.2526
     21  C6        -9.1690   25.9740   87.2940 C.2   1328  SAH1328     0.4393
     22  N6        -8.0300   26.1220   87.9460 N.pl3 1328  SAH1328     0.2180
     23  N1        -9.3840   24.7860   86.6460 N.2   1328  SAH1328     0.0021
     24  C2       -10.5250   24.5670   85.9660 C.3   1328  SAH1328     0.5254
     25  N3       -11.5500   25.4060   85.8270 N.2   1328  SAH1328    -0.0055
     26  C4       -11.3070   26.6090   86.4940 C.2   1328  SAH1328     0.3518
@<TRIPOS>BOND
     1     7     6    1
     2     1     2    1
     3     6     2    1
     4     6     8    1
     5     2     3    1
     6     3     4    1
     7     4     5    1
     8     5     9    1
     9     9    10    1
    10    10    11    1
    11    10    12    1
    12    11    16    1
    13    13    12    1
    14    25    24    1
    15    25    26    2
    16    12    14    1
    17    24    23    1
    18    16    17    1
    19    16    14    1
    20    26    17    1
    21    26    20    1
    22    17    18    1
    23    23    21    2
    24    14    15    1
    25    20    21    1
    26    20    19    2
    27    21    22    1
    28    18    19    1
