@<TRIPOS>MOLECULE
2c7q_SAH_A_1.pdb
 26 28 0 0 0
SMALL
GASTEIGER

@<TRIPOS>ATOM
      1  N        -17.2860   30.7440   78.8820 N.3   1328  SAH1328    -0.1245
      2  CA       -17.6710   29.9010   80.0350 C.3   1328  SAH1328     0.1844
      3  CB       -17.5910   30.5150   81.4330 C.3   1328  SAH1328     0.0388
      4  CG       -16.2420   31.1290   81.7760 C.3   1328  SAH1328     0.0594
      5  SD       -16.1570   31.8200   83.4690 S.3   1328  SAH1328    -0.1376
      6  C        -19.0910   29.4330   79.6610 C.3   1328  SAH1328     0.4429
      7  O        -19.6360   29.7640   78.5640 O.2   1328  SAH1328    -0.2654
      8  OXT      -20.0570   29.6110   80.5360 O.2   1328  SAH1328    -0.2654
      9  C5'      -14.6420   31.0200   84.0490 C.3   1328  SAH1328     0.0899
     10  C4'      -14.7480   29.5490   84.4440 C.3   1328  SAH1328     0.1630
     11  O4'      -13.4840   29.0950   84.8410 O.3   1328  SAH1328    -0.3153
     12  C3'      -15.6240   29.2640   85.6480 C.3   1328  SAH1328     0.2168
     13  O3'      -16.7120   28.3620   85.3150 O.3   1328  SAH1328    -0.2175
     14  C2'      -14.6560   28.6470   86.6610 C.3   1328  SAH1328     0.2569
     15  O2'      -15.2570   27.6740   87.5430 O.3   1328  SAH1328    -0.2130
     16  C1'      -13.6340   28.0320   85.7740 C.3   1328  SAH1328     0.3185
     17  N9       -12.3460   27.8980   86.3900 N.pl3 1328  SAH1328    -0.1439
     18  C8       -11.6930   28.8290   87.1800 C.3   1328  SAH1328     0.3377
     19  N7       -10.5380   28.4200   87.5860 N.2   1328  SAH1328    -0.2095
     20  C5       -10.4050   27.1520   87.0440 C.2   1328  SAH1328     0.2526
     21  C6        -9.3830   26.1640   87.1040 C.2   1328  SAH1328     0.4393
     22  N6        -8.2520   26.2970   87.7620 N.pl3 1328  SAH1328     0.2180
     23  N1        -9.5870   24.9940   86.4330 N.2   1328  SAH1328     0.0021
     24  C2       -10.7180   24.7860   85.7400 C.3   1328  SAH1328     0.5254
     25  N3       -11.7430   25.6230   85.6080 N.2   1328  SAH1328    -0.0055
     26  C4       -11.5080   26.8070   86.3020 C.2   1328  SAH1328     0.3518
@<TRIPOS>BOND
     1     7     6    1
     2     1     2    1
     3     6     2    1
     4     6     8    1
     5     2     3    1
     6     3     4    1
     7     4     5    1
     8     5     9    1
     9     9    10    1
    10    10    11    1
    11    10    12    1
    12    11    16    1
    13    13    12    1
    14    25    24    1
    15    25    26    2
    16    12    14    1
    17    24    23    1
    18    16    17    1
    19    16    14    1
    20    26    17    1
    21    26    20    1
    22    17    18    1
    23    23    21    2
    24    14    15    1
    25    20    21    1
    26    20    19    2
    27    21    22    1
    28    18    19    1
