@<TRIPOS>MOLECULE
2c7r_SAH_A_1.pdb
 26 28 0 0 0
SMALL
GASTEIGER

@<TRIPOS>ATOM
      1  N        -17.5180   30.6320   79.6880 N.3   1328  SAH1328    -0.1245
      2  CA       -17.9460   29.8360   80.8500 C.3   1328  SAH1328     0.1844
      3  CB       -17.8340   30.4840   82.2370 C.3   1328  SAH1328     0.0388
      4  CG       -16.4370   30.9780   82.5870 C.3   1328  SAH1328     0.0594
      5  SD       -16.2970   31.7180   84.2650 S.3   1328  SAH1328    -0.1376
      6  C        -19.3910   29.4410   80.4820 C.3   1328  SAH1328     0.4429
      7  O        -19.9210   29.7840   79.3690 O.2   1328  SAH1328    -0.2654
      8  OXT      -20.3460   29.6980   81.3500 O.2   1328  SAH1328    -0.2654
      9  C5'      -14.7430   30.9640   84.7950 C.3   1328  SAH1328     0.0899
     10  C4'      -14.8230   29.5230   85.2740 C.3   1328  SAH1328     0.1630
     11  O4'      -13.5420   29.0750   85.6320 O.3   1328  SAH1328    -0.3153
     12  C3'      -15.6510   29.3120   86.5290 C.3   1328  SAH1328     0.2168
     13  O3'      -16.8030   28.4620   86.3030 O.3   1328  SAH1328    -0.2175
     14  C2'      -14.6510   28.7090   87.5250 C.3   1328  SAH1328     0.2569
     15  O2'      -15.2450   27.7470   88.4390 O.3   1328  SAH1328    -0.2130
     16  C1'      -13.6450   28.0660   86.6250 C.3   1328  SAH1328     0.3185
     17  N9       -12.3350   27.9640   87.2150 N.pl3 1328  SAH1328    -0.1439
     18  C8       -11.6820   28.9340   87.9590 C.3   1328  SAH1328     0.3377
     19  N7       -10.5080   28.5590   88.3650 N.2   1328  SAH1328    -0.2095
     20  C5       -10.3530   27.2710   87.8720 C.2   1328  SAH1328     0.2526
     21  C6        -9.2980   26.3030   87.9620 C.2   1328  SAH1328     0.4393
     22  N6        -8.1570   26.4850   88.6100 N.pl3 1328  SAH1328     0.2180
     23  N1        -9.4850   25.1000   87.3400 N.2   1328  SAH1328     0.0021
     24  C2       -10.6270   24.8410   86.6650 C.3   1328  SAH1328     0.5254
     25  N3       -11.6760   25.6540   86.5110 N.2   1328  SAH1328    -0.0055
     26  C4       -11.4640   26.8760   87.1540 C.2   1328  SAH1328     0.3518
@<TRIPOS>BOND
     1     7     6    1
     2     1     2    1
     3     6     2    1
     4     6     8    1
     5     2     3    1
     6     3     4    1
     7     4     5    1
     8     5     9    1
     9     9    10    1
    10    10    11    1
    11    10    12    1
    12    11    16    1
    13    13    12    1
    14    25    24    1
    15    25    26    2
    16    12    14    1
    17    16    17    1
    18    16    14    1
    19    24    23    1
    20    26    17    1
    21    26    20    1
    22    17    18    1
    23    23    21    2
    24    14    15    1
    25    20    21    1
    26    20    19    2
    27    18    19    1
    28    21    22    1
