@<TRIPOS>MOLECULE
2c7t_PLP_A_1.pdb
 15 15 0 0 0
SMALL
GASTEIGER

@<TRIPOS>ATOM
      1  N1        -0.8100   62.5720   12.4950 N.ar  1417  PLP1417    -0.2452
      2  C2        -1.7110   62.8510   11.4850 C.ar  1417  PLP1417     0.0978
      3  C2A       -1.3050   62.3770   10.0860 C.3   1417  PLP1417     0.0555
      4  C3        -2.8880   63.5250   11.8190 C.ar  1417  PLP1417     0.2049
      5  O3        -3.7390   63.7720   10.7810 O.3   1417  PLP1417    -0.2857
      6  C4        -3.2000   63.9310   13.1310 C.ar  1417  PLP1417     0.0182
      7  C4A       -4.5300   64.6700   13.4470 C.3   1417  PLP1417     0.0342
      8  C5        -2.2550   63.6450   14.1720 C.ar  1417  PLP1417     0.0261
      9  C6        -1.0990   62.9700   13.7850 C.ar  1417  PLP1417     0.0965
     10  C5A       -2.3620   63.9940   15.6530 C.3   1417  PLP1417     0.1815
     11  O4P       -3.5450   63.6660   16.3360 O.3   1417  PLP1417    -0.2653
     12  P         -4.0920   64.5770   17.4800 P.3   1417  PLP1417     0.5329
     13  O1P       -5.3230   63.8470   17.9000 O.3   1417  PLP1417    -0.1145
     14  O2P       -4.4030   65.8960   16.8620 O.2   1417  PLP1417    -0.2224
     15  O3P       -3.1110   64.6740   18.5590 O.3   1417  PLP1417    -0.1145
@<TRIPOS>BOND
     1     3     2    1
     2     5     4    1
     3     2     4   ar
     4     2     1   ar
     5     4     6   ar
     6     1     9   ar
     7     6     7    1
     8     6     8   ar
     9     9     8   ar
    10     8    10    1
    11    10    11    1
    12    11    12    1
    13    14    12    2
    14    12    13    1
    15    12    15    1
