@<TRIPOS>MOLECULE
2c7v_NAP_A_1.pdb
 48 52 0 0 0
SMALL
GASTEIGER

@<TRIPOS>ATOM
      1  PA        13.9280   -9.8330   11.7780 P.3   1271  NAP1271     0.2189
      2  O1A       14.3740  -10.7990   10.7490 O.2   1271  NAP1271    -0.5170
      3  O2A       13.6670  -10.5040   13.0650 O.3   1271  NAP1271    -0.4371
      4  O5B       15.0360   -8.6840   11.9920 O.3   1271  NAP1271    -0.3112
      5  C5B       15.4340   -7.8290   10.9460 C.3   1271  NAP1271     0.1813
      6  C4B       16.8820   -7.4130   11.1690 C.3   1271  NAP1271     0.1820
      7  O4B       17.0140   -6.6140   12.3260 O.3   1271  NAP1271    -0.3136
      8  C3B       17.8280   -8.5660   11.4500 C.3   1271  NAP1271     0.2157
      9  O3B       18.2250   -9.1920   10.2520 O.3   1271  NAP1271    -0.2175
     10  C2B       18.9730   -7.8970   12.2070 C.3   1271  NAP1271     0.2314
     11  O2B       20.1030   -7.6350   11.3920 O.3   1271  NAP1271    -0.2630
     12  C1B       18.3860   -6.5510   12.6440 C.3   1271  NAP1271     0.3158
     13  N9A       18.7360   -6.3610   14.0650 N.pl3 1271  NAP1271    -0.1439
     14  C8A       18.3400   -7.1210   15.1340 C.3   1271  NAP1271     0.3377
     15  N7A       18.9540   -6.6490   16.2440 N.2   1271  NAP1271    -0.2095
     16  C5A       19.7550   -5.6050   15.9030 C.2   1271  NAP1271     0.2526
     17  C6A       20.5990   -4.7640   16.6410 C.2   1271  NAP1271     0.4393
     18  N6A       20.9910   -5.1030   17.8670 N.pl3 1271  NAP1271     0.2180
     19  N1A       21.2940   -3.7640   15.9970 N.2   1271  NAP1271     0.0021
     20  C2A       21.1590   -3.6040   14.6350 C.3   1271  NAP1271     0.5254
     21  N3A       20.3280   -4.4400   13.9140 N.2   1271  NAP1271    -0.0055
     22  C4A       19.6310   -5.4210   14.5350 C.2   1271  NAP1271     0.3518
     23  O3        12.6820   -8.9740   11.2400 O.3   1271  NAP1271    -0.2703
     24  PN        11.5650   -9.4620   10.1810 P.3   1271  NAP1271     0.2189
     25  O1N       12.1200   -9.4550    8.8220 O.2   1271  NAP1271    -0.5170
     26  O2N       10.9060  -10.6910   10.7000 O.3   1271  NAP1271    -0.4371
     27  O5D       10.5700   -8.2040   10.3030 O.3   1271  NAP1271    -0.3112
     28  C5D       10.8770   -6.9440    9.7310 C.3   1271  NAP1271     0.1813
     29  C4D       10.0730   -5.8470   10.4480 C.3   1271  NAP1271     0.1799
     30  O4D        8.6740   -6.1460   10.4270 O.3   1271  NAP1271    -0.3327
     31  C3D       10.4870   -5.7360   11.9150 C.3   1271  NAP1271     0.2158
     32  O3D       10.5600   -4.3810   12.3280 O.3   1271  NAP1271    -0.2175
     33  C2D        9.3600   -6.4630   12.6240 C.3   1271  NAP1271     0.2309
     34  O2D        9.1960   -6.0600   13.9660 O.3   1271  NAP1271    -0.2158
     35  C1D        8.1460   -6.1950   11.7430 C.3   1271  NAP1271     0.2263
     36  N1N        7.2270   -7.3350   11.9270 N.pl3 1271  NAP1271    -0.2787
     37  C2N        7.5330   -8.5430   11.3480 C.3   1271  NAP1271     0.1244
     38  C3N        6.7060   -9.6400   11.5130 C.2   1271  NAP1271     0.0544
     39  C7N        7.1000  -10.9730   10.9580 C.2   1271  NAP1271     0.2818
     40  O7N        6.1160  -11.9730   10.9290 O.2   1271  NAP1271    -0.2670
     41  N7N        8.3500  -11.1990   10.5380 N.am  1271  NAP1271    -0.0839
     42  C4N        5.5750   -9.5190   12.3150 C.2   1271  NAP1271     0.0033
     43  C5N        5.2800   -8.2920   12.9120 C.2   1271  NAP1271     0.0157
     44  C6N        6.1100   -7.1910   12.7110 C.2   1271  NAP1271     0.0633
     45  P2B       21.2800   -8.7130   11.1810 P.3   1271  NAP1271     0.5328
     46  O1X       22.2310   -8.1670   10.1510 O.2   1271  NAP1271    -0.2224
     47  O2X       20.6990  -10.0330   10.7300 O.3   1271  NAP1271    -0.1145
     48  O3X       22.0430   -8.9040   12.4760 O.3   1271  NAP1271    -0.1145
@<TRIPOS>BOND
     1    25    24    2
     2    28    27    1
     3    28    29    1
     4    46    45    2
     5    24    27    1
     6    24    26    1
     7    24    23    1
     8     9     8    1
     9    30    29    1
    10    30    35    1
    11    29    31    1
    12    41    39   am
    13    47    45    1
    14     2     1    2
    15    40    39    2
    16     5     6    1
    17     5     4    1
    18    39    38    1
    19     6     8    1
    20     6     7    1
    21    45    11    1
    22    45    48    1
    23    23     1    1
    24    37    38    1
    25    37    36    1
    26    11    10    1
    27     8    10    1
    28    38    42    2
    29    35    36    1
    30    35    33    1
    31     1     4    1
    32     1     3    1
    33    31    32    1
    34    31    33    1
    35    36    44    1
    36    10    12    1
    37    42    43    1
    38     7    12    1
    39    33    34    1
    40    12    13    1
    41    44    43    2
    42    21    22    2
    43    21    20    1
    44    13    22    1
    45    13    14    1
    46    22    16    1
    47    20    19    1
    48    14    15    1
    49    16    15    2
    50    16    17    1
    51    19    17    2
    52    17    18    1
