@<TRIPOS>MOLECULE
2c7v_MTX_A_1.pdb
 33 35 0 0 0
SMALL
GASTEIGER

@<TRIPOS>ATOM
      1  N1        11.0490  -10.3890   14.0770 N.2   1272  MTX1272    -0.2684
      2  C2        10.8100   -9.1280   14.6030 C.1   1272  MTX1272     0.2519
      3  N3         9.5330   -8.7570   14.9470 N.2   1272  MTX1272    -0.3033
      4  C4         8.4740   -9.6190   14.7580 C.2   1272  MTX1272     0.2728
      5  C4A        8.6980  -10.8840   14.2150 C.2   1272  MTX1272     0.2518
      6  N5         7.6530  -11.7840   14.0310 N.2   1272  MTX1272    -0.3917
      7  C6         7.8960  -13.0370   13.5050 C.2   1272  MTX1272     0.1330
      8  C7         9.1930  -13.3960   13.1560 C.3   1272  MTX1272     0.1930
      9  N8        10.2300  -12.5140   13.3530 N.2   1272  MTX1272    -0.1998
     10  C8A       10.0000  -11.2600   13.8790 C.1   1272  MTX1272     0.1314
     11  C9         6.7740  -14.0230   13.2630 C.3   1272  MTX1272     0.1481
     12  N10        5.7600  -13.9180   14.2900 N.pl3 1272  MTX1272    -0.2999
     13  CM         4.4290  -13.4090   13.9220 C.3   1272  MTX1272     0.1125
     14  C11        6.5270  -15.9230   17.9020 C.ar  1272  MTX1272     0.0551
     15  C12        5.2540  -15.4150   17.6600 C.ar  1272  MTX1272     0.0058
     16  C13        4.9810  -14.7480   16.4710 C.ar  1272  MTX1272     0.0147
     17  C14        5.9910  -14.6020   15.5150 C.ar  1272  MTX1272     0.0482
     18  C15        7.2670  -15.1150   15.7720 C.ar  1272  MTX1272     0.0147
     19  C16        7.5350  -15.7830   16.9520 C.ar  1272  MTX1272     0.0058
     20  C          6.8230  -16.6350   19.1890 C.2   1272  MTX1272     0.2652
     21  O          5.7620  -17.1490   19.9460 O.2   1272  MTX1272    -0.2684
     22  N          8.0860  -16.7600   19.5740 N.am  1272  MTX1272    -0.1918
     23  CA         8.4920  -17.5700   20.7110 C.3   1272  MTX1272     0.1986
     24  CT         9.8780  -17.1910   21.1470 C.2   1272  MTX1272     0.3842
     25  O1        10.6200  -16.5260   20.3870 O.co2 1272  MTX1272    -0.2437
     26  O2        10.3080  -17.5280   22.2740 O.co2 1272  MTX1272    -0.2437
     27  CB         8.3860  -19.0830   20.4260 C.3   1272  MTX1272     0.0451
     28  CG         8.9640  -19.4260   19.0590 C.3   1272  MTX1272     0.1164
     29  CD         9.1510  -20.9070   18.7960 C.2   1272  MTX1272     0.3649
     30  OE1        8.4330  -21.7670   19.3560 O.co2 1272  MTX1272    -0.2457
     31  OE2       10.0410  -21.2710   17.9810 O.co2 1272  MTX1272    -0.2457
     32  NA2       11.8010   -8.2610   14.7920 N.pl3 1272  MTX1272    -0.0226
     33  NA4        7.3110   -9.3260   15.3370 N.pl3 1272  MTX1272    -0.0887
@<TRIPOS>BOND
     1     8     9    1
     2     8     7    1
     3    11     7    1
     4    11    12    1
     5     9    10    2
     6     7     6    2
     7    10     1    2
     8    10     5    1
     9    13    12    1
    10     6     5    2
    11     1     2    2
    12     5     4    1
    13    12    17    1
    14     2    32    1
    15     2     3    2
    16     4     3    2
    17     4    33    1
    18    17    18   ar
    19    17    16   ar
    20    18    19   ar
    21    16    15   ar
    22    19    14   ar
    23    15    14   ar
    24    14    20    1
    25    31    29   ar
    26    29    28    1
    27    29    30   ar
    28    28    27    1
    29    20    22   am
    30    20    21    2
    31    22    23    1
    32    25    24   ar
    33    27    23    1
    34    23    24    1
    35    24    26   ar
