@<TRIPOS>MOLECULE
2c7x_NRB_A_1.pdb
 36 37 0 0 0
SMALL
GASTEIGER

@<TRIPOS>ATOM
      1  C1       -20.6400   38.8400   34.9360 C.3   1408  NRB1408     0.0038
      2  C2       -20.3170   39.1010   33.5030 C.3   1408  NRB1408     0.0440
      3  C3       -21.4510   38.5710   32.5970 C.3   1408  NRB1408     0.1727
      4  O1       -21.9610   39.5810   31.6190 O.3   1408  NRB1408    -0.4517
      5  C4       -23.1180   40.3500   31.7470 C.2   1408  NRB1408     0.3234
      6  O2       -23.8580   40.2390   32.7160 O.2   1408  NRB1408    -0.2496
      7  C5       -23.4560   41.3600   30.6500 C.3   1408  NRB1408     0.1563
      8  C6       -24.1630   42.6250   31.2150 C.3   1408  NRB1408     0.0196
      9  C7       -24.3490   40.7430   29.5640 C.2   1408  NRB1408     0.1628
     10  O3       -25.4480   40.2550   29.9080 O.2   1408  NRB1408    -0.2954
     11  C8       -23.9260   40.7980   28.0550 C.3   1408  NRB1408     0.0854
     12  C9       -22.3730   40.8910   27.9920 C.3   1408  NRB1408     0.0103
     13  C10      -24.4120   39.5640   27.1700 C.3   1408  NRB1408     0.1246
     14  O4       -23.4280   39.1980   26.1190 O.3   1408  NRB1408    -0.3307
     15  C11      -24.0760   39.2920   24.8000 C.3   1408  NRB1408     0.2679
     16  O5       -25.5540   39.1580   24.8480 O.3   1408  NRB1408    -0.3311
     17  C12      -26.0680   38.9680   23.5100 C.3   1408  NRB1408     0.1194
     18  C13      -27.5470   38.6100   23.5340 C.3   1408  NRB1408     0.0322
     19  C14      -25.8380   40.2360   22.7120 C.3   1408  NRB1408     0.0483
     20  C15      -24.2840   40.5070   22.6030 C.3   1408  NRB1408     0.0957
     21  N1       -24.0390   41.7630   21.8090 N.3   1408  NRB1408    -0.2691
     22  C16      -23.1050   42.6750   22.5370 C.3   1408  NRB1408     0.0897
     23  C17      -23.4140   41.4090   20.5190 C.3   1408  NRB1408     0.0897
     24  C18      -23.6460   40.5760   24.0680 C.3   1408  NRB1408     0.2224
     25  O6       -24.1460   41.7280   24.7830 O.3   1408  NRB1408    -0.2163
     26  C19      -24.7720   38.1700   27.9300 C.3   1408  NRB1408     0.0282
     27  C20      -26.2400   37.7760   27.6920 C.3   1408  NRB1408     0.0025
     28  C21      -23.7280   37.0780   27.4450 C.3   1408  NRB1408     0.0101
     29  C22      -23.7190   35.6130   27.8980 C.3   1408  NRB1408     0.0620
     30  C23      -22.8140   34.6500   27.1080 C.3   1408  NRB1408     0.0081
     31  C24      -23.3760   35.5830   29.3940 C.2   1408  NRB1408     0.1724
     32  O7       -24.1620   35.0310   30.1570 O.2   1408  NRB1408    -0.2914
     33  C25      -22.1520   36.1820   29.9650 C.2   1408  NRB1408     0.0330
     34  C26      -22.1290   36.6830   31.1960 C.2   1408  NRB1408    -0.0199
     35  C27      -20.9380   37.3250   31.8560 C.3   1408  NRB1408     0.0622
     36  C28      -19.8220   37.7460   30.8340 C.3   1408  NRB1408     0.0084
@<TRIPOS>BOND
     1    23    21    1
     2    21    22    1
     3    21    20    1
     4    20    19    1
     5    20    24    1
     6    19    17    1
     7    17    18    1
     8    17    16    1
     9    24    25    1
    10    24    15    1
    11    15    16    1
    12    15    14    1
    13    14    13    1
    14    30    29    1
    15    13    26    1
    16    13    11    1
    17    28    29    1
    18    28    26    1
    19    27    26    1
    20    29    31    1
    21    12    11    1
    22    11     9    1
    23    31    33    1
    24    31    32    2
    25     9    10    2
    26     9     7    1
    27    33    34    2
    28     7     8    1
    29     7     5    1
    30    36    35    1
    31    34    35    1
    32     4     5    1
    33     4     3    1
    34     5     6    2
    35    35     3    1
    36     3     2    1
    37     2     1    1
