@<TRIPOS>MOLECULE
2c7x_HEM_A_1.pdb
 43 50 0 0 0
SMALL
GASTEIGER

@<TRIPOS>ATOM
      1 FE        -20.1530   38.7170   38.8190 Fe    1407  HEM1407     0.0000
      2  CHA      -19.5680   41.9020   37.6110 C.2   1407  HEM1407     0.0000
      3  CHB      -17.2710   37.6090   37.2840 C.2   1407  HEM1407     0.0000
      4  CHC      -20.7980   35.5690   39.9180 C.2   1407  HEM1407     0.0000
      5  CHD      -23.3010   39.7020   39.8670 C.2   1407  HEM1407     0.0000
      6  NA       -18.7090   39.5900   37.7610 N.ar  1407  HEM1407     0.0000
      7  C1A      -18.5860   40.9290   37.3740 C.ar  1407  HEM1407     0.0000
      8  C2A      -17.3890   41.1230   36.5640 C.ar  1407  HEM1407     0.0000
      9  C3A      -16.7740   39.9060   36.4590 C.ar  1407  HEM1407     0.0000
     10  C4A      -17.5870   38.9620   37.1960 C.ar  1407  HEM1407     0.0000
     11  CMA      -15.4960   39.5910   35.6750 C.3   1407  HEM1407     0.0000
     12  CAA      -16.8230   42.3990   35.9450 C.3   1407  HEM1407     0.0000
     13  CBA      -17.0160   42.4180   34.4230 C.3   1407  HEM1407     0.0000
     14  CGA      -16.3830   43.6420   33.7660 C.2   1407  HEM1407     0.0000
     15  O1A      -15.7430   44.4440   34.4770 O.co2 1407  HEM1407     0.0000
     16  O2A      -16.5310   43.7990   32.5390 O.co2 1407  HEM1407     0.0000
     17  NB       -19.2580   36.9410   38.5720 N.2   1407  HEM1407     0.0000
     18  C1B      -18.0650   36.6510   37.9250 C.2   1407  HEM1407     0.0000
     19  C2B      -17.6490   35.2680   38.1480 C.2   1407  HEM1407     0.0000
     20  C3B      -18.6480   34.6970   38.8890 C.2   1407  HEM1407     0.0000
     21  C4B      -19.6380   35.7440   39.1470 C.2   1407  HEM1407     0.0000
     22  CMB      -16.3350   34.6380   37.6190 C.3   1407  HEM1407     0.0000
     23  CAB      -18.8230   33.3610   39.2610 C.3   1407  HEM1407     0.0000
     24  CBB      -17.7830   32.3630   39.3890 C.3   1407  HEM1407     0.0000
     25  NC       -21.6980   37.8370   39.7410 N.ar  1407  HEM1407     0.0000
     26  C1C      -21.7350   36.5540   40.2360 C.ar  1407  HEM1407     0.0000
     27  C2C      -22.9190   36.3250   41.0750 C.ar  1407  HEM1407     0.0000
     28  C3C      -23.6600   37.4540   41.0100 C.ar  1407  HEM1407     0.0000
     29  C4C      -22.9030   38.3930   40.1580 C.ar  1407  HEM1407     0.0000
     30  CMC      -23.2380   35.0660   41.8830 C.3   1407  HEM1407     0.0000
     31  CAC      -24.9300   37.6360   41.5840 C.3   1407  HEM1407     0.0000
     32  CBC      -25.1150   38.4990   42.7030 C.3   1407  HEM1407     0.0000
     33  ND       -21.2200   40.4130   38.7130 N.2   1407  HEM1407     0.0000
     34  C1D      -22.5110   40.6450   39.2090 C.2   1407  HEM1407     0.0000
     35  C2D      -22.8820   42.0340   39.0620 C.2   1407  HEM1407     0.0000
     36  C3D      -21.8190   42.6420   38.4930 C.2   1407  HEM1407     0.0000
     37  C4D      -20.7960   41.6440   38.2610 C.2   1407  HEM1407     0.0000
     38  CMD      -24.2350   42.6920   39.3960 C.3   1407  HEM1407     0.0000
     39  CAD      -21.7170   44.1130   38.1160 C.3   1407  HEM1407     0.0000
     40  CBD      -20.8570   44.8720   39.1120 C.3   1407  HEM1407     0.0000
     41  CGD      -20.7790   46.3580   38.7910 C.2   1407  HEM1407     0.0000
     42  O1D      -20.9290   46.7140   37.6090 O.co2 1407  HEM1407     0.0000
     43  O2D      -20.5590   47.1610   39.7190 O.co2 1407  HEM1407     0.0000
@<TRIPOS>BOND
     1    16    14   ar
     2    14    13    1
     3    14    15   ar
     4    13    12    1
     5    11     9    1
     6    12     8    1
     7     9     8   ar
     8     9    10   ar
     9     8     7   ar
    10    10     3    2
    11    10     6   ar
    12     3    18    1
    13     7     2    2
    14     7     6   ar
    15    42    41   ar
    16     2    37    1
    17    22    19    1
    18     6     1    1
    19    18    19    1
    20    18    17    2
    21    39    36    1
    22    39    40    1
    23    19    20    2
    24    37    36    1
    25    37    33    2
    26    36    35    2
    27    17     1    1
    28    17    21    1
    29    33     1    1
    30    33    34    1
    31    41    40    1
    32    41    43   ar
    33     1    25    1
    34    20    21    1
    35    20    23    1
    36    35    34    1
    37    35    38    1
    38    21     4    2
    39    34     5    2
    40    23    24    1
    41    25    29   ar
    42    25    26   ar
    43     5    29    1
    44     4    26    1
    45    29    28   ar
    46    26    27   ar
    47    28    27   ar
    48    28    31    1
    49    27    30    1
    50    31    32    1
