@<TRIPOS>MOLECULE
2c80_GTX_A_1.pdb
 26 25 0 0 0
SMALL
GASTEIGER

@<TRIPOS>ATOM
      1  N1       -10.8020   26.4010   -2.1630 N.3   1212  GTX1212    -0.1208
      2  CA1      -11.8480   27.0190   -2.9550 C.3   1212  GTX1212     0.1948
      3  C1       -12.2020   26.1250   -4.1030 C.2   1212  GTX1212     0.3819
      4  O11      -11.3120   25.5120   -4.7300 O.co2 1212  GTX1212    -0.2441
      5  O12      -13.3910   26.0020   -4.4530 O.co2 1212  GTX1212    -0.2441
      6  CB1      -11.3810   28.3670   -3.4990 C.3   1212  GTX1212     0.0402
      7  CG1      -12.5510   29.1780   -4.0660 C.3   1212  GTX1212     0.0889
      8  CD1      -12.0830   30.5440   -4.5110 C.2   1212  GTX1212     0.2418
      9  OE1      -10.8900   31.0810   -3.9970 O.2   1212  GTX1212    -0.2733
     10  N2       -12.8450   31.1940   -5.3940 N.am  1212  GTX1212    -0.1969
     11  CA2      -12.4440   32.4530   -6.0040 C.3   1212  GTX1212     0.1834
     12  C2       -13.5910   33.4080   -6.0840 C.2   1212  GTX1212     0.2626
     13  O2       -14.8890   32.9090   -6.2870 O.2   1212  GTX1212    -0.2714
     14  CB2      -11.8360   32.2500   -7.3980 C.3   1212  GTX1212     0.0886
     15  SG2      -10.8320   30.7390   -7.5330 S.3   1212  GTX1212    -0.1379
     16  C1S       -9.4230   31.5750   -6.7570 C.3   1212  GTX1212     0.0576
     17  C2S       -8.2020   30.6740   -6.6170 C.3   1212  GTX1212     0.0116
     18  C3S       -7.0830   31.1900   -7.5150 C.3   1212  GTX1212     0.0009
     19  C4S       -6.8780   30.2820   -8.7220 C.3   1212  GTX1212     0.0000
     20  C5S       -6.3350   31.0750   -9.9060 C.3   1212  GTX1212     0.0000
     21  C6S       -5.3730   30.2420  -10.7490 C.3   1212  GTX1212     0.0000
     22  N3       -13.3060   34.7030   -5.9620 N.am  1212  GTX1212    -0.1917
     23  CA3      -14.2730   35.7360   -6.2850 C.3   1212  GTX1212     0.2285
     24  C3       -14.8700   36.3120   -5.0280 C.2   1212  GTX1212     0.3865
     25  O31      -15.8330   37.1040   -5.0750 O.co2 1212  GTX1212    -0.2437
     26  O32      -14.3960   36.0010   -3.9170 O.co2 1212  GTX1212    -0.2437
@<TRIPOS>BOND
     1    21    20    1
     2    20    19    1
     3    19    18    1
     4    15    14    1
     5    15    16    1
     6    18    17    1
     7    14    11    1
     8    16    17    1
     9    13    12    2
    10    23    22    1
    11    23    24    1
    12    12    11    1
    13    12    22   am
    14    11    10    1
    15    10     8   am
    16    25    24   ar
    17    24    26   ar
    18     4     3   ar
    19     8     7    1
    20     8     9    2
    21     5     3   ar
    22     3     2    1
    23     7     6    1
    24     6     2    1
    25     2     1    1
