@<TRIPOS>MOLECULE
2c81_PMP_A_1.pdb
 16 16 0 0 0
SMALL
GASTEIGER

@<TRIPOS>ATOM
      1  N1        53.4730   31.7590   40.2770 N.ar  1416  PMP1416    -0.2452
      2  C2        53.5930   32.4530   39.0350 C.ar  1416  PMP1416     0.0978
      3  C2A       53.3400   31.6720   37.7460 C.3   1416  PMP1416     0.0555
      4  C3        53.9370   33.8180   39.0030 C.ar  1416  PMP1416     0.2063
      5  O3        54.0460   34.4690   37.7840 O.3   1416  PMP1416    -0.2856
      6  C4        54.1680   34.5070   40.2410 C.ar  1416  PMP1416     0.0369
      7  C4A       54.5510   36.0080   40.1720 C.3   1416  PMP1416     0.1386
      8  N4A       53.7810   36.8820   41.0600 N.3   1416  PMP1416    -0.1261
      9  C5        54.0300   33.7140   41.5650 C.ar  1416  PMP1416     0.0275
     10  C6        53.6790   32.3460   41.5250 C.ar  1416  PMP1416     0.0965
     11  C5A       54.2860   34.4300   42.8950 C.3   1416  PMP1416     0.1816
     12  O4P       53.4580   35.1380   43.1040 O.3   1416  PMP1416    -0.2653
     13  P         53.8290   35.9620   44.5000 P.3   1416  PMP1416     0.5329
     14  O1P       54.5140   35.0510   46.0020 O.3   1416  PMP1416    -0.1145
     15  O2P       52.1960   36.7710   45.0230 O.3   1416  PMP1416    -0.1145
     16  O3P       55.0040   37.2670   44.1100 O.2   1416  PMP1416    -0.2224
@<TRIPOS>BOND
     1     3     2    1
     2     5     4    1
     3     4     2   ar
     4     4     6   ar
     5     2     1   ar
     6     7     6    1
     7     7     8    1
     8     6     9   ar
     9     1    10   ar
    10    10     9   ar
    11     9    11    1
    12    11    12    1
    13    12    13    1
    14    16    13    2
    15    13    15    1
    16    13    14    1
