@<TRIPOS>MOLECULE
2c84_C_A_1.pdb
 21 22 0 0 0
SMALL
GASTEIGER

@<TRIPOS>ATOM
      1  OP3      -34.4540   -3.1360   16.2470 O.3   1414  C1414      -0.1145
      2  P        -34.9190   -3.6660   14.9510 P.3   1414  C1414       0.5327
      3  OP1      -34.7530   -2.5640   13.8900 O.2   1414  C1414      -0.2224
      4  OP2      -36.2510   -4.2800   14.8750 O.3   1414  C1414      -0.1145
      5  O5'      -33.9320   -4.8080   14.5060 O.3   1414  C1414      -0.2675
      6  C5'      -32.5500   -4.6210   14.3180 C.3   1414  C1414       0.1859
      7  C4'      -31.9550   -5.9950   14.1850 C.3   1414  C1414       0.1801
      8  O4'      -32.3820   -6.8960   15.3040 O.3   1414  C1414      -0.3320
      9  C3'      -32.4630   -6.6680   12.9220 C.3   1414  C1414       0.2158
     10  O3'      -31.7660   -6.3050   11.7360 O.3   1414  C1414      -0.2175
     11  C2'      -32.2850   -8.1720   13.2380 C.3   1414  C1414       0.2319
     12  O2'      -30.9780   -8.5900   12.9740 O.3   1414  C1414      -0.2157
     13  C1'      -32.5620   -8.2240   14.7570 C.3   1414  C1414       0.2400
     14  N1       -33.9850   -8.6880   15.0460 N.am  1414  C1414      -0.1778
     15  C2       -34.2730  -10.0600   14.9970 C.1   1414  C1414       0.2756
     16  O2       -33.3410  -10.8430   14.7280 O.2   1414  C1414      -0.1925
     17  N3       -35.5740  -10.4890   15.2330 N.2   1414  C1414      -0.3024
     18  C4       -36.4940   -9.5950   15.5360 C.2   1414  C1414       0.2346
     19  N4       -37.7140  -10.0320   15.7780 N.pl3 1414  C1414      -0.0921
     20  C5       -36.2280   -8.1990   15.5580 C.2   1414  C1414       0.0687
     21  C6       -34.9760   -7.7870   15.2870 C.2   1414  C1414       0.0836
@<TRIPOS>BOND
     1    10     9    1
     2     9    11    1
     3     9     7    1
     4    12    11    1
     5    11    13    1
     6     3     2    2
     7     7     6    1
     8     7     8    1
     9     6     5    1
    10     5     2    1
    11    16    15    2
    12    13    14    1
    13    13     8    1
    14     4     2    1
    15     2     1    1
    16    15    14   am
    17    15    17    2
    18    14    21    1
    19    17    18    2
    20    21    20    2
    21    18    20    1
    22    18    19    1
