@<TRIPOS>MOLECULE
2c88_ACP_A_1.pdb
 31 33 0 0 0
SMALL
GASTEIGER

@<TRIPOS>ATOM
      1  PG         2.0630   33.9980  131.4480 P.3   1996  ACP1996     0.1295
      2  O1G        0.5460   33.8050  131.3870 O.3   1996  ACP1996    -0.3567
      3  O2G        2.7430   32.9640  130.6060 O.2   1996  ACP1996    -0.4595
      4  O3G        2.4820   35.4410  131.1160 O.3   1996  ACP1996    -0.3567
      5  PB         1.7760   34.7350  134.1910 P.3   1996  ACP1996     0.3815
      6  O1B        0.4700   33.9970  134.1660 O.3   1996  ACP1996    -0.1391
      7  O2B        1.5580   36.1820  134.0300 O.2   1996  ACP1996    -0.2547
      8  C3B        2.6840   33.9770  133.0610 C.3   1996  ACP1996     0.1768
      9  PA         3.5270   34.3530  136.7050 P.3   1996  ACP1996     0.2209
     10  O1A        4.5080   35.4960  136.4620 O.2   1996  ACP1996    -0.5170
     11  O2A        4.1070   32.9850  136.4770 O.3   1996  ACP1996    -0.4371
     12  O3A        2.2280   34.5620  135.7790 O.3   1996  ACP1996    -0.2483
     13  O5'        2.9110   34.7500  138.1320 O.3   1996  ACP1996    -0.3111
     14  C5'        2.1840   33.7080  138.8260 C.3   1996  ACP1996     0.1813
     15  C4'        1.1600   33.9900  139.9570 C.3   1996  ACP1996     0.1821
     16  O4'        1.6030   35.1350  140.6360 O.3   1996  ACP1996    -0.3135
     17  C3'        0.0000   34.3670  139.1330 C.3   1996  ACP1996     0.2184
     18  O3'       -0.8170   33.2480  138.8490 O.3   1996  ACP1996    -0.2174
     19  C2'       -0.6310   35.5480  139.9160 C.3   1996  ACP1996     0.2570
     20  O2'       -1.6410   35.0880  140.8040 O.3   1996  ACP1996    -0.2130
     21  C1'        0.5760   36.1370  140.5640 C.3   1996  ACP1996     0.3186
     22  N9         1.2170   37.3960  139.8740 N.pl3 1996  ACP1996    -0.1439
     23  C8         1.0510   37.9660  138.6410 C.3   1996  ACP1996     0.3377
     24  N7         1.7710   39.0490  138.3680 N.2   1996  ACP1996    -0.2095
     25  C5         2.4360   39.2220  139.5100 C.2   1996  ACP1996     0.2526
     26  C6         3.4410   40.1720  139.9760 C.2   1996  ACP1996     0.4393
     27  N6         3.8460   41.2140  139.1870 N.pl3 1996  ACP1996     0.2180
     28  N1         3.9820   40.0820  141.2610 N.2   1996  ACP1996     0.0021
     29  C2         3.5990   39.0540  142.0950 C.3   1996  ACP1996     0.5254
     30  N3         2.6730   38.0970  141.7420 N.2   1996  ACP1996    -0.0055
     31  C4         2.1470   38.2050  140.4640 C.2   1996  ACP1996     0.3518
@<TRIPOS>BOND
     1     3     1    2
     2     4     1    1
     3     2     1    1
     4     1     8    1
     5     8     5    1
     6     7     5    2
     7     6     5    1
     8     5    12    1
     9    12     9    1
    10    10     9    2
    11    11     9    1
    12     9    13    1
    13    13    14    1
    14    24    23    1
    15    24    25    2
    16    23    22    1
    17    14    15    1
    18    18    17    1
    19    17    19    1
    20    17    15    1
    21    27    26    1
    22    25    26    1
    23    25    31    1
    24    22    31    1
    25    22    21    1
    26    19    21    1
    27    19    20    1
    28    15    16    1
    29    26    28    2
    30    31    30    2
    31    21    16    1
    32    28    29    1
    33    30    29    1
