@<TRIPOS>MOLECULE
2c88_TG1_A_1.pdb
 46 48 0 0 0
SMALL
GASTEIGER

@<TRIPOS>ATOM
      1  C34       -4.3920   10.4800   90.4190 C.3   1995  TG11995     0.0474
      2  C11       -3.5890   10.7900   89.1090 C.3   1995  TG11995     0.2470
      3  C7        -4.4680   10.6200   87.8220 C.3   1995  TG11995     0.2380
      4  C8        -5.5310   11.7720   87.5680 C.3   1995  TG11995     0.2067
      5  C9        -6.4210   11.6450   86.3150 C.3   1995  TG11995     0.0869
      6  C10       -5.8590   11.2990   84.8900 C.3   1995  TG11995     0.1465
      7  C1        -4.9030   10.0050   84.6570 C.3   1995  TG11995     0.1022
      8  C2        -4.5990    9.7140   83.1310 C.3   1995  TG11995     0.2195
      9  O1        -5.0700    8.4170   82.6730 O.3   1995  TG11995    -0.4477
     10  C13       -5.6290    8.4610   81.3580 C.2   1995  TG11995     0.3170
     11  O2        -6.0750    9.4550   80.7900 O.2   1995  TG11995    -0.2501
     12  C14       -5.5880    7.0430   80.7250 C.3   1995  TG11995     0.1096
     13  C15       -4.6350    6.8710   79.5160 C.3   1995  TG11995     0.0116
     14  C16       -5.2660    6.6570   78.1090 C.3   1995  TG11995     0.0006
     15  C17       -4.6340    7.5520   77.0000 C.3   1995  TG11995     0.0000
     16  C18       -3.5850    6.8020   76.1250 C.3   1995  TG11995     0.0000
     17  C19       -3.8670    6.7570   74.6210 C.3   1995  TG11995     0.0000
     18  C20       -3.4600    5.3730   74.0950 C.3   1995  TG11995     0.0000
     19  C3        -3.0920    9.7060   82.9060 C.3   1995  TG11995     0.2271
     20  O3        -2.9810   10.8890   81.9570 O.3   1995  TG11995    -0.4414
     21  C21       -2.3300   10.7860   80.7820 C.2   1995  TG11995     0.3372
     22  O4        -1.3800    9.9040   80.4870 O.2   1995  TG11995    -0.2453
     23  C22       -2.7910   11.8560   79.7100 C.2   1995  TG11995     0.0495
     24  C23       -3.1520   11.1680   78.4310 C.3   1995  TG11995     0.0375
     25  C24       -2.9060   13.1770   79.7460 C.2   1995  TG11995    -0.0236
     26  C25       -2.6330   14.1510   80.8480 C.3   1995  TG11995     0.0306
     27  C4        -2.5200    9.9810   84.2940 C.2   1995  TG11995    -0.0052
     28  C26       -1.0210   10.0410   84.4440 C.3   1995  TG11995     0.0296
     29  C5        -3.4880   10.1450   85.2560 C.2   1995  TG11995     0.0000
     30  C6        -3.2910   10.4360   86.8050 C.3   1995  TG11995     0.2211
     31  O5        -2.5630    9.3970   87.4820 O.3   1995  TG11995    -0.4435
     32  C12       -2.4540    9.8220   88.7810 C.2   1995  TG11995     0.3477
     33  O12       -1.5580    9.5220   89.5720 O.2   1995  TG11995    -0.2473
     34  C31       -5.2100   12.6150   84.3320 C.3   1995  TG11995     0.0443
     35  O9        -7.0800   11.3200   84.0300 O.3   1995  TG11995    -0.4552
     36  C32       -8.1860   10.5510   83.8680 C.2   1995  TG11995     0.3173
     37  O10       -8.2030    9.3580   83.6290 O.2   1995  TG11995    -0.2501
     38  C33       -9.3890   11.3780   84.0190 C.3   1995  TG11995     0.1212
     39  O7        -4.8180   13.0700   87.5660 O.3   1995  TG11995    -0.4493
     40  C27       -5.0340   14.0210   88.5870 C.2   1995  TG11995     0.3169
     41  O8        -5.7750   13.9420   89.5620 O.2   1995  TG11995    -0.2501
     42  C28       -4.1800   15.2110   88.3080 C.3   1995  TG11995     0.1096
     43  C29       -2.9850   15.2120   89.2570 C.3   1995  TG11995     0.0116
     44  C30       -2.7820   16.6430   89.6590 C.3   1995  TG11995     0.0006
     45  O6        -5.1900    9.3220   87.8440 O.3   1995  TG11995    -0.2147
     46  O11       -2.7960   12.0070   89.2940 O.3   1995  TG11995    -0.2114
@<TRIPOS>BOND
     1    18    17    1
     2    17    16    1
     3    16    15    1
     4    15    14    1
     5    14    13    1
     6    24    23    1
     7    13    12    1
     8    23    25    2
     9    23    21    1
    10    25    26    1
    11    22    21    2
    12    12    10    1
    13    21    20    1
    14    11    10    2
    15    10     9    1
    16    20    19    1
    17     9     8    1
    18    19     8    1
    19    19    27    1
    20     8     7    1
    21    37    36    2
    22    36    38    1
    23    36    35    1
    24    35     6    1
    25    27    28    1
    26    27    29    2
    27    34     6    1
    28     7     6    1
    29     7    29    1
    30     6     5    1
    31    29    30    1
    32     5     4    1
    33    30    31    1
    34    30     3    1
    35    31    32    1
    36    39     4    1
    37    39    40    1
    38     4     3    1
    39     3    45    1
    40     3     2    1
    41    42    40    1
    42    42    43    1
    43    40    41    2
    44    32     2    1
    45    32    33    2
    46     2    46    1
    47     2     1    1
    48    43    44    1
