@<TRIPOS>MOLECULE
2c8c_ADP_D_1.pdb
 27 29 0 0 0
SMALL
GASTEIGER

@<TRIPOS>ATOM
      1  PB        21.0990    0.9850   40.5030 P.3   1247  ADP1247     0.5373
      2  O1B       20.5080    1.7370   41.7210 O.3   1247  ADP1247    -0.1143
      3  O2B       22.5610    1.3840   40.2700 O.3   1247  ADP1247    -0.1143
      4  O3B       20.3690    1.4960   39.3080 O.2   1247  ADP1247    -0.2221
      5  PA        21.8020   -1.7730   41.4970 P.3   1247  ADP1247     0.2231
      6  O1A       23.2700   -1.5130   41.3900 O.3   1247  ADP1247    -0.4370
      7  O2A       21.5080   -3.2570   41.1190 O.2   1247  ADP1247    -0.5169
      8  O3A       20.9450   -0.6530   40.6180 O.3   1247  ADP1247    -0.2261
      9  O5'       21.2510   -1.4960   43.0030 O.3   1247  ADP1247    -0.3111
     10  C5'       19.8920   -1.7510   43.3330 C.3   1247  ADP1247     0.1813
     11  C4'       19.5700   -1.2880   44.7690 C.3   1247  ADP1247     0.1821
     12  O4'       20.1400   -2.0940   45.8070 O.3   1247  ADP1247    -0.3135
     13  C3'       20.0240    0.1370   45.0790 C.3   1247  ADP1247     0.2184
     14  O3'       19.0120    0.7890   45.8310 O.3   1247  ADP1247    -0.2174
     15  C2'       21.3630   -0.0580   45.8020 C.3   1247  ADP1247     0.2570
     16  O2'       21.7020    1.0430   46.6400 O.3   1247  ADP1247    -0.2130
     17  C1'       21.1730   -1.4060   46.5320 C.3   1247  ADP1247     0.3186
     18  N9        22.3590   -2.3050   46.6000 N.pl3 1247  ADP1247    -0.1439
     19  C8        23.4730   -2.3290   45.7780 C.3   1247  ADP1247     0.3377
     20  N7        24.2980   -3.3350   46.1690 N.2   1247  ADP1247    -0.2095
     21  C5        23.7370   -3.9690   47.2310 C.2   1247  ADP1247     0.2526
     22  C6        24.1690   -5.0530   48.0120 C.2   1247  ADP1247     0.4393
     23  N6        25.3210   -5.6650   47.7480 N.pl3 1247  ADP1247     0.2180
     24  N1        23.3540   -5.4820   49.0500 N.2   1247  ADP1247     0.0021
     25  C2        22.1390   -4.8440   49.2980 C.3   1247  ADP1247     0.5254
     26  N3        21.7150   -3.7640   48.5290 N.2   1247  ADP1247    -0.0055
     27  C4        22.5080   -3.3340   47.5060 C.2   1247  ADP1247     0.3518
@<TRIPOS>BOND
     1     4     1    2
     2     3     1    1
     3     1     8    1
     4     1     2    1
     5     8     5    1
     6     7     5    2
     7     6     5    1
     8     5     9    1
     9     9    10    1
    10    10    11    1
    11    11    13    1
    12    11    12    1
    13    13    15    1
    14    13    14    1
    15    19    20    1
    16    19    18    1
    17    15    17    1
    18    15    16    1
    19    12    17    1
    20    20    21    2
    21    17    18    1
    22    18    27    1
    23    21    27    1
    24    21    22    1
    25    27    26    2
    26    23    22    1
    27    22    24    2
    28    26    25    1
    29    24    25    1
