@<TRIPOS>MOLECULE
2c8c_NAD_A_1.pdb
 44 48 0 0 0
SMALL
GASTEIGER

@<TRIPOS>ATOM
      1  PA        37.9740   38.1810   35.0490 P.3   1248  NAD1248     0.2189
      2  O1A       39.3220   37.5460   34.8460 O.2   1248  NAD1248    -0.5170
      3  O2A       38.1750   39.5770   35.6610 O.3   1248  NAD1248    -0.4371
      4  O5B       37.0700   38.1150   33.6720 O.3   1248  NAD1248    -0.3112
      5  C5B       35.6930   38.4350   33.7060 C.3   1248  NAD1248     0.1813
      6  C4B       35.0920   38.4720   32.3020 C.3   1248  NAD1248     0.1821
      7  O4B       35.8530   39.2940   31.4170 O.3   1248  NAD1248    -0.3135
      8  C3B       35.0680   37.0870   31.6800 C.3   1248  NAD1248     0.2184
      9  O3B       33.9950   37.0740   30.7450 O.3   1248  NAD1248    -0.2174
     10  C2B       36.3930   36.9810   30.9630 C.3   1248  NAD1248     0.2570
     11  O2B       36.3440   35.9370   30.0030 O.3   1248  NAD1248    -0.2130
     12  C1B       36.5210   38.4540   30.4740 C.3   1248  NAD1248     0.3186
     13  N9A       37.9000   38.9500   30.2870 N.pl3 1248  NAD1248    -0.1439
     14  C8A       39.0650   38.4280   30.8290 C.3   1248  NAD1248     0.3377
     15  N7A       40.1090   39.1780   30.4040 N.2   1248  NAD1248    -0.2095
     16  C5A       39.6250   40.1690   29.5920 C.2   1248  NAD1248     0.2526
     17  C6A       40.2800   41.1910   28.8830 C.2   1248  NAD1248     0.4393
     18  N6A       41.6270   41.2920   28.9700 N.pl3 1248  NAD1248     0.2180
     19  N1A       39.5070   42.0550   28.1060 N.2   1248  NAD1248     0.0021
     20  C2A       38.1350   41.9110   28.0570 C.3   1248  NAD1248     0.5254
     21  N3A       37.5020   40.8970   28.7520 N.2   1248  NAD1248    -0.0055
     22  C4A       38.2410   40.0340   29.5040 C.2   1248  NAD1248     0.3518
     23  O3        36.9980   37.3280   36.0530 O.3   1248  NAD1248    -0.2703
     24  PN        36.7010   35.7270   35.8500 P.3   1248  NAD1248     0.2189
     25  O1N       37.9830   34.9450   35.8080 O.3   1248  NAD1248    -0.4371
     26  O2N       35.6150   35.4350   34.8720 O.2   1248  NAD1248    -0.5170
     27  O5D       35.9400   35.3610   37.2290 O.3   1248  NAD1248    -0.3112
     28  C5D       36.6480   35.2840   38.4430 C.3   1248  NAD1248     0.1813
     29  C4D       35.7650   34.6330   39.5050 C.3   1248  NAD1248     0.1799
     30  O4D       35.8340   33.2340   39.3140 O.3   1248  NAD1248    -0.3327
     31  C3D       36.4540   34.9050   40.8240 C.3   1248  NAD1248     0.2158
     32  O3D       35.5710   34.5490   41.8730 O.3   1248  NAD1248    -0.2175
     33  C2D       37.6020   33.9010   40.7480 C.3   1248  NAD1248     0.2309
     34  O2D       37.9010   33.3580   42.0040 O.3   1248  NAD1248    -0.2158
     35  C1D       37.0120   32.7280   39.9780 C.3   1248  NAD1248     0.2263
     36  N1N       37.8370   31.8190   39.1270 N.pl3 1248  NAD1248    -0.2787
     37  C2N       37.7840   31.8480   37.7600 C.3   1248  NAD1248     0.1244
     38  C3N       38.5260   30.9350   37.0250 C.2   1248  NAD1248     0.0544
     39  C7N       38.4800   30.9580   35.5450 C.2   1248  NAD1248     0.2818
     40  O7N       39.1770   29.9590   34.8360 O.2   1248  NAD1248    -0.2670
     41  N7N       37.7730   31.8870   34.9040 N.am  1248  NAD1248    -0.0839
     42  C4N       39.3020   29.9670   37.6520 C.2   1248  NAD1248     0.0033
     43  C5N       39.3280   29.9100   39.0190 C.2   1248  NAD1248     0.0157
     44  C6N       38.5960   30.8500   39.7480 C.2   1248  NAD1248     0.0633
@<TRIPOS>BOND
     1    20    19    1
     2    20    21    1
     3    19    17    2
     4    21    22    2
     5    17    18    1
     6    17    16    1
     7    22    16    1
     8    22    13    1
     9    16    15    2
    10    11    10    1
    11    13    12    1
    12    13    14    1
    13    15    14    1
    14    12    10    1
    15    12     7    1
    16     9     8    1
    17    10     8    1
    18     7     6    1
    19     8     6    1
    20     6     5    1
    21     4     5    1
    22     4     1    1
    23    40    39    2
    24     2     1    2
    25    26    24    2
    26    41    39   am
    27     1     3    1
    28     1    23    1
    29    39    38    1
    30    25    24    1
    31    24    23    1
    32    24    27    1
    33    38    42    2
    34    38    37    1
    35    27    28    1
    36    42    43    1
    37    37    36    1
    38    28    29    1
    39    43    44    2
    40    36    44    1
    41    36    35    1
    42    30    29    1
    43    30    35    1
    44    29    31    1
    45    35    33    1
    46    33    31    1
    47    33    34    1
    48    31    32    1
