@<TRIPOS>MOLECULE
2c8f_NAD_E_1.pdb
 44 48 0 0 0
SMALL
GASTEIGER

@<TRIPOS>ATOM
      1  PA        41.8710    2.4990   73.0180 P.3   1247  NAD1247     0.2189
      2  O1A       40.4950    2.0750   72.6300 O.2   1247  NAD1247    -0.5170
      3  O2A       42.6400    1.3930   73.7560 O.3   1247  NAD1247    -0.4371
      4  O5B       42.6460    2.8700   71.6450 O.3   1247  NAD1247    -0.3112
      5  C5B       43.8490    3.6370   71.6520 C.3   1247  NAD1247     0.1813
      6  C4B       44.0980    4.3360   70.3170 C.3   1247  NAD1247     0.1821
      7  O4B       44.2730    3.3100   69.3720 O.3   1247  NAD1247    -0.3135
      8  C3B       42.9110    5.1680   69.8070 C.3   1247  NAD1247     0.2184
      9  O3B       43.2970    6.3510   69.1410 O.3   1247  NAD1247    -0.2174
     10  C2B       42.2190    4.2860   68.8040 C.3   1247  NAD1247     0.2570
     11  O2B       41.6600    5.0210   67.7670 O.3   1247  NAD1247    -0.2130
     12  C1B       43.3400    3.3960   68.3070 C.3   1247  NAD1247     0.3186
     13  N9A       42.8920    2.0540   67.9500 N.pl3 1247  NAD1247    -0.1439
     14  C8A       41.7540    1.3950   68.3350 C.3   1247  NAD1247     0.3377
     15  N7A       41.7400    0.1900   67.7370 N.2   1247  NAD1247    -0.2095
     16  C5A       42.8350    0.0670   66.9960 C.2   1247  NAD1247     0.2526
     17  C6A       43.2870   -0.9550   66.2070 C.2   1247  NAD1247     0.4393
     18  N6A       42.5950   -2.0780   66.0980 N.pl3 1247  NAD1247     0.2180
     19  N1A       44.4830   -0.7890   65.5420 N.2   1247  NAD1247     0.0021
     20  C2A       45.2090    0.3880   65.6500 C.3   1247  NAD1247     0.5254
     21  N3A       44.7440    1.4060   66.4550 N.2   1247  NAD1247    -0.0055
     22  C4A       43.5760    1.2330   67.1220 C.2   1247  NAD1247     0.3518
     23  O3        41.7850    3.7770   74.0370 O.3   1247  NAD1247    -0.2703
     24  PN        40.8010    5.0680   73.8860 P.3   1247  NAD1247     0.2189
     25  O1N       39.4430    4.5490   73.8180 O.3   1247  NAD1247    -0.4371
     26  O2N       41.3600    5.9470   72.8580 O.2   1247  NAD1247    -0.5170
     27  O5D       40.7650    5.9210   75.2220 O.3   1247  NAD1247    -0.3112
     28  C5D       40.8640    5.2610   76.4650 C.3   1247  NAD1247     0.1813
     29  C4D       40.8040    6.3140   77.5810 C.3   1247  NAD1247     0.1799
     30  O4D       39.7980    7.2470   77.2650 O.3   1247  NAD1247    -0.3327
     31  C3D       40.3580    5.7940   78.9310 C.3   1247  NAD1247     0.2158
     32  O3D       40.6900    6.7990   79.8760 O.3   1247  NAD1247    -0.2175
     33  C2D       38.8540    5.6640   78.7680 C.3   1247  NAD1247     0.2309
     34  O2D       38.1410    5.6710   79.9800 O.3   1247  NAD1247    -0.2158
     35  C1D       38.6020    6.9400   78.0090 C.3   1247  NAD1247     0.2263
     36  N1N       37.3940    6.9360   77.1540 N.pl3 1247  NAD1247    -0.2787
     37  C2N       37.5140    7.0070   75.7810 C.3   1247  NAD1247     0.1244
     38  C3N       36.3830    7.0450   74.9750 C.2   1247  NAD1247     0.0544
     39  C7N       36.4850    7.1120   73.4800 C.2   1247  NAD1247     0.2818
     40  O7N       35.2980    7.1670   72.8010 O.2   1247  NAD1247    -0.2670
     41  N7N       37.6130    7.1240   72.7910 N.am  1247  NAD1247    -0.0839
     42  C4N       35.1140    7.0150   75.5730 C.2   1247  NAD1247     0.0033
     43  C5N       35.0130    6.9520   76.9680 C.2   1247  NAD1247     0.0157
     44  C6N       36.1660    6.9240   77.7540 C.2   1247  NAD1247     0.0633
@<TRIPOS>BOND
     1    19    20    1
     2    19    17    2
     3    20    21    1
     4    18    17    1
     5    17    16    1
     6    21    22    2
     7    16    22    1
     8    16    15    2
     9    22    13    1
    10    15    14    1
    11    11    10    1
    12    13    12    1
    13    13    14    1
    14    12    10    1
    15    12     7    1
    16    10     8    1
    17     9     8    1
    18     7     6    1
    19     8     6    1
    20     6     5    1
    21     4     5    1
    22     4     1    1
    23     2     1    2
    24    41    39   am
    25    40    39    2
    26    26    24    2
    27     1     3    1
    28     1    23    1
    29    39    38    1
    30    25    24    1
    31    24    23    1
    32    24    27    1
    33    38    42    2
    34    38    37    1
    35    27    28    1
    36    42    43    1
    37    37    36    1
    38    28    29    1
    39    43    44    2
    40    36    44    1
    41    36    35    1
    42    30    29    1
    43    30    35    1
    44    29    31    1
    45    35    33    1
    46    33    31    1
    47    33    34    1
    48    31    32    1
