@<TRIPOS>MOLECULE
2c8h_NAD_A_1.pdb
 44 48 0 0 0
SMALL
GASTEIGER

@<TRIPOS>ATOM
      1  PA        37.6520   26.6550   35.2650 P.3   1248  NAD1248     0.2189
      2  O1A       38.9630   26.0960   34.8900 O.2   1248  NAD1248    -0.5170
      3  O2A       37.7660   28.0470   35.8900 O.3   1248  NAD1248    -0.4371
      4  O5B       36.7150   26.6800   33.9600 O.3   1248  NAD1248    -0.3112
      5  C5B       35.3940   27.1840   34.0170 C.3   1248  NAD1248     0.1813
      6  C4B       34.7720   27.0680   32.6320 C.3   1248  NAD1248     0.1821
      7  O4B       35.5160   27.8330   31.6970 O.3   1248  NAD1248    -0.3135
      8  C3B       34.7690   25.6500   32.0910 C.3   1248  NAD1248     0.2184
      9  O3B       33.6060   25.4520   31.3130 O.3   1248  NAD1248    -0.2174
     10  C2B       36.0290   25.5800   31.2440 C.3   1248  NAD1248     0.2570
     11  O2B       35.9750   24.6110   30.2170 O.3   1248  NAD1248    -0.2130
     12  C1B       36.1270   27.0070   30.7190 C.3   1248  NAD1248     0.3186
     13  N9A       37.5040   27.4910   30.4970 N.pl3 1248  NAD1248    -0.1439
     14  C8A       38.6780   27.0590   31.0600 C.3   1248  NAD1248     0.3377
     15  N7A       39.6950   27.8070   30.5660 N.2   1248  NAD1248    -0.2095
     16  C5A       39.1850   28.7130   29.7050 C.2   1248  NAD1248     0.2526
     17  C6A       39.7700   29.7150   28.9340 C.2   1248  NAD1248     0.4393
     18  N6A       41.0870   29.9100   28.9690 N.pl3 1248  NAD1248     0.2180
     19  N1A       38.9710   30.5050   28.1320 N.2   1248  NAD1248     0.0021
     20  C2A       37.6050   30.3000   28.1010 C.3   1248  NAD1248     0.5254
     21  N3A       37.0270   29.3030   28.8680 N.2   1248  NAD1248    -0.0055
     22  C4A       37.8100   28.5270   29.6580 C.2   1248  NAD1248     0.3518
     23  O3        36.8690   25.7040   36.2930 O.3   1248  NAD1248    -0.2703
     24  PN        36.5820   24.1410   36.0670 P.3   1248  NAD1248     0.2189
     25  O1N       37.8410   23.3820   36.0970 O.3   1248  NAD1248    -0.4371
     26  O2N       35.6140   23.9860   34.9660 O.2   1248  NAD1248    -0.5170
     27  O5D       35.7640   23.8420   37.4100 O.3   1248  NAD1248    -0.3112
     28  C5D       36.3220   24.1170   38.6690 C.3   1248  NAD1248     0.1813
     29  C4D       35.6090   23.2540   39.6980 C.3   1248  NAD1248     0.1799
     30  O4D       35.7260   21.8800   39.3920 O.3   1248  NAD1248    -0.3327
     31  C3D       36.2360   23.3920   41.0590 C.3   1248  NAD1248     0.2158
     32  O3D       35.2260   23.1060   42.0030 O.3   1248  NAD1248    -0.2175
     33  C2D       37.3460   22.3560   41.0400 C.3   1248  NAD1248     0.2309
     34  O2D       37.6620   21.9480   42.3440 O.3   1248  NAD1248    -0.2158
     35  C1D       36.7040   21.2550   40.2130 C.3   1248  NAD1248     0.2263
     36  N1N       37.5640   20.3710   39.3860 N.pl3 1248  NAD1248    -0.2787
     37  C2N       37.4660   20.4010   38.0190 C.3   1248  NAD1248     0.1244
     38  C3N       38.2210   19.5240   37.2510 C.2   1248  NAD1248     0.0544
     39  C7N       38.1470   19.5400   35.7540 C.2   1248  NAD1248     0.2818
     40  O7N       38.9120   18.5950   35.0830 O.2   1248  NAD1248    -0.2670
     41  N7N       37.3820   20.3880   35.0710 N.am  1248  NAD1248    -0.0839
     42  C4N       39.0770   18.6160   37.8700 C.2   1248  NAD1248     0.0033
     43  C5N       39.1540   18.5810   39.2590 C.2   1248  NAD1248     0.0157
     44  C6N       38.3870   19.4660   40.0000 C.2   1248  NAD1248     0.0633
@<TRIPOS>BOND
     1    20    19    1
     2    20    21    1
     3    19    17    2
     4    21    22    2
     5    17    18    1
     6    17    16    1
     7    22    16    1
     8    22    13    1
     9    16    15    2
    10    11    10    1
    11    13    12    1
    12    13    14    1
    13    15    14    1
    14    12    10    1
    15    12     7    1
    16    10     8    1
    17     9     8    1
    18     7     6    1
    19     8     6    1
    20     6     5    1
    21     4     5    1
    22     4     1    1
    23     2     1    2
    24    26    24    2
    25    41    39   am
    26    40    39    2
    27     1     3    1
    28     1    23    1
    29    39    38    1
    30    24    25    1
    31    24    23    1
    32    24    27    1
    33    38    42    2
    34    38    37    1
    35    27    28    1
    36    42    43    1
    37    37    36    1
    38    28    29    1
    39    43    44    2
    40    36    44    1
    41    36    35    1
    42    30    29    1
    43    30    35    1
    44    29    31    1
    45    35    33    1
    46    33    31    1
    47    33    34    1
    48    31    32    1
