@<TRIPOS>MOLECULE
2c8k_TG1_A_1.pdb
 46 48 0 0 0
SMALL
GASTEIGER

@<TRIPOS>ATOM
      1  C34       -4.3440   10.3040   90.2390 C.3   1995  TG11995     0.0474
      2  C11       -3.5730   10.5200   88.8850 C.3   1995  TG11995     0.2470
      3  C7        -4.5070   10.3590   87.6200 C.3   1995  TG11995     0.2380
      4  C8        -5.5630   11.5220   87.3850 C.3   1995  TG11995     0.2067
      5  C9        -6.4820   11.4030   86.1500 C.3   1995  TG11995     0.0869
      6  C10       -5.9250   11.0950   84.7120 C.3   1995  TG11995     0.1465
      7  C1        -5.0040    9.7890   84.4510 C.3   1995  TG11995     0.1022
      8  C2        -4.7460    9.5090   82.9210 C.3   1995  TG11995     0.2195
      9  O1        -5.2840    8.2290   82.4680 O.3   1995  TG11995    -0.4477
     10  C13       -5.8930    8.2750   81.1640 C.2   1995  TG11995     0.3170
     11  O2        -6.3080    9.2700   80.5760 O.2   1995  TG11995    -0.2501
     12  C14       -5.9500    6.8480   80.5720 C.3   1995  TG11995     0.1096
     13  C15       -4.8580    6.5220   79.5310 C.3   1995  TG11995     0.0116
     14  C16       -5.2940    6.3310   78.0510 C.3   1995  TG11995     0.0006
     15  C17       -4.7400    7.4290   77.0930 C.3   1995  TG11995     0.0000
     16  C18       -3.7990    6.8650   75.9920 C.3   1995  TG11995     0.0000
     17  C19       -4.4460    6.6360   74.6240 C.3   1995  TG11995     0.0000
     18  C20       -3.9970    5.2690   74.0910 C.3   1995  TG11995     0.0000
     19  C3        -3.2450    9.4560   82.6750 C.3   1995  TG11995     0.2271
     20  O3        -3.0990   10.6350   81.7310 O.3   1995  TG11995    -0.4414
     21  C21       -2.5370   10.4690   80.5180 C.2   1995  TG11995     0.3372
     22  O4        -1.8550    9.4000   80.1270 O.2   1995  TG11995    -0.2453
     23  C22       -2.7480   11.6900   79.5280 C.2   1995  TG11995     0.0495
     24  C23       -2.8930   11.1800   78.1350 C.3   1995  TG11995     0.0375
     25  C24       -2.8160   13.0040   79.7020 C.2   1995  TG11995    -0.0236
     26  C25       -2.7170   13.8420   80.9420 C.3   1995  TG11995     0.0306
     27  C4        -2.6400    9.7010   84.0490 C.2   1995  TG11995    -0.0052
     28  C26       -1.1360    9.7130   84.1700 C.3   1995  TG11995     0.0296
     29  C5        -3.5850    9.8810   85.0280 C.2   1995  TG11995     0.0000
     30  C6        -3.3630   10.1540   86.5760 C.3   1995  TG11995     0.2211
     31  O5        -2.6380    9.0930   87.2330 O.3   1995  TG11995    -0.4435
     32  C12       -2.5070    9.4750   88.5400 C.2   1995  TG11995     0.3477
     33  O12       -1.6620    9.0570   89.3310 O.2   1995  TG11995    -0.2473
     34  C31       -5.2530   12.4260   84.1940 C.3   1995  TG11995     0.0443
     35  O9        -7.1290   11.1310   83.8330 O.3   1995  TG11995    -0.4552
     36  C32       -8.2200   10.3690   83.6310 C.2   1995  TG11995     0.3173
     37  O10       -8.2340    9.1620   83.5120 O.2   1995  TG11995    -0.2501
     38  C33       -9.4010   11.2220   83.5650 C.3   1995  TG11995     0.1212
     39  O7        -4.8550   12.8220   87.3420 O.3   1995  TG11995    -0.4493
     40  C27       -5.0810   13.8020   88.3330 C.2   1995  TG11995     0.3169
     41  O8        -5.8250   13.7480   89.3070 O.2   1995  TG11995    -0.2501
     42  C28       -4.2440   14.9900   88.0080 C.3   1995  TG11995     0.1096
     43  C29       -3.2390   15.2390   89.1210 C.3   1995  TG11995     0.0116
     44  C30       -2.7360   16.6410   88.9000 C.3   1995  TG11995     0.0006
     45  O6        -5.2640    9.0810   87.6860 O.3   1995  TG11995    -0.2147
     46  O11       -2.7240   11.7120   89.0130 O.3   1995  TG11995    -0.2114
@<TRIPOS>BOND
     1    18    17    1
     2    17    16    1
     3    16    15    1
     4    15    14    1
     5    14    13    1
     6    24    23    1
     7    23    25    2
     8    23    21    1
     9    13    12    1
    10    25    26    1
    11    22    21    2
    12    21    20    1
    13    12    10    1
    14    11    10    2
    15    10     9    1
    16    20    19    1
    17     9     8    1
    18    19     8    1
    19    19    27    1
    20     8     7    1
    21    37    36    2
    22    38    36    1
    23    36    35    1
    24    35     6    1
    25    27    28    1
    26    27    29    2
    27    34     6    1
    28     7     6    1
    29     7    29    1
    30     6     5    1
    31    29    30    1
    32     5     4    1
    33    30    31    1
    34    30     3    1
    35    31    32    1
    36    39     4    1
    37    39    40    1
    38     4     3    1
    39     3    45    1
    40     3     2    1
    41    42    40    1
    42    42    43    1
    43    40    41    2
    44    32     2    1
    45    32    33    2
    46     2    46    1
    47     2     1    1
    48    44    43    1
