@<TRIPOS>MOLECULE
2c8k_ACP_A_1.pdb
 31 33 0 0 0
SMALL
GASTEIGER

@<TRIPOS>ATOM
      1  PG         2.1410   33.7780  131.2550 P.3   1996  ACP1996     0.1295
      2  O1G        0.6310   33.8710  131.1430 O.3   1996  ACP1996    -0.3567
      3  O2G        2.6510   32.7010  130.3650 O.2   1996  ACP1996    -0.4595
      4  O3G        2.8270   35.1320  131.0390 O.3   1996  ACP1996    -0.3567
      5  PB         1.9000   34.4610  133.9800 P.3   1996  ACP1996     0.3815
      6  O1B        0.5130   33.9070  133.9830 O.3   1996  ACP1996    -0.1391
      7  O2B        1.8730   35.9090  133.7800 O.2   1996  ACP1996    -0.2547
      8  C3B        2.6710   33.5530  132.8750 C.3   1996  ACP1996     0.1768
      9  PA         3.6140   34.1490  136.4970 P.3   1996  ACP1996     0.2209
     10  O1A        4.5960   35.2580  136.1950 O.2   1996  ACP1996    -0.5170
     11  O2A        4.1860   32.7710  136.3760 O.3   1996  ACP1996    -0.4371
     12  O3A        2.3370   34.2920  135.5530 O.3   1996  ACP1996    -0.2483
     13  O5'        2.9520   34.6480  137.8600 O.3   1996  ACP1996    -0.3111
     14  C5'        2.1550   33.6550  138.5490 C.3   1996  ACP1996     0.1813
     15  C4'        1.2330   33.9510  139.7660 C.3   1996  ACP1996     0.1821
     16  O4'        1.7520   35.0670  140.4390 O.3   1996  ACP1996    -0.3135
     17  C3'        0.0200   34.3770  139.0570 C.3   1996  ACP1996     0.2184
     18  O3'       -0.8380   33.2850  138.8080 O.3   1996  ACP1996    -0.2174
     19  C2'       -0.5200   35.5260  139.9290 C.3   1996  ACP1996     0.2570
     20  O2'       -1.4510   35.0330  140.8730 O.3   1996  ACP1996    -0.2130
     21  C1'        0.7400   36.0670  140.4970 C.3   1996  ACP1996     0.3186
     22  N9         1.3410   37.3310  139.8340 N.pl3 1996  ACP1996    -0.1439
     23  C8         1.1110   37.9340  138.6350 C.3   1996  ACP1996     0.3377
     24  N7         1.8190   39.0310  138.3660 N.2   1996  ACP1996    -0.2095
     25  C5         2.5430   39.1510  139.4670 C.2   1996  ACP1996     0.2526
     26  C6         3.5550   40.0810  139.9140 C.2   1996  ACP1996     0.4393
     27  N6         3.9290   41.1390  139.1460 N.pl3 1996  ACP1996     0.2180
     28  N1         4.1620   39.9390  141.1610 N.2   1996  ACP1996     0.0021
     29  C2         3.8200   38.8930  141.9760 C.3   1996  ACP1996     0.5254
     30  N3         2.8850   37.9590  141.6390 N.2   1996  ACP1996    -0.0055
     31  C4         2.2940   38.1130  140.4030 C.2   1996  ACP1996     0.3518
@<TRIPOS>BOND
     1     3     1    2
     2     4     1    1
     3     2     1    1
     4     1     8    1
     5     8     5    1
     6     7     5    2
     7     5     6    1
     8     5    12    1
     9    12     9    1
    10    10     9    2
    11    11     9    1
    12     9    13    1
    13    13    14    1
    14    24    23    1
    15    24    25    2
    16    14    15    1
    17    23    22    1
    18    18    17    1
    19    17    15    1
    20    17    19    1
    21    27    26    1
    22    25    26    1
    23    25    31    1
    24    15    16    1
    25    22    31    1
    26    22    21    1
    27    26    28    2
    28    19    21    1
    29    19    20    1
    30    31    30    2
    31    16    21    1
    32    28    29    1
    33    30    29    1
