@<TRIPOS>MOLECULE
2c8l_TG1_A_1.pdb
 46 48 0 0 0
SMALL
GASTEIGER

@<TRIPOS>ATOM
      1  C34       -4.3590   11.0420   90.4740 C.3   1995  TG11995     0.0474
      2  C11       -3.5550   11.2420   89.1370 C.3   1995  TG11995     0.2470
      3  C7        -4.4660   11.0540   87.8610 C.3   1995  TG11995     0.2380
      4  C8        -5.5370   12.1980   87.6160 C.3   1995  TG11995     0.2067
      5  C9        -6.4400   12.0900   86.3660 C.3   1995  TG11995     0.0869
      6  C10       -5.8510   11.7530   84.9470 C.3   1995  TG11995     0.1465
      7  C1        -4.9190   10.4320   84.7250 C.3   1995  TG11995     0.1022
      8  C2        -4.6330   10.1260   83.2010 C.3   1995  TG11995     0.2195
      9  O1        -5.1120    8.8070   82.7790 O.3   1995  TG11995    -0.4477
     10  C13       -5.7550    8.8200   81.4870 C.2   1995  TG11995     0.3170
     11  O2        -6.2200    9.8040   80.9050 O.2   1995  TG11995    -0.2501
     12  C14       -5.7830    7.3870   80.8930 C.3   1995  TG11995     0.1096
     13  C15       -4.7850    7.1300   79.7390 C.3   1995  TG11995     0.0116
     14  C16       -5.2920    7.2980   78.2730 C.3   1995  TG11995     0.0006
     15  C17       -4.1710    7.7280   77.2660 C.3   1995  TG11995     0.0000
     16  C18       -3.7430    6.5900   76.2880 C.3   1995  TG11995     0.0000
     17  C19       -3.6450    6.9790   74.8020 C.3   1995  TG11995     0.0000
     18  C20       -3.4270    5.7040   73.9620 C.3   1995  TG11995     0.0000
     19  C3        -3.1240   10.1160   82.9680 C.3   1995  TG11995     0.2271
     20  O3        -2.9790   11.2850   82.0020 O.3   1995  TG11995    -0.4414
     21  C21       -2.3850   11.0970   80.8120 C.2   1995  TG11995     0.3372
     22  O4        -1.5290   10.1250   80.5260 O.2   1995  TG11995    -0.2453
     23  C22       -2.7910   12.1480   79.6990 C.2   1995  TG11995     0.0495
     24  C23       -3.2870   11.4090   78.4950 C.3   1995  TG11995     0.0375
     25  C24       -2.7760   13.4820   79.6350 C.2   1995  TG11995    -0.0236
     26  C25       -2.3560   14.5220   80.6300 C.3   1995  TG11995     0.0306
     27  C4        -2.5450   10.3900   84.3430 C.2   1995  TG11995    -0.0052
     28  C26       -1.0470   10.4480   84.4800 C.3   1995  TG11995     0.0296
     29  C5        -3.5040   10.5700   85.3050 C.2   1995  TG11995     0.0000
     30  C6        -3.3030   10.8580   86.8410 C.3   1995  TG11995     0.2211
     31  O5        -2.5690    9.8150   87.5080 O.3   1995  TG11995    -0.4435
     32  C12       -2.4610   10.1960   88.8160 C.2   1995  TG11995     0.3477
     33  O12       -1.6260    9.7700   89.6280 O.2   1995  TG11995    -0.2473
     34  C31       -5.1560   13.0640   84.4400 C.3   1995  TG11995     0.0443
     35  O9        -7.0310   11.8170   84.0250 O.3   1995  TG11995    -0.4552
     36  C32       -8.1440   11.0950   83.7770 C.2   1995  TG11995     0.3173
     37  O10       -8.2030    9.8920   83.6070 O.2   1995  TG11995    -0.2501
     38  C33       -9.2920   11.9930   83.7370 C.3   1995  TG11995     0.1212
     39  O7        -4.8470   13.4970   87.6060 O.3   1995  TG11995    -0.4493
     40  C27       -5.1160   14.4590   88.6070 C.2   1995  TG11995     0.3169
     41  O8        -5.8910   14.3790   89.5630 O.2   1995  TG11995    -0.2501
     42  C28       -4.2850   15.6640   88.3190 C.3   1995  TG11995     0.1096
     43  C29       -3.1590   15.7850   89.3250 C.3   1995  TG11995     0.0116
     44  C30       -2.9610   17.2630   89.5110 C.3   1995  TG11995     0.0006
     45  O6        -5.2090    9.7570   87.9050 O.3   1995  TG11995    -0.2147
     46  O11       -2.7300   12.4570   89.2700 O.3   1995  TG11995    -0.2114
@<TRIPOS>BOND
     1    18    17    1
     2    17    16    1
     3    16    15    1
     4    15    14    1
     5    14    13    1
     6    24    23    1
     7    25    23    2
     8    25    26    1
     9    23    21    1
    10    13    12    1
    11    22    21    2
    12    21    20    1
    13    12    10    1
    14    11    10    2
    15    10     9    1
    16    20    19    1
    17     9     8    1
    18    19     8    1
    19    19    27    1
    20     8     7    1
    21    37    36    2
    22    38    36    1
    23    36    35    1
    24    35     6    1
    25    27    28    1
    26    27    29    2
    27    34     6    1
    28     7     6    1
    29     7    29    1
    30     6     5    1
    31    29    30    1
    32     5     4    1
    33    30    31    1
    34    30     3    1
    35    31    32    1
    36    39     4    1
    37    39    40    1
    38     4     3    1
    39     3    45    1
    40     3     2    1
    41    42    40    1
    42    42    43    1
    43    40    41    2
    44    32     2    1
    45    32    33    2
    46     2    46    1
    47     2     1    1
    48    43    44    1
