@<TRIPOS>MOLECULE
2c8m_LPA_A_1.pdb
 12 12 0 0 0
SMALL
GASTEIGER

@<TRIPOS>ATOM
      1  O1        -6.3890   -9.2000  -12.6040 O.co2 900  LPA900     -0.2457
      2  O2        -6.4710  -11.1910  -13.4730 O.co2 900  LPA900     -0.2457
      3  C1        -6.5190  -10.4400  -12.4830 C.2   900  LPA900      0.3649
      4  C2        -6.7150  -11.0750  -11.1160 C.3   900  LPA900      0.1141
      5  C3        -7.5950  -10.2140  -10.2010 C.3   900  LPA900      0.0118
      6  C4        -7.5820  -10.6820   -8.7390 C.3   900  LPA900      0.0015
      7  C5        -8.4560   -9.8180   -7.8130 C.3   900  LPA900      0.0117
      8  C6        -8.2530  -10.0810   -6.3080 C.3   900  LPA900      0.0588
      9  C7        -9.2540   -9.2220   -5.5200 C.3   900  LPA900      0.0242
     10  C8        -9.0180   -9.3110   -4.0250 C.3   900  LPA900      0.0696
     11  S8        -7.3240   -9.7810   -4.0420 S.3   900  LPA900     -0.0821
     12  S6        -6.6050   -9.7270   -5.7300 S.3   900  LPA900     -0.0830
@<TRIPOS>BOND
     1     2     3   ar
     2     1     3   ar
     3     3     4    1
     4     4     5    1
     5     5     6    1
     6     6     7    1
     7     7     8    1
     8     8    12    1
     9     8     9    1
    10    12    11    1
    11     9    10    1
    12    11    10    1
