@<TRIPOS>MOLECULE
2c8s_HEM_A_1.pdb
 43 50 0 0 0
SMALL
GASTEIGER

@<TRIPOS>ATOM
      1 FE         29.7500   -4.7740   -3.4650 Fe    1173  HEM1173     0.0000
      2  CHA       28.9450   -7.2890   -1.3210 C.2   1173  HEM1173     0.0000
      3  CHB       28.2770   -2.5080   -1.3670 C.2   1173  HEM1173     0.0000
      4  CHC       30.8240   -2.2790   -5.4710 C.2   1173  HEM1173     0.0000
      5  CHD       31.1500   -7.0780   -5.5920 C.2   1173  HEM1173     0.0000
      6  NA        28.8040   -4.8690   -1.7160 N.2   1173  HEM1173     0.0000
      7  C1A       28.5810   -5.9950   -0.9500 C.2   1173  HEM1173     0.0000
      8  C2A       27.9160   -5.6550    0.2760 C.2   1173  HEM1173     0.0000
      9  C3A       27.7170   -4.3180    0.2670 C.2   1173  HEM1173     0.0000
     10  C4A       28.2730   -3.8410   -0.9710 C.2   1173  HEM1173     0.0000
     11  CMA       27.0490   -3.4570    1.3320 C.3   1173  HEM1173     0.0000
     12  CAA       27.5210   -6.6560    1.3610 C.3   1173  HEM1173     0.0000
     13  CBA       26.0720   -7.1080    1.2390 C.3   1173  HEM1173     0.0000
     14  CGA       25.5580   -7.9230    2.4130 C.2   1173  HEM1173     0.0000
     15  O1A       26.0930   -7.8210    3.5210 O.co2 1173  HEM1173     0.0000
     16  O2A       24.6110   -8.6750    2.2460 O.co2 1173  HEM1173     0.0000
     17  NB        29.4620   -2.8210   -3.4960 N.ar  1173  HEM1173     0.0000
     18  C1B       28.8390   -2.0200   -2.5540 C.ar  1173  HEM1173     0.0000
     19  C2B       29.0300   -0.6340   -2.8160 C.ar  1173  HEM1173     0.0000
     20  C3B       29.8280   -0.5770   -3.9410 C.ar  1173  HEM1173     0.0000
     21  C4B       30.0650   -1.9230   -4.3470 C.ar  1173  HEM1173     0.0000
     22  CMB       28.4530    0.4900   -1.9570 C.3   1173  HEM1173     0.0000
     23  CAB       30.4030    0.6480   -4.6760 C.3   1173  HEM1173     0.0000
     24  CBB       31.0010    1.7900   -3.8590 C.3   1173  HEM1173     0.0000
     25  NC        30.7740   -4.6960   -5.1800 N.2   1173  HEM1173     0.0000
     26  C1C       31.1290   -3.5700   -5.8740 C.2   1173  HEM1173     0.0000
     27  C2C       31.8120   -3.8950   -7.0960 C.2   1173  HEM1173     0.0000
     28  C3C       31.9150   -5.2600   -7.1150 C.2   1173  HEM1173     0.0000
     29  C4C       31.2560   -5.7330   -5.9340 C.2   1173  HEM1173     0.0000
     30  CMC       32.3070   -2.8650   -8.1070 C.3   1173  HEM1173     0.0000
     31  CAC       32.7190   -6.1800   -8.0750 C.3   1173  HEM1173     0.0000
     32  CBC       34.1420   -5.8050   -8.4920 C.3   1173  HEM1173     0.0000
     33  ND        29.9910   -6.7800   -3.4680 N.ar  1173  HEM1173     0.0000
     34  C1D       30.5710   -7.5730   -4.4330 C.ar  1173  HEM1173     0.0000
     35  C2D       30.5350   -8.9690   -4.0760 C.ar  1173  HEM1173     0.0000
     36  C3D       29.9280   -9.0260   -2.8630 C.ar  1173  HEM1173     0.0000
     37  C4D       29.5910   -7.6660   -2.5010 C.ar  1173  HEM1173     0.0000
     38  CMD       31.0960  -10.1050   -4.9190 C.3   1173  HEM1173     0.0000
     39  CAD       29.7100  -10.2450   -1.9680 C.3   1173  HEM1173     0.0000
     40  CBD       30.8940  -10.4730   -1.0200 C.3   1173  HEM1173     0.0000
     41  CGD       30.6390  -11.3990    0.1690 C.2   1173  HEM1173     0.0000
     42  O1D       31.5250  -11.5640    1.0110 O.co2 1173  HEM1173     0.0000
     43  O2D       29.5570  -11.9790    0.2850 O.co2 1173  HEM1173     0.0000
@<TRIPOS>BOND
     1    32    31    1
     2    30    27    1
     3    31    28    1
     4    28    27    2
     5    28    29    1
     6    27    26    1
     7    29     5    1
     8    29    25    2
     9    26     4    2
    10    26    25    1
    11     5    34    2
    12     4    21    1
    13    25     1    1
    14    38    35    1
    15    23    20    1
    16    23    24    1
    17    34    35   ar
    18    34    33   ar
    19    21    20   ar
    20    21    17   ar
    21    35    36   ar
    22    20    19   ar
    23    17     1    1
    24    17    18   ar
    25    33     1    1
    26    33    37   ar
    27     1     6    1
    28    36    37   ar
    29    36    39    1
    30    19    18   ar
    31    19    22    1
    32    18     3    1
    33    37     2    2
    34    39    40    1
    35     6    10    1
    36     6     7    2
    37     3    10    2
    38     2     7    1
    39    40    41    1
    40    10     9    1
    41     7     8    1
    42    41    43   ar
    43    41    42   ar
    44     9     8    2
    45     9    11    1
    46     8    12    1
    47    13    12    1
    48    13    14    1
    49    16    14   ar
    50    14    15   ar
