@<TRIPOS>MOLECULE
2c8v_ATP_A_1.pdb
 31 33 0 0 0
SMALL
GASTEIGER

@<TRIPOS>ATOM
      1  PG        25.8900   11.7370    0.9020 P.3   5292  ATP5292     0.5373
      2  O1G       25.6250   11.1720   -0.4770 O.2   5292  ATP5292    -0.2221
      3  O2G       26.8890   10.8330    1.5990 O.3   5292  ATP5292    -0.1143
      4  O3G       24.6330   11.7670    1.7400 O.3   5292  ATP5292    -0.1143
      5  PB        25.8990   14.6390    0.6270 P.3   5292  ATP5292     0.2277
      6  O1B       24.9320   14.9580    1.7030 O.3   5292  ATP5292    -0.4368
      7  O2B       25.2080   14.5810   -0.7010 O.2   5292  ATP5292    -0.5168
      8  O3B       26.6620   13.2060    0.8620 O.3   5292  ATP5292    -0.2258
      9  PA        28.0810   16.1410    1.7290 P.3   5292  ATP5292     0.2189
     10  O1A       27.3600   16.8020    2.8470 O.3   5292  ATP5292    -0.4371
     11  O2A       28.8920   14.9720    2.1780 O.2   5292  ATP5292    -0.5170
     12  O3A       27.0790   15.7090    0.5200 O.3   5292  ATP5292    -0.2700
     13  O5'       29.0100   17.2270    1.0470 O.3   5292  ATP5292    -0.3112
     14  C5'       29.8400   16.8350   -0.0570 C.3   5292  ATP5292     0.1813
     15  C4'       31.3150   17.1210    0.1960 C.3   5292  ATP5292     0.1821
     16  O4'       31.7230   18.3170   -0.5370 O.3   5292  ATP5292    -0.3135
     17  C3'       31.7560   17.4040    1.6430 C.3   5292  ATP5292     0.2184
     18  O3'       33.0940   16.9360    1.8770 O.3   5292  ATP5292    -0.2174
     19  C2'       31.6030   18.9110    1.7460 C.3   5292  ATP5292     0.2570
     20  O2'       32.4860   19.5180    2.6780 O.3   5292  ATP5292    -0.2130
     21  C1'       31.9210   19.4040    0.3460 C.3   5292  ATP5292     0.3186
     22  N9        31.0840   20.5220   -0.0780 N.pl3 5292  ATP5292    -0.1439
     23  C8        29.7110   20.5740   -0.2650 C.3   5292  ATP5292     0.3377
     24  N7        29.2860   21.7390   -0.6630 N.2   5292  ATP5292    -0.2095
     25  C5        30.4440   22.5060   -0.7520 C.2   5292  ATP5292     0.2526
     26  C6        30.6610   23.8460   -1.1160 C.2   5292  ATP5292     0.4393
     27  N6        29.6700   24.6610   -1.4810 N.pl3 5292  ATP5292     0.2180
     28  N1        31.9460   24.3130   -1.1050 N.2   5292  ATP5292     0.0021
     29  C2        32.9380   23.4750   -0.7310 C.3   5292  ATP5292     0.5254
     30  N3        32.8450   22.1910   -0.3670 N.2   5292  ATP5292    -0.0055
     31  C4        31.5580   21.7640   -0.3920 C.2   5292  ATP5292     0.3518
@<TRIPOS>BOND
     1    27    26    1
     2    26    28    2
     3    26    25    1
     4    28    29    1
     5    25    24    2
     6    25    31    1
     7    29    30    1
     8     7     5    2
     9    24    23    1
    10    16    15    1
    11    16    21    1
    12     2     1    2
    13    31    30    2
    14    31    22    1
    15    23    22    1
    16    22    21    1
    17    14    15    1
    18    14    13    1
    19    15    17    1
    20    21    19    1
    21    12     5    1
    22    12     9    1
    23     5     8    1
    24     5     6    1
    25     8     1    1
    26     1     3    1
    27     1     4    1
    28    13     9    1
    29    17    19    1
    30    17    18    1
    31     9    11    2
    32     9    10    1
    33    19    20    1
