@<TRIPOS>MOLECULE
2c8x_C5M_B_1.pdb
 35 37 0 0 0
SMALL
GASTEIGER

@<TRIPOS>ATOM
      1  C1        -1.7230   19.9720   47.0770 C.3   1251  C5M1251     0.2525
      2  O2        -0.6950   20.0550   46.0720 O.3   1251  C5M1251    -0.4718
      3  C3         0.4300   19.4260   46.5170 C.ar  1251  C5M1251     0.1342
      4  C4         0.4830   18.8900   47.7980 C.ar  1251  C5M1251     0.0336
      5  C5         1.6100   18.2390   48.2690 C.ar  1251  C5M1251    -0.0005
      6  C6         1.5350   17.7120   49.6890 C.3   1251  C5M1251     0.0325
      7  C7         2.7190   18.0800   47.4230 C.ar  1251  C5M1251     0.1155
      8  C8         2.6510   18.6150   46.1220 C.ar  1251  C5M1251    -0.0046
      9  C9         3.8140   18.4690   45.1710 C.3   1251  C5M1251     0.0322
     10  C10        1.5170   19.2870   45.6730 C.ar  1251  C5M1251     0.0094
     11  C11        1.4470   19.8460   44.2680 C.3   1251  C5M1251     0.0339
     12  S12        4.2030   17.2300   47.9390 S.O2  1251  C5M1251     0.0763
     13  O13        4.0220   16.8710   49.3090 O.2   1251  C5M1251    -0.1516
     14  O14        4.5370   16.2980   46.9200 O.2   1251  C5M1251    -0.1516
     15  N15        5.4440   18.3200   47.9630 N.3   1251  C5M1251    -0.0751
     16  C16        5.3140   19.6270   48.6190 C.3   1251  C5M1251     0.1496
     17  C17        6.1020   19.6390   49.9370 C.3   1251  C5M1251     0.1874
     18  O18        7.2640   18.8160   49.7690 O.3   1251  C5M1251    -0.2200
     19  C19        6.5520   21.0670   50.2930 C.3   1251  C5M1251     0.1093
     20  C20        5.3820   22.0650   50.2140 C.3   1251  C5M1251     0.0464
     21  C21        4.1580   21.6180   50.9930 C.ar  1251  C5M1251    -0.0207
     22  C22        2.9040   21.6460   50.3780 C.ar  1251  C5M1251    -0.0042
     23  C23        1.7710   21.2450   51.0750 C.ar  1251  C5M1251    -0.0003
     24  C24        1.8740   20.8340   52.3910 C.ar  1251  C5M1251    -0.0000
     25  C25        3.1210   20.8140   53.0130 C.ar  1251  C5M1251    -0.0003
     26  C26        4.2610   21.2030   52.3170 C.ar  1251  C5M1251    -0.0042
     27  N27        7.5820   21.5040   49.3400 N.3   1251  C5M1251    -0.2117
     28  C28        8.5610   22.4730   49.9460 C.3   1251  C5M1251     0.1151
     29  C29        9.4930   22.8240   48.8190 C.ar  1251  C5M1251    -0.0040
     30  C30       10.5170   21.9390   48.4950 C.ar  1251  C5M1251    -0.0028
     31  C31       11.3730   22.2060   47.4180 C.ar  1251  C5M1251     0.0006
     32  C32       11.1660   23.3680   46.6650 C.ar  1251  C5M1251     0.0114
     33  C33       10.1310   24.2570   46.9740 C.ar  1251  C5M1251     0.0574
     34 CL34        9.9160   25.7210   46.0220 Cl    1251  C5M1251    -0.0823
     35  C35        9.2900   23.9830   48.0660 C.ar  1251  C5M1251     0.0085
@<TRIPOS>BOND
     1    11    10    1
     2     9     8    1
     3    10     8   ar
     4    10     3   ar
     5    34    33    1
     6     2     3    1
     7     2     1    1
     8     8     7   ar
     9     3     4   ar
    10    32    33   ar
    11    32    31   ar
    12    14    12    2
    13    33    35   ar
    14    31    30   ar
    15     7    12    1
    16     7     5   ar
    17     4     5   ar
    18    12    15    1
    19    12    13    2
    20    15    16    1
    21    35    29   ar
    22     5     6    1
    23    30    29   ar
    24    16    17    1
    25    29    28    1
    26    27    28    1
    27    27    19    1
    28    18    17    1
    29    17    19    1
    30    20    19    1
    31    20    21    1
    32    22    21   ar
    33    22    23   ar
    34    21    26   ar
    35    23    24   ar
    36    26    25   ar
    37    24    25   ar
