@<TRIPOS>MOLECULE
2c8y_C3M_B_1.pdb
 26 28 0 0 0
SMALL
GASTEIGER

@<TRIPOS>ATOM
      1  N1         7.8290   21.3060   51.8100 N.3   1252  C3M1252    -0.1298
      2  C2         6.5520   20.7070   51.4020 C.3   1252  C3M1252     0.1279
      3  C3         5.5980   21.8240   51.0070 C.3   1252  C3M1252     0.0480
      4  C4         4.1400   21.4720   51.1780 C.ar  1252  C3M1252    -0.0206
      5  C5         3.2480   21.7580   50.1590 C.ar  1252  C3M1252    -0.0042
      6  C6         1.9090   21.4360   50.3080 C.ar  1252  C3M1252    -0.0003
      7  C7         1.4470   20.8490   51.4720 C.ar  1252  C3M1252    -0.0000
      8  C8         2.3350   20.5700   52.4840 C.ar  1252  C3M1252    -0.0003
      9  C9         3.6700   20.8980   52.3560 C.ar  1252  C3M1252    -0.0042
     10  C10        6.8550   19.8610   50.1830 C.3   1252  C3M1252     0.1889
     11  O11        7.2100   20.6720   49.0570 O.3   1252  C3M1252    -0.2200
     12  C12        5.5920   19.1030   49.8010 C.3   1252  C3M1252     0.1497
     13  N13        6.0100   18.1070   48.8150 N.3   1252  C3M1252    -0.0750
     14  S14        4.8770   17.0970   48.1920 S.O2  1252  C3M1252     0.0769
     15  O15        5.5170   16.4420   47.1000 O.2   1252  C3M1252    -0.1516
     16  O16        4.3790   16.4480   49.3550 O.2   1252  C3M1252    -0.1516
     17  C17        3.5760   18.0140   47.4150 C.ar  1252  C3M1252     0.1236
     18  C18        3.8680   18.6480   46.1920 C.ar  1252  C3M1252     0.0200
     19  C19        2.9430   19.3900   45.4940 C.ar  1252  C3M1252     0.0014
     20  C20        1.6450   19.5130   46.0280 C.ar  1252  C3M1252     0.0001
     21  C21        0.6610   20.2400   45.3460 C.ar  1252  C3M1252     0.0000
     22  C22       -0.5900   20.3330   45.8960 C.ar  1252  C3M1252     0.0000
     23  C23       -0.9090   19.7170   47.1070 C.ar  1252  C3M1252     0.0000
     24  C24        0.0310   18.9980   47.7880 C.ar  1252  C3M1252     0.0000
     25  C25        1.3310   18.8720   47.2810 C.ar  1252  C3M1252     0.0013
     26  C26        2.3210   18.1160   47.9720 C.ar  1252  C3M1252     0.0200
@<TRIPOS>BOND
     1    21    22   ar
     2    21    20   ar
     3    19    20   ar
     4    19    18   ar
     5    22    23   ar
     6    20    25   ar
     7    18    17   ar
     8    15    14    2
     9    23    24   ar
    10    25    24   ar
    11    25    26   ar
    12    17    26   ar
    13    17    14    1
    14    14    13    1
    15    14    16    2
    16    13    12    1
    17    11    10    1
    18    12    10    1
    19     5     6   ar
    20     5     4   ar
    21    10     2    1
    22     6     7   ar
    23     3     4    1
    24     3     2    1
    25     4     9   ar
    26     2     1    1
    27     7     8   ar
    28     9     8   ar
