@<TRIPOS>MOLECULE
2c90_C1M_B_1.pdb
 17 18 0 0 0
SMALL
GASTEIGER

@<TRIPOS>ATOM
      1 CL1         9.9760   25.5610   46.4750 Cl    1250  C1M1250    -0.0835
      2  C2         9.9650   24.1570   47.5110 C.ar  1250  C1M1250     0.0411
      3  C3        10.8720   23.1340   47.2980 C.ar  1250  C1M1250    -0.0414
      4  C4        10.8860   22.0180   48.1340 C.ar  1250  C1M1250    -0.0348
      5  C5         9.9980   21.9220   49.2030 C.ar  1250  C1M1250     0.0689
      6  C6         9.0890   22.9600   49.4100 C.ar  1250  C1M1250    -0.0348
      7  C7         9.0740   24.0610   48.5720 C.ar  1250  C1M1250    -0.0414
      8  N8         9.9980   20.7760   50.0470 N.ar  1250  C1M1250    -0.2003
      9  C9         9.5390   19.5300   49.7640 C.ar  1250  C1M1250     0.1436
     10  N10        9.7150   18.7740   50.8170 N.ar  1250  C1M1250    -0.1165
     11  N11       10.2770   19.4440   51.7450 N.ar  1250  C1M1250    -0.0230
     12  N12       10.4720   20.6610   51.3670 N.ar  1250  C1M1250    -0.0392
     13  H3        11.5710   23.1990   46.4800 H     1250  C1M1250     0.0633
     14  H7         8.3730   24.8620   48.7540 H     1250  C1M1250     0.0633
     15  H4        11.5930   21.2230   47.9550 H     1250  C1M1250     0.0639
     16  H6         8.3850   22.9000   50.2260 H     1250  C1M1250     0.0639
     17  H9         9.0870   19.2210   48.8350 H     1250  C1M1250     0.1067
@<TRIPOS>BOND
     1     1     2    1
     2    13     3    1
     3     3     2   ar
     4     3     4   ar
     5     2     7   ar
     6    15     4    1
     7     4     5   ar
     8     7    14    1
     9     7     6   ar
    10    17     9    1
    11     5     6   ar
    12     5     8    1
    13     6    16    1
    14     9     8   ar
    15     9    10   ar
    16     8    12   ar
    17    10    11   ar
    18    12    11   ar
