@<TRIPOS>MOLECULE
2c91_NAP_A_1.pdb
 48 52 0 0 0
SMALL
GASTEIGER

@<TRIPOS>ATOM
      1  PA        13.6170   12.5290   13.8910 P.3   350  NAP350      0.2189
      2  O1A       13.4260   11.9180   12.5390 O.2   350  NAP350     -0.5170
      3  O2A       13.4580   14.0300   13.9540 O.3   350  NAP350     -0.4371
      4  O5B       14.9980   11.9830   14.4860 O.3   350  NAP350     -0.3112
      5  C5B       15.5130   12.7200   15.5320 C.3   350  NAP350      0.1813
      6  C4B       16.9840   12.5390   15.5720 C.3   350  NAP350      0.1820
      7  O4B       17.5600   13.3370   14.5810 O.3   350  NAP350     -0.3136
      8  C3B       17.5510   13.0440   16.9060 C.3   350  NAP350      0.2157
      9  O3B       17.7130   12.0500   17.8450 O.3   350  NAP350     -0.2175
     10  C2B       18.9200   13.5600   16.5220 C.3   350  NAP350      0.2314
     11  O2B       19.7800   12.4710   16.3710 O.3   350  NAP350     -0.2630
     12  C1B       18.6750   14.0930   15.1150 C.3   350  NAP350      0.3158
     13  N9A       18.3820   15.5530   15.1580 N.pl3 350  NAP350     -0.1439
     14  C8A       17.1550   16.1100   15.5060 C.3   350  NAP350      0.3377
     15  N7A       17.2140   17.4200   15.3860 N.2   350  NAP350     -0.2095
     16  C5A       18.4420   17.7500   14.9950 C.2   350  NAP350      0.2526
     17  C6A       19.0020   19.0030   14.7420 C.2   350  NAP350      0.4393
     18  N6A       18.2850   20.0930   14.8860 N.pl3 350  NAP350      0.2180
     19  N1A       20.3180   19.0660   14.3380 N.2   350  NAP350      0.0021
     20  C2A       21.0510   17.8950   14.1990 C.3   350  NAP350      0.5254
     21  N3A       20.4890   16.6600   14.4190 N.2   350  NAP350     -0.0055
     22  C4A       19.2000   16.5960   14.8330 C.2   350  NAP350      0.3518
     23  O3        12.5040   11.9050   14.8870 O.3   350  NAP350     -0.2703
     24  PN        12.5770   10.5410   15.7220 P.3   350  NAP350      0.2189
     25  O1N       13.4080   10.6950   16.8980 O.3   350  NAP350     -0.4371
     26  O2N       12.8670    9.4330   14.8420 O.2   350  NAP350     -0.5170
     27  O5D       11.0050   10.4350   16.0370 O.3   350  NAP350     -0.3112
     28  C5D       10.5490   11.2730   17.0610 C.3   350  NAP350      0.1813
     29  C4D        9.7590   10.6030   18.1580 C.3   350  NAP350      0.1799
     30  O4D        8.7780    9.7540   17.6190 O.3   350  NAP350     -0.3327
     31  C3D       10.5710    9.7390   19.1440 C.3   350  NAP350      0.2158
     32  O3D       11.2130   10.4860   20.1640 O.3   350  NAP350     -0.2175
     33  C2D        9.5190    8.7370   19.6090 C.3   350  NAP350      0.2309
     34  O2D        8.7690    9.3420   20.6550 O.3   350  NAP350     -0.2158
     35  C1D        8.6410    8.5220   18.3630 C.3   350  NAP350      0.2263
     36  N1N        8.9670    7.3440   17.5090 N.pl3 350  NAP350     -0.2787
     37  C2N        8.0890    6.2870   17.4560 C.3   350  NAP350      0.1244
     38  C3N        8.3990    5.1890   16.6430 C.2   350  NAP350      0.0544
     39  C7N        7.4250    4.0770   16.4990 C.2   350  NAP350      0.2818
     40  O7N        7.8400    2.7980   16.0970 O.2   350  NAP350     -0.2670
     41  N7N        6.1800    4.3780   16.7400 N.am  350  NAP350     -0.0839
     42  C4N        9.5690    5.1510   15.8760 C.2   350  NAP350      0.0033
     43  C5N       10.4450    6.2210   15.9700 C.2   350  NAP350      0.0157
     44  C6N       10.1360    7.2900   16.7860 C.2   350  NAP350      0.0633
     45  P2B       21.2610   12.2380   16.8520 P.3   350  NAP350      0.5328
     46  O1X       21.1550   10.9880   17.6760 O.3   350  NAP350     -0.1145
     47  O2X       22.1020   12.1420   15.6260 O.2   350  NAP350     -0.2224
     48  O3X       21.6940   13.4220   17.6530 O.3   350  NAP350     -0.1145
@<TRIPOS>BOND
     1     2     1    2
     2     1     3    1
     3     1     4    1
     4     1    23    1
     5    20    19    1
     6    20    21    1
     7    19    17    2
     8    21    22    2
     9     4     5    1
    10     7    12    1
    11     7     6    1
    12    17    18    1
    13    17    16    1
    14    22    16    1
    15    22    13    1
    16    26    24    2
    17    23    24    1
    18    16    15    2
    19    12    13    1
    20    12    10    1
    21    13    14    1
    22    15    14    1
    23     5     6    1
    24     6     8    1
    25    47    45    2
    26    24    27    1
    27    24    25    1
    28    42    43    1
    29    42    38    2
    30    43    44    2
    31    27    28    1
    32    40    39    2
    33    11    10    1
    34    11    45    1
    35    39    38    1
    36    39    41   am
    37    10     8    1
    38    38    37    1
    39    44    36    1
    40    45    48    1
    41    45    46    1
    42     8     9    1
    43    28    29    1
    44    37    36    1
    45    36    35    1
    46    30    29    1
    47    30    35    1
    48    29    31    1
    49    35    33    1
    50    31    33    1
    51    31    32    1
    52    33    34    1
