@<TRIPOS>MOLECULE
2c92_TP6_A_1.pdb
 31 32 0 0 0
SMALL
GASTEIGER

@<TRIPOS>ATOM
      1  O2P      -18.1910    3.9620   -1.2500 O.2   701  TP6701     -0.2114
      2  P        -18.4370    3.9900    0.2530 P.3   701  TP6701      0.5888
      3  O3P      -17.1510    3.9580    1.0510 O.3   701  TP6701     -0.1039
      4  O1P      -19.3770    5.0550    0.7340 O.3   701  TP6701     -0.1039
      5  O27      -19.1890    2.5880    0.4800 O.2   701  TP6701     -0.3966
      6  C19      -19.3670    2.1280    1.8460 C.2   701  TP6701      0.1832
      7  C18      -19.3620    0.8180    2.0640 C.2   701  TP6701      0.0403
      8  C17      -19.4970    0.3650    3.4420 C.2   701  TP6701      0.0004
      9  C16      -20.6690    0.2970    4.0640 C.2   701  TP6701     -0.0045
     10  C15      -21.9780    0.6070    3.3900 C.3   701  TP6701      0.1229
     11  N5       -22.9560    0.3330    4.4390 N.am  701  TP6701     -0.2396
     12  C9       -23.3910   -0.8410    4.9170 C.3   701  TP6701      0.2654
     13  C4       -23.0860   -2.2390    4.5680 C.1   701  TP6701      0.2198
     14  O2       -22.2870   -2.5260    3.6620 O.2   701  TP6701     -0.2112
     15  N3       -23.7270   -3.2060    5.2660 N.2   701  TP6701     -0.2349
     16  C6       -23.6040    1.2120    5.1890 C.2   701  TP6701      0.3140
     17  O4       -23.4790    2.4780    5.0610 O.2   701  TP6701     -0.2519
     18  N7       -24.4150    0.7220    6.1220 N.am  701  TP6701     -0.2159
     19  C8       -24.3540   -0.5950    6.0000 C.2   701  TP6701      0.2182
     20  N1       -24.9270   -1.6560    6.6150 N.2   701  TP6701     -0.2938
     21  C2       -24.6070   -2.9160    6.2650 C.1   701  TP6701      0.3663
     22  O1       -25.1580   -3.8500    6.8580 O.2   701  TP6701     -0.1745
     23  C10      -25.2130    1.5690    6.9860 C.3   701  TP6701      0.1375
     24  C11      -25.6670    0.9650    8.2910 C.3   701  TP6701      0.2049
     25  O19      -24.8620   -0.0700    8.9060 O.3   701  TP6701     -0.2185
     26  C12      -26.3120    1.9450    9.2510 C.3   701  TP6701      0.2166
     27  O21      -27.6320    1.5470    8.9280 O.3   701  TP6701     -0.2175
     28  C13      -26.1580    3.4500    9.0130 C.3   701  TP6701      0.2175
     29  O23      -24.8150    3.8680    9.3060 O.3   701  TP6701     -0.2175
     30  C14      -27.0850    4.2170    9.9590 C.3   701  TP6701      0.2175
     31  O26      -26.8070    3.8260   11.3150 O.3   701  TP6701     -0.2175
@<TRIPOS>BOND
     1     1     2    2
     2     2     5    1
     3     2     4    1
     4     2     3    1
     5     5     6    1
     6     6     7    2
     7     7     8    1
     8    10     9    1
     9    10    11    1
    10     8     9    2
    11    14    13    2
    12    11    12    1
    13    11    16   am
    14    13    12    1
    15    13    15    2
    16    12    19    1
    17    17    16    2
    18    16    18   am
    19    15    21    2
    20    19    18    1
    21    19    20    2
    22    18    23    1
    23    21    20    2
    24    21    22    2
    25    23    24    1
    26    24    25    1
    27    24    26    1
    28    27    26    1
    29    28    26    1
    30    28    29    1
    31    28    30    1
    32    30    31    1
