@<TRIPOS>MOLECULE
2c93_C4M_B_1.pdb
 27 28 0 0 0
SMALL
GASTEIGER

@<TRIPOS>ATOM
      1  C1        -1.8330   20.0490   47.2240 C.3   1251  C4M1251     0.2525
      2  O2        -0.8290   20.0480   46.1850 O.3   1251  C4M1251    -0.4718
      3  C3         0.3370   19.4530   46.5920 C.ar  1251  C4M1251     0.1342
      4  C4         0.4510   18.9580   47.8750 C.ar  1251  C4M1251     0.0336
      5  C5         1.6070   18.3380   48.3180 C.ar  1251  C4M1251    -0.0005
      6  C6         1.5880   17.8430   49.7510 C.3   1251  C4M1251     0.0325
      7  C7         2.6950   18.1840   47.4680 C.ar  1251  C4M1251     0.1155
      8  C8         2.5960   18.6820   46.1640 C.ar  1251  C4M1251    -0.0046
      9  C9         3.7550   18.5470   45.1910 C.3   1251  C4M1251     0.0322
     10  C10        1.4220   19.3060   45.7260 C.ar  1251  C4M1251     0.0094
     11  C11        1.3340   19.8280   44.3090 C.3   1251  C4M1251     0.0339
     12  S12        4.1770   17.3780   48.0280 S.O2  1251  C4M1251     0.0763
     13  O13        3.8650   16.8310   49.3140 O.2   1251  C4M1251    -0.1516
     14  O14        4.6200   16.5880   46.9410 O.2   1251  C4M1251    -0.1516
     15  N15        5.3310   18.5010   48.3520 N.3   1251  C4M1251    -0.0750
     16  C16        5.1460   19.4700   49.4370 C.3   1251  C4M1251     0.1497
     17  C17        6.5320   20.0000   49.8430 C.3   1251  C4M1251     0.1889
     18  O18        7.0700   20.8400   48.8080 O.3   1251  C4M1251    -0.2200
     19  C19        6.4260   20.7730   51.1530 C.3   1251  C4M1251     0.1279
     20  N20        7.7580   21.2450   51.5190 N.3   1251  C4M1251    -0.1298
     21  C21        5.5150   21.9950   50.9950 C.3   1251  C4M1251     0.0480
     22  C22        4.0580   21.6780   51.2780 C.ar  1251  C4M1251    -0.0206
     23  C23        3.0770   22.0770   50.3660 C.ar  1251  C4M1251    -0.0042
     24  C24        1.7380   21.8160   50.5950 C.ar  1251  C4M1251    -0.0003
     25  C25        1.3630   21.1550   51.7520 C.ar  1251  C4M1251    -0.0000
     26  C26        2.3290   20.7500   52.6610 C.ar  1251  C4M1251    -0.0003
     27  C27        3.6780   21.0130   52.4340 C.ar  1251  C4M1251    -0.0042
@<TRIPOS>BOND
     1    11    10    1
     2     9     8    1
     3    10     8   ar
     4    10     3   ar
     5     8     7   ar
     6     2     3    1
     7     2     1    1
     8     3     4   ar
     9    14    12    2
    10     7    12    1
    11     7     5   ar
    12     4     5   ar
    13    12    15    1
    14    12    13    2
    15     5     6    1
    16    15    16    1
    17    18    17    1
    18    16    17    1
    19    17    19    1
    20    23    24   ar
    21    23    22   ar
    22    24    25   ar
    23    21    19    1
    24    21    22    1
    25    19    20    1
    26    22    27   ar
    27    25    26   ar
    28    27    26   ar
