@<TRIPOS>MOLECULE
2c94_TSF_A_1.pdb
 32 33 0 0 0
SMALL
GASTEIGER

@<TRIPOS>ATOM
      1  O2P       47.2760    3.5220   -1.4210 O.2   701  TSF701     -0.4546
      2  P         47.2250    3.6840    0.0730 P.3   701  TSF701      0.1787
      3  O3P       48.5930    3.6690    0.7200 O.3   701  TSF701     -0.3536
      4  O1P       46.3210    4.8010    0.5490 O.3   701  TSF701     -0.3536
      5  C19       46.4410    2.1600    0.6650 C.3   701  TSF701      0.3064
      6  F1        45.1980    2.1080    0.2250 F     701  TSF701     -0.1968
      7  F2        47.1280    1.1390    0.1860 F     701  TSF701     -0.1968
      8  C18       46.4300    2.1160    2.1900 C.3   701  TSF701      0.0739
      9  C17       46.4380    0.6850    2.7280 C.3   701  TSF701      0.0079
     10  C16       45.4590    0.5340    3.8870 C.3   701  TSF701      0.0218
     11  C15       44.0430    0.6770    3.3510 C.3   701  TSF701      0.0964
     12  N5        43.0900    0.4180    4.4260 N.am  701  TSF701     -0.2438
     13  C9        42.6070   -0.7460    4.8740 C.3   701  TSF701      0.2651
     14  C4        42.8660   -2.1430    4.4590 C.1   701  TSF701      0.2198
     15  O2        43.6580   -2.4280    3.5310 O.2   701  TSF701     -0.2112
     16  N3        42.1900   -3.0890    5.1320 N.2   701  TSF701     -0.2349
     17  C6        42.4790    1.3160    5.2040 C.2   701  TSF701      0.3137
     18  O4        42.6650    2.5850    5.0870 O.2   701  TSF701     -0.2519
     19  N7        41.6320    0.8430    6.1190 N.am  701  TSF701     -0.2159
     20  C8        41.6550   -0.4910    5.9700 C.2   701  TSF701      0.2182
     21  N1        41.0700   -1.5420    6.5470 N.2   701  TSF701     -0.2938
     22  C2        41.3310   -2.7950    6.1430 C.1   701  TSF701      0.3663
     23  O1        40.7380   -3.7180    6.7320 O.2   701  TSF701     -0.1745
     24  C10       40.8930    1.7060    7.0310 C.3   701  TSF701      0.1375
     25  C11       40.2270    1.0250    8.2130 C.3   701  TSF701      0.2049
     26  O19       41.0720    0.0980    8.9140 O.3   701  TSF701     -0.2185
     27  C12       39.5550    2.0120    9.1620 C.3   701  TSF701      0.2166
     28  O21       38.1710    1.7020    8.9690 O.3   701  TSF701     -0.2175
     29  C13       39.7630    3.5190    8.9130 C.3   701  TSF701      0.2175
     30  O23       41.1230    3.9190    9.1400 O.3   701  TSF701     -0.2175
     31  C14       38.8720    4.3650    9.8230 C.3   701  TSF701      0.2175
     32  O26       39.0540    3.9240   11.1800 O.3   701  TSF701     -0.2175
@<TRIPOS>BOND
     1     1     2    2
     2     2     4    1
     3     2     5    1
     4     2     3    1
     5     7     5    1
     6     6     5    1
     7     5     8    1
     8     8     9    1
     9     9    10    1
    10    11    10    1
    11    11    12    1
    12    15    14    2
    13    12    13    1
    14    12    17   am
    15    14    13    1
    16    14    16    2
    17    13    20    1
    18    18    17    2
    19    16    22    2
    20    17    19   am
    21    20    19    1
    22    20    21    2
    23    19    24    1
    24    22    21    2
    25    22    23    2
    26    24    25    1
    27    25    26    1
    28    25    27    1
    29    29    30    1
    30    29    27    1
    31    29    31    1
    32    28    27    1
    33    31    32    1
