@<TRIPOS>MOLECULE
2c96_ATP_A_1.pdb
 31 33 0 0 0
SMALL
GASTEIGER

@<TRIPOS>ATOM
      1  PG        21.6990   21.9480    1.9590 P.3   962  ATP962      0.5373
      2  O1G       22.1870   20.5710    2.3580 O.3   962  ATP962     -0.1143
      3  O2G       21.1470   21.7800    0.4870 O.2   962  ATP962     -0.2221
      4  O3G       20.6740   22.4800    2.8950 O.3   962  ATP962     -0.1143
      5  PB        24.3850   22.8720    1.5810 P.3   962  ATP962      0.2277
      6  O1B       24.7360   21.8000    0.5860 O.2   962  ATP962     -0.5168
      7  O2B       25.0660   22.7030    2.9350 O.3   962  ATP962     -0.4368
      8  O3B       22.8900   23.0840    1.8040 O.3   962  ATP962     -0.2258
      9  PA        25.0580   24.6760   -0.5620 P.3   962  ATP962      0.2189
     10  O1A       26.3590   24.1640   -1.0510 O.3   962  ATP962     -0.4371
     11  O2A       23.9010   24.1530   -1.2270 O.2   962  ATP962     -0.5170
     12  O3A       24.9690   24.2810    1.0350 O.3   962  ATP962     -0.2700
     13  O5'       25.1330   26.2550   -0.2720 O.3   962  ATP962     -0.3112
     14  C5'       23.8880   26.8860    0.0440 C.3   962  ATP962      0.1813
     15  C4'       23.8170   28.3090   -0.4590 C.3   962  ATP962      0.1821
     16  O4'       24.7620   29.1320    0.1060 O.3   962  ATP962     -0.3135
     17  C3'       24.1730   28.3910   -1.9120 C.3   962  ATP962      0.2184
     18  O3'       23.5730   29.5990   -2.3940 O.3   962  ATP962     -0.2174
     19  C2'       25.6350   28.7330   -1.9310 C.3   962  ATP962      0.2570
     20  O2'       26.0000   29.3940   -3.1570 O.3   962  ATP962     -0.2130
     21  C1'       25.8050   29.5530   -0.6870 C.3   962  ATP962      0.3186
     22  N9        27.0970   29.3560   -0.0630 N.pl3 962  ATP962     -0.1439
     23  C8        27.5120   28.2910    0.7290 C.3   962  ATP962      0.3377
     24  N7        28.7800   28.4820    1.0810 N.2   962  ATP962     -0.2095
     25  C5        29.2010   29.6700    0.5680 C.2   962  ATP962      0.2526
     26  C6        30.4160   30.2900    0.5900 C.2   962  ATP962      0.4393
     27  N6        31.4730   29.8910    1.3050 N.pl3 962  ATP962      0.2180
     28  N1        30.5130   31.4620   -0.1860 N.2   962  ATP962      0.0021
     29  C2        29.4260   31.9840   -0.8380 C.3   962  ATP962      0.5254
     30  N3        28.2420   31.3120   -0.9130 N.2   962  ATP962     -0.0055
     31  C4        28.1750   30.1640   -0.2330 C.2   962  ATP962      0.3518
@<TRIPOS>BOND
     1    20    19    1
     2    18    17    1
     3    19    17    1
     4    19    21    1
     5    17    15    1
     6    11     9    2
     7    10     9    1
     8    30    29    1
     9    30    31    2
    10    29    28    1
    11    21    22    1
    12    21    16    1
    13     9    13    1
    14     9    12    1
    15    15    14    1
    16    15    16    1
    17    13    14    1
    18    31    22    1
    19    31    25    1
    20    28    26    2
    21    22    23    1
    22     3     1    2
    23    25    26    1
    24    25    24    2
    25     6     5    2
    26    26    27    1
    27    23    24    1
    28    12     5    1
    29     5     8    1
    30     5     7    1
    31     8     1    1
    32     1     2    1
    33     1     4    1
