@<TRIPOS>MOLECULE
2c97_JCL_A_1.pdb
 18 18 0 0 0
SMALL
GASTEIGER

@<TRIPOS>ATOM
      1  N3       -24.0530   -0.7470    6.6790 N.2   701  JCL701     -0.2366
      2  N1       -23.5450   -2.5420    5.2400 N.2   701  JCL701     -0.2996
      3  C6       -22.8090   -1.7380    4.4860 C.2   701  JCL701      0.1975
      4 CL        -22.0600   -2.4610    3.0870 Cl    701  JCL701     -0.0504
      5  C5       -22.6120   -0.3030    4.7730 C.3   701  JCL701      0.1831
      6  C7       -21.8080    0.6350    3.8890 C.3   701  JCL701      0.0260
      7  C2       -24.1540   -2.0540    6.3170 C.1   701  JCL701      0.3657
      8  C4       -23.3310    0.1700    5.9800 C.1   701  JCL701      0.2001
      9  O1       -24.8160   -2.8710    6.9850 O.2   701  JCL701     -0.1745
     10  O2       -23.2490    1.3840    6.3310 O.2   701  JCL701     -0.2129
     11  C8       -20.3480    0.2740    3.5930 C.3   701  JCL701      0.0042
     12  C9       -19.6430    1.5650    3.1770 C.3   701  JCL701      0.0327
     13  C10      -19.3620    1.6740    1.7060 C.3   701  JCL701      0.1538
     14  O27      -19.7170    2.8580    0.9330 O.3   701  JCL701     -0.2703
     15  P        -18.7350    4.1070    0.5960 P.3   701  JCL701      0.5326
     16  O1P      -19.6540    5.2710    0.9050 O.3   701  JCL701     -0.1145
     17  O2P      -17.5600    3.9090    1.5270 O.3   701  JCL701     -0.1145
     18  O3P      -18.3970    4.0610   -0.8760 O.2   701  JCL701     -0.2224
@<TRIPOS>BOND
     1    18    15    2
     2    15    16    1
     3    15    14    1
     4    15    17    1
     5    14    13    1
     6    13    12    1
     7     4     3    1
     8    12    11    1
     9    11     6    1
    10     6     5    1
    11     3     5    1
    12     3     2    2
    13     5     8    1
    14     2     7    2
    15     8    10    2
    16     8     1    2
    17     7     1    2
    18     7     9    2
