@<TRIPOS>MOLECULE
2c98_ADP_A_1.pdb
 27 29 0 0 0
SMALL
GASTEIGER

@<TRIPOS>ATOM
      1  PB        32.2270   -9.4680   -2.3460 P.3   400  ADP400      0.5373
      2  O1B       31.6300   -8.0840   -1.9940 O.3   400  ADP400     -0.1143
      3  O2B       31.3210  -10.3470   -3.1510 O.2   400  ADP400     -0.2221
      4  O3B       32.7880  -10.1530   -1.1970 O.3   400  ADP400     -0.1143
      5  PA        34.2030   -9.5110   -4.4770 P.3   400  ADP400      0.2231
      6  O1A       33.5700   -8.8420   -5.5690 O.2   400  ADP400     -0.5169
      7  O2A       34.3190  -10.9880   -4.5700 O.3   400  ADP400     -0.4370
      8  O3A       33.3380   -8.9440   -3.3070 O.3   400  ADP400     -0.2261
      9  O5'       35.6260   -8.8730   -4.0450 O.3   400  ADP400     -0.3111
     10  C5'       35.6870   -7.4990   -3.7540 C.3   400  ADP400      0.1813
     11  C4'       36.9310   -6.9490   -4.4310 C.3   400  ADP400      0.1821
     12  O4'       38.0410   -7.4810   -3.7740 O.3   400  ADP400     -0.3135
     13  C3'       37.0870   -7.3970   -5.8850 C.3   400  ADP400      0.2184
     14  O3'       37.6640   -6.3100   -6.5860 O.3   400  ADP400     -0.2174
     15  C2'       38.0660   -8.5400   -5.8400 C.3   400  ADP400      0.2570
     16  O2'       38.9400   -8.6630   -6.9380 O.3   400  ADP400     -0.2130
     17  C1'       38.8920   -8.1870   -4.6380 C.3   400  ADP400      0.3186
     18  N9        39.4330   -9.3550   -3.9370 N.pl3 400  ADP400     -0.1439
     19  C8        38.7400  -10.1810   -3.0770 C.3   400  ADP400      0.3377
     20  N7        39.5760  -11.1400   -2.6140 N.2   400  ADP400     -0.2095
     21  C5        40.8180  -10.9500   -3.1620 C.2   400  ADP400      0.2526
     22  C6        42.0310  -11.6160   -3.0240 C.2   400  ADP400      0.4393
     23  N6        42.2320  -12.6270   -2.1930 N.pl3 400  ADP400      0.2180
     24  N1        43.1080  -11.1210   -3.7130 N.2   400  ADP400      0.0021
     25  C2        43.0070  -10.0490   -4.5490 C.3   400  ADP400      0.5254
     26  N3        41.8250   -9.3640   -4.6790 N.2   400  ADP400     -0.0055
     27  C4        40.7360   -9.8220   -3.9920 C.2   400  ADP400      0.3518
@<TRIPOS>BOND
     1    16    15    1
     2    14    13    1
     3    13    15    1
     4    13    11    1
     5    15    17    1
     6     6     5    2
     7    26    25    1
     8    26    27    2
     9    17    18    1
    10    17    12    1
    11     7     5    1
    12    25    24    1
    13     5     9    1
    14     5     8    1
    15    11    12    1
    16    11    10    1
    17     9    10    1
    18    27    18    1
    19    27    21    1
    20    18    19    1
    21    24    22    2
    22     8     1    1
    23    21    22    1
    24    21    20    2
    25     3     1    2
    26    19    20    1
    27    22    23    1
    28     1     2    1
    29     1     4    1
