@<TRIPOS>MOLECULE
2c99_ANP_A_1.pdb
 31 33 0 0 0
SMALL
GASTEIGER

@<TRIPOS>ATOM
      1  PG        29.7570   -7.6200   -2.2390 P.3   303  ANP303      0.4884
      2  O1G       28.7560   -8.8770   -2.0350 O.3   303  ANP303     -0.1240
      3  O2G       29.3680   -6.4810   -1.2360 O.3   303  ANP303     -0.1240
      4  O3G       29.4670   -6.9850   -3.7210 O.2   303  ANP303     -0.2331
      5  PB        32.0790   -9.6550   -2.4390 P.3   303  ANP303      0.4669
      6  O1B       32.3280  -10.3680   -1.0800 O.3   303  ANP303     -0.1253
      7  O2B       31.1780  -10.4730   -3.4500 O.2   303  ANP303     -0.2351
      8  N3B       31.4660   -8.0650   -2.1180 N.3   303  ANP303     -0.0163
      9  PA        33.9680   -9.4090   -4.5520 P.3   303  ANP303      0.2220
     10  O1A       34.2360  -10.8470   -5.1700 O.3   303  ANP303     -0.4370
     11  O2A       32.9300   -8.6190   -5.4010 O.2   303  ANP303     -0.5170
     12  O3A       33.5390   -9.4350   -2.9880 O.3   303  ANP303     -0.2360
     13  O5'       35.4090   -8.6850   -4.3300 O.3   303  ANP303     -0.3111
     14  C5'       35.3810   -7.2560   -4.0450 C.3   303  ANP303      0.1813
     15  C4'       36.6040   -6.8520   -4.7200 C.3   303  ANP303      0.1821
     16  O4'       37.7370   -7.0640   -4.0290 O.3   303  ANP303     -0.3135
     17  C3'       36.8280   -6.9720   -6.1850 C.3   303  ANP303      0.2184
     18  O3'       37.4530   -5.7900   -6.6740 O.3   303  ANP303     -0.2174
     19  C2'       37.9760   -7.8750   -6.2210 C.3   303  ANP303      0.2570
     20  O2'       38.4850   -8.4330   -7.4080 O.3   303  ANP303     -0.2130
     21  C1'       38.6370   -7.8250   -4.8760 C.3   303  ANP303      0.3186
     22  N9        39.0940   -9.0600   -4.2270 N.pl3 303  ANP303     -0.1439
     23  C8        38.3840   -9.8880   -3.4100 C.3   303  ANP303      0.3377
     24  N7        39.1850  -10.9230   -2.9370 N.2   303  ANP303     -0.2095
     25  C5        40.4290  -10.7360   -3.4190 C.2   303  ANP303      0.2526
     26  C6        41.7640  -11.3880   -3.3410 C.2   303  ANP303      0.4393
     27  N6        41.9360  -12.5050   -2.5770 N.pl3 303  ANP303      0.2180
     28  N1        42.7920  -10.8310   -4.0340 N.2   303  ANP303      0.0021
     29  C2        42.6650   -9.7080   -4.7910 C.3   303  ANP303      0.5254
     30  N3        41.5040   -9.0310   -4.9350 N.2   303  ANP303     -0.0055
     31  C4        40.3410   -9.5400   -4.2450 C.2   303  ANP303      0.3518
@<TRIPOS>BOND
     1    20    19    1
     2    18    17    1
     3    19    17    1
     4    19    21    1
     5    17    15    1
     6    11     9    2
     7    10     9    1
     8    30    29    1
     9    30    31    2
    10    21    22    1
    11    21    16    1
    12    29    28    1
    13    15    14    1
    14    15    16    1
    15     9    13    1
    16     9    12    1
    17    13    14    1
    18    31    22    1
    19    31    25    1
    20    22    23    1
    21    28    26    2
    22     4     1    2
    23     7     5    2
    24    25    26    1
    25    25    24    2
    26    23    24    1
    27    26    27    1
    28    12     5    1
    29     5     8    1
    30     5     6    1
    31     1     8    1
    32     1     2    1
    33     1     3    1
