@<TRIPOS>MOLECULE
2c9b_PUG_A_1.pdb
 21 22 0 0 0
SMALL
GASTEIGER

@<TRIPOS>ATOM
      1  O1       -19.5360   -2.4110    4.9140 O.2   701  PUG701     -0.1744
      2  C2       -19.7090   -1.7590    3.8630 C.1   701  PUG701      0.3669
      3  N3       -19.9330   -2.4290    2.7120 N.2   701  PUG701     -0.2300
      4  C4       -20.1210   -1.7670    1.5520 C.1   701  PUG701      0.2524
      5  O2       -20.3290   -2.4070    0.4980 O.2   701  PUG701     -0.2057
      6  N1       -19.6720   -0.4020    3.8990 N.2   701  PUG701     -0.2880
      7  C8       -19.8500    0.3630    2.7900 C.2   701  PUG701      0.2556
      8  C9       -20.0810   -0.2770    1.5660 C.2   701  PUG701      0.2850
      9  N5       -20.2270    0.6640    0.6050 N.2   701  PUG701     -0.3037
     10  N7       -19.8460    1.6950    2.5800 N.am  701  PUG701     -0.1741
     11  C6       -20.0810    1.8210    1.2730 C.1   701  PUG701      0.2752
     12  O4       -20.1590    2.9660    0.6830 O.2   701  PUG701     -0.1925
     13  C10      -19.6610    2.7980    3.5360 C.3   701  PUG701      0.1470
     14  C11      -18.5680    2.5670    4.5840 C.3   701  PUG701      0.2057
     15  O19      -17.4110    1.9730    3.9820 O.3   701  PUG701     -0.2184
     16  C12      -18.1550    3.8290    5.3560 C.3   701  PUG701      0.2166
     17  O21      -18.9030    3.8660    6.5810 O.3   701  PUG701     -0.2175
     18  C13      -18.3300    5.1530    4.5960 C.3   701  PUG701      0.2175
     19  O23      -17.4490    5.2170    3.4690 O.3   701  PUG701     -0.2175
     20  C14      -18.0790    6.3720    5.4840 C.3   701  PUG701      0.2175
     21  O26      -16.7020    6.4600    5.8780 O.3   701  PUG701     -0.2175
@<TRIPOS>BOND
     1     5     4    2
     2     9    11    2
     3     9     8    2
     4    12    11    2
     5    11    10   am
     6     4     8    1
     7     4     3    2
     8     8     7    1
     9    10     7    1
    10    10    13    1
    11     3     2    2
    12     7     6    2
    13    19    18    1
    14    13    14    1
    15     2     6    2
    16     2     1    2
    17    15    14    1
    18    14    16    1
    19    18    16    1
    20    18    20    1
    21    16    17    1
    22    20    21    1
