@<TRIPOS>MOLECULE
2c9c_ATP_A_1.pdb
 31 33 0 0 0
SMALL
GASTEIGER

@<TRIPOS>ATOM
      1  PG        21.4410   22.3630    3.2010 P.3   400  ATP400      0.5373
      2  O1G       21.5890   20.8510    3.0200 O.3   400  ATP400     -0.1143
      3  O2G       21.1320   23.0110    1.7950 O.2   400  ATP400     -0.2221
      4  O3G       20.5000   22.7300    4.2650 O.3   400  ATP400     -0.1143
      5  PB        24.3390   22.9170    3.4020 P.3   400  ATP400      0.2277
      6  O1B       24.6490   22.1470    2.1410 O.2   400  ATP400     -0.5168
      7  O2B       24.9190   22.5420    4.7600 O.3   400  ATP400     -0.4368
      8  O3B       22.8080   23.1310    3.6800 O.3   400  ATP400     -0.2258
      9  PA        24.7950   24.9790    1.4660 P.3   400  ATP400      0.2189
     10  O1A       26.0040   24.4240    0.6520 O.2   400  ATP400     -0.5170
     11  O2A       23.4210   24.6220    0.7880 O.3   400  ATP400     -0.4371
     12  O3A       24.7610   24.4410    3.0130 O.3   400  ATP400     -0.2700
     13  O5'       24.9540   26.5590    1.8130 O.3   400  ATP400     -0.3112
     14  C5'       23.8520   27.3280    2.3000 C.3   400  ATP400      0.1813
     15  C4'       23.7180   28.6740    1.5980 C.3   400  ATP400      0.1821
     16  O4'       24.7380   29.5450    2.0720 O.3   400  ATP400     -0.3135
     17  C3'       24.0220   28.6830    0.1120 C.3   400  ATP400      0.2184
     18  O3'       23.3550   29.8260   -0.3760 O.3   400  ATP400     -0.2174
     19  C2'       25.5330   28.8730   -0.0510 C.3   400  ATP400      0.2570
     20  O2'       25.9800   29.5170   -1.2480 O.3   400  ATP400     -0.2130
     21  C1'       25.8110   29.7560    1.1420 C.3   400  ATP400      0.3186
     22  N9        27.1150   29.5210    1.8520 N.pl3 400  ATP400     -0.1439
     23  C8        27.3970   28.5750    2.7940 C.3   400  ATP400      0.3377
     24  N7        28.6430   28.7780    3.2350 N.2   400  ATP400     -0.2095
     25  C5        29.1860   29.8310    2.6010 C.2   400  ATP400      0.2526
     26  C6        30.4690   30.4110    2.7280 C.2   400  ATP400      0.4393
     27  N6        31.4020   29.9070    3.5940 N.pl3 400  ATP400      0.2180
     28  N1        30.6870   31.5300    1.9330 N.2   400  ATP400      0.0021
     29  C2        29.7110   32.0150    1.0540 C.3   400  ATP400      0.5254
     30  N3        28.4250   31.4370    0.9110 N.2   400  ATP400     -0.0055
     31  C4        28.2070   30.3260    1.7280 C.2   400  ATP400      0.3518
@<TRIPOS>BOND
     1    20    19    1
     2    18    17    1
     3    19    17    1
     4    19    21    1
     5    17    15    1
     6    10     9    2
     7    11     9    1
     8    30    29    1
     9    30    31    2
    10    29    28    1
    11    21    22    1
    12    21    16    1
    13     9    13    1
    14     9    12    1
    15    15    16    1
    16    15    14    1
    17    31    22    1
    18    31    25    1
    19     3     1    2
    20    13    14    1
    21    22    23    1
    22    28    26    2
    23     6     5    2
    24    25    26    1
    25    25    24    2
    26    26    27    1
    27    23    24    1
    28    12     5    1
    29     2     1    1
    30     1     8    1
    31     1     4    1
    32     5     8    1
    33     5     7    1
