@<TRIPOS>MOLECULE
2c9d_PHR_A_1.pdb
 32 33 0 0 0
SMALL
GASTEIGER

@<TRIPOS>ATOM
      1  O2P      -17.8040    7.7130  -34.2270 O.2   791  PHR791     -0.2224
      2  P        -16.5950    7.3460  -33.3970 P.3   791  PHR791      0.5326
      3  O3P      -16.6030    5.9250  -32.8880 O.3   791  PHR791     -0.1145
      4  O1P      -15.2780    7.7820  -33.9920 O.3   791  PHR791     -0.1145
      5  O27      -16.7040    8.2750  -32.0860 O.3   791  PHR791     -0.2703
      6  C20      -16.6050    7.7380  -30.7720 C.3   791  PHR791      0.1538
      7  C19      -18.0110    7.3970  -30.2900 C.3   791  PHR791      0.0327
      8  C18      -17.9820    6.6310  -28.9710 C.3   791  PHR791      0.0026
      9  C17      -17.6860    7.5540  -27.7950 C.3   791  PHR791      0.0018
     10  C16      -18.9340    8.3030  -27.3520 C.3   791  PHR791      0.0216
     11  C15      -18.7160    9.8100  -27.4410 C.3   791  PHR791      0.0964
     12  N5       -18.1800   10.3420  -26.1830 N.am  791  PHR791     -0.2438
     13  C9       -18.7700   10.4850  -24.9850 C.3   791  PHR791      0.2651
     14  C4       -20.1400   10.1510  -24.5260 C.1   791  PHR791      0.2198
     15  O2       -20.9920    9.6490  -25.2890 O.2   791  PHR791     -0.2112
     16  N3       -20.4320   10.4240  -23.2320 N.2   791  PHR791     -0.2349
     17  C6       -16.9500   10.8250  -25.9620 C.2   791  PHR791      0.3137
     18  O4       -16.0740   10.8510  -26.9040 O.2   791  PHR791     -0.2519
     19  N7       -16.6730   11.2720  -24.7190 N.am  791  PHR791     -0.2159
     20  C8       -17.8150   11.0820  -24.0260 C.2   791  PHR791      0.2182
     21  N1       -18.2530   11.2940  -22.7530 N.2   791  PHR791     -0.2938
     22  C2       -19.5250   10.9740  -22.3730 C.1   791  PHR791      0.3663
     23  O1       -19.8800   11.1930  -21.1900 O.2   791  PHR791     -0.1745
     24  C10      -15.3930   11.8450  -24.2750 C.3   791  PHR791      0.1375
     25  C11      -15.1070   11.6570  -22.7840 C.3   791  PHR791      0.2049
     26  O19      -15.0440   10.2590  -22.4870 O.3   791  PHR791     -0.2185
     27  C12      -13.8280   12.3570  -22.3000 C.3   791  PHR791      0.2166
     28  O21      -14.1900   13.6620  -21.8330 O.3   791  PHR791     -0.2175
     29  C13      -12.7120   12.4730  -23.3510 C.3   791  PHR791      0.2175
     30  O23      -12.2590   11.1660  -23.7270 O.3   791  PHR791     -0.2175
     31  C14      -11.5200   13.2920  -22.8540 C.3   791  PHR791      0.2175
     32  O26      -10.7880   12.5770  -21.8440 O.3   791  PHR791     -0.2175
@<TRIPOS>BOND
     1     1     2    2
     2     4     2    1
     3     2     3    1
     4     2     5    1
     5     5     6    1
     6     6     7    1
     7     7     8    1
     8     8     9    1
     9     9    10    1
    10    11    10    1
    11    11    12    1
    12    18    17    2
    13    12    17   am
    14    12    13    1
    15    17    19   am
    16    15    14    2
    17    13    14    1
    18    13    20    1
    19    19    24    1
    20    19    20    1
    21    14    16    2
    22    24    25    1
    23    20    21    2
    24    30    29    1
    25    29    31    1
    26    29    27    1
    27    16    22    2
    28    31    32    1
    29    25    26    1
    30    25    27    1
    31    21    22    2
    32    22    23    2
    33    27    28    1
