@<TRIPOS>MOLECULE
2c9e_PID_A_1.pdb
 46 49 0 0 0
SMALL
GASTEIGER

@<TRIPOS>ATOM
      1  C1        28.5410   17.0860   14.4300 C.3   1329  PID1329     0.1216
      2  C2        29.6000   18.0890   14.8950 C.3   1329  PID1329     0.0627
      3  C3        28.9880   19.4920   14.8900 C.3   1329  PID1329     0.1545
      4  C4        28.5720   19.8390   13.4560 C.3   1329  PID1329     0.0356
      5  C5        27.4110   18.9820   12.9390 C.3   1329  PID1329     0.0311
      6  C6        27.4950   17.5160   13.3930 C.3   1329  PID1329     0.1335
      7  C7        26.9270   16.5870   12.5140 C.2   1329  PID1329     0.0027
      8  C8        25.7630   15.8460   12.7250 C.2   1329  PID1329     0.0044
      9  C9        25.2170   14.9330   11.8170 C.2   1329  PID1329     0.0788
     10  C10       25.7020   14.5880   10.5560 C.2   1329  PID1329     0.3458
     11  C11       24.1200   14.2010   12.0340 C.2   1329  PID1329     0.0440
     12  C12       23.9270   13.3880   10.9930 C.2   1329  PID1329     0.1487
     13  C13       23.0020   12.3400   10.9880 C.2   1329  PID1329     0.0334
     14  C14       22.7550   11.3950    9.9880 C.2   1329  PID1329    -0.0188
     15  C15       21.8250   10.3810   10.2310 C.2   1329  PID1329    -0.0042
     16  C16       21.5400    9.3100    9.3800 C.2   1329  PID1329    -0.0003
     17  C17       20.6470    8.3150    9.7850 C.2   1329  PID1329    -0.0000
     18  C18       20.3950    7.1500    9.0590 C.2   1329  PID1329    -0.0000
     19  C19       19.5430    6.1500    9.5340 C.2   1329  PID1329    -0.0003
     20  C20       19.3920    4.9400    8.8510 C.2   1329  PID1329    -0.0037
     21  C21       18.6100    3.8510    9.2410 C.2   1329  PID1329    -0.0142
     22  C22       18.6320    2.6760    8.4850 C.2   1329  PID1329     0.0365
     23  C23       17.9890    1.5590    8.7290 C.1   1329  PID1329    -0.1078
     24  C24       17.4420    0.3890    8.9710 C.2   1329  PID1329     0.0168
     25  C25       16.0610   -0.0150    8.4250 C.3   1329  PID1329     0.0275
     26  C26       15.3020   -0.9540    9.3710 C.3   1329  PID1329     0.0481
     27  C27       16.1480   -2.1270    9.8750 C.3   1329  PID1329     0.1720
     28  C28       17.3480   -1.5450   10.6330 C.3   1329  PID1329     0.0785
     29  C29       18.2440   -0.6730    9.7440 C.3   1329  PID1329     0.1516
     30  C30       15.5890   -4.1540   11.0360 C.2   1329  PID1329     0.3174
     31  C31       14.5430   -5.0200   11.7380 C.3   1329  PID1329     0.1212
     32  CM1       28.9900   15.6260   14.5070 C.3   1329  PID1329     0.0325
     33  CM2       27.4300   19.0910   11.4120 C.3   1329  PID1329     0.0028
     34  CM3       26.0990   19.5880   13.4470 C.3   1329  PID1329     0.0028
     35  CM4       23.5310   11.4350    8.6680 C.3   1329  PID1329     0.0311
     36  CM5       17.6860    3.9570   10.4580 C.3   1329  PID1329     0.0317
     37  CM6       15.1710    1.2090    8.1890 C.3   1329  PID1329     0.0049
     38  CM7       16.2850   -0.7300    7.0890 C.3   1329  PID1329     0.0049
     39  CM8       19.3030   -0.0270   10.6430 C.3   1329  PID1329     0.0379
     40  O1        27.1870   17.3610   14.7880 O.3   1329  PID1329    -0.3543
     41  O2        29.9780   20.4300   15.3170 O.3   1329  PID1329    -0.2231
     42  O3        26.6320   15.1210    9.9470 O.2   1329  PID1329    -0.2445
     43  O4        24.8890   13.6150   10.0440 O.3   1329  PID1329    -0.4210
     44  O5        18.8910   -1.5170    8.7870 O.3   1329  PID1329    -0.2208
     45  O6        15.2530   -2.8690   10.7260 O.3   1329  PID1329    -0.4522
     46  O7        16.6680   -4.6480   10.7070 O.2   1329  PID1329    -0.2501
@<TRIPOS>BOND
     1    38    25    1
     2    37    25    1
     3    25    24    1
     4    25    26    1
     5    22    23    2
     6    22    21    1
     7    35    14    1
     8    23    24    2
     9    44    29    1
    10    20    21    2
    11    20    19    1
    12    24    29    1
    13    18    19    2
    14    18    17    1
    15    21    36    1
    16    26    27    1
    17    16    17    2
    18    16    15    1
    19    29    28    1
    20    29    39    1
    21    27    28    1
    22    27    45    1
    23    42    10    2
    24    14    15    2
    25    14    13    1
    26    43    10    1
    27    43    12    1
    28    10     9    1
    29    46    30    2
    30    45    30    1
    31    13    12    2
    32    12    11    1
    33    30    31    1
    34    33     5    1
    35     9    11    2
    36     9     8    1
    37     7     8    2
    38     7     6    1
    39     5     6    1
    40     5    34    1
    41     5     4    1
    42     6     1    1
    43     6    40    1
    44     4     3    1
    45     1    32    1
    46     1    40    1
    47     1     2    1
    48     3     2    1
    49     3    41    1
