@<TRIPOS>MOLECULE
2c9o_ADP_A_1.pdb
 27 29 0 0 0
SMALL
GASTEIGER

@<TRIPOS>ATOM
      1  PB         9.6320   32.0400   37.3240 P.3   1450  ADP1450     0.5373
      2  O1B        9.9770   31.8580   35.8880 O.2   1450  ADP1450    -0.2221
      3  O2B       10.6410   31.6030   38.3050 O.3   1450  ADP1450    -0.1143
      4  O3B        8.2580   31.5140   37.7630 O.3   1450  ADP1450    -0.1143
      5  PA         9.5080   34.8120   36.4080 P.3   1450  ADP1450     0.2231
      6  O1A       10.7910   35.0630   35.6690 O.3   1450  ADP1450    -0.4370
      7  O2A        8.3490   34.4870   35.5460 O.2   1450  ADP1450    -0.5169
      8  O3A        9.5770   33.6680   37.5650 O.3   1450  ADP1450    -0.2261
      9  O5'        9.2370   36.0530   37.3950 O.3   1450  ADP1450    -0.3111
     10  C5'        7.9280   36.5980   37.6340 C.3   1450  ADP1450     0.1813
     11  C4'        7.8060   38.0490   37.1740 C.3   1450  ADP1450     0.1821
     12  O4'        8.7060   38.8140   37.9970 O.3   1450  ADP1450    -0.3135
     13  C3'        8.2330   38.3370   35.7470 C.3   1450  ADP1450     0.2184
     14  O3'        7.5080   39.4620   35.2190 O.3   1450  ADP1450    -0.2174
     15  C2'        9.7110   38.7180   35.8300 C.3   1450  ADP1450     0.2570
     16  O2'       10.1320   39.5970   34.7700 O.3   1450  ADP1450    -0.2130
     17  C1'        9.8030   39.3270   37.1600 C.3   1450  ADP1450     0.3186
     18  N9        11.0150   39.1040   37.9760 N.pl3 1450  ADP1450    -0.1439
     19  C8        11.3500   38.0330   38.6860 C.3   1450  ADP1450     0.3377
     20  N7        12.4650   38.2500   39.3910 N.2   1450  ADP1450    -0.2095
     21  C5        12.8200   39.5250   39.1410 C.2   1450  ADP1450     0.2526
     22  C6        13.8970   40.4290   39.5740 C.2   1450  ADP1450     0.4393
     23  N6        14.8340   39.9520   40.4220 N.pl3 1450  ADP1450     0.2180
     24  N1        13.9060   41.6870   39.0980 N.2   1450  ADP1450     0.0021
     25  C2        12.9910   42.1560   38.2480 C.3   1450  ADP1450     0.5254
     26  N3        11.9990   41.4030   37.8110 N.2   1450  ADP1450    -0.0055
     27  C4        11.8720   40.0980   38.2320 C.2   1450  ADP1450     0.3518
@<TRIPOS>BOND
     1    16    15    1
     2    14    13    1
     3     7     5    2
     4     6     5    1
     5    13    15    1
     6    13    11    1
     7    15    17    1
     8     2     1    2
     9     5     9    1
    10     5     8    1
    11    17    18    1
    12    17    12    1
    13    11    10    1
    14    11    12    1
    15     1     8    1
    16     1     4    1
    17     1     3    1
    18     9    10    1
    19    26    27    2
    20    26    25    1
    21    18    27    1
    22    18    19    1
    23    27    21    1
    24    25    24    1
    25    19    20    1
    26    24    22    2
    27    21    20    2
    28    21    22    1
    29    22    23    1
