@<TRIPOS>MOLECULE
2c9x_MSS_A_1.pdb
 26 29 0 0 0
SMALL
GASTEIGER

@<TRIPOS>ATOM
      1  N1        69.5820   13.2120   21.1850 N.2   1374  MSS1374     0.0000
      2  C2        70.3470   14.3230   21.0250 C.1   1374  MSS1374     0.0000
      3  N2        70.0730   15.1420   19.9870 N.pl3 1374  MSS1374     0.0000
      4  N3        71.3780   14.6200   21.8730 N.2   1374  MSS1374     0.0000
      5  C4        71.6900   13.8360   22.9340 C.1   1374  MSS1374     0.0000
      6  O4        72.6320   14.1330   23.6750 O.2   1374  MSS1374     0.0000
      7  N5        71.1180   11.7340   24.1990 N.2   1374  MSS1374     0.0000
      8  C6        70.7410   10.3420   23.9280 C.3   1374  MSS1374     0.0000
      9  C7        69.3170   10.2670   23.3650 C.3   1374  MSS1374     0.0000
     10  N8        69.0240   11.2550   22.3490 N.2   1374  MSS1374     0.0000
     11  C9        70.8900   12.6140   23.1720 C.2   1374  MSS1374     0.0000
     12  C10       69.7850   12.3710   22.2170 C.1   1374  MSS1374     0.0000
     13  C1'       70.8860    9.4200   25.1190 C.2   1374  MSS1374     0.0000
     14  S1'       72.4790    8.9790   25.4890 S.3   1374  MSS1374     0.0000
     15  C2'       69.7940    8.9400   25.7730 C.2   1374  MSS1374     0.0000
     16  S2'       69.9240    7.8280   27.0600 S.3   1374  MSS1374     0.0000
     17  C3'       68.3790    9.4070   25.3470 C.3   1374  MSS1374     0.0000
     18  O3'       68.4050   10.4910   24.4160 O.3   1374  MSS1374     0.0000
     19  C4'       67.5750    9.9390   26.5070 C.3   1374  MSS1374     0.0000
     20  O4'       66.2540   10.3180   26.0750 O.3   1374  MSS1374     0.0000
     21  P         65.3870   11.2870   27.0120 P.3   1374  MSS1374     0.0000
     22  O1P       64.1660   11.6640   26.2550 O.2   1374  MSS1374     0.0000
     23  O2P       66.2590   12.4550   27.3590 O.3   1374  MSS1374     0.0000
     24  O3P       65.1170   10.4020   28.2180 O.3   1374  MSS1374     0.0000
     25 MOM1       72.2910    7.2750   27.1320 Mo    1374  MSS1374     0.0000
     26  OM1       72.6390    5.7990   26.3270 O.3   1374  MSS1374     0.0000
@<TRIPOS>BOND
     1     3     2    1
     2     2     1    2
     3     2     4    2
     4     1    12    2
     5     4     5    2
     6    12    10    2
     7    12    11    1
     8    10     9    1
     9     5    11    1
    10     5     6    2
    11    11     7    2
    12     9     8    1
    13     9    18    1
    14     8     7    1
    15     8    13    1
    16    18    17    1
    17    13    14    1
    18    13    15    2
    19    17    15    1
    20    17    19    1
    21    14    25    1
    22    15    16    1
    23    20    19    1
    24    20    21    1
    25    22    21    2
    26    26    25    1
    27    21    23    1
    28    21    24    1
    29    16    25    1
