@<TRIPOS>MOLECULE
2c9x_HEC_B_1.pdb
 43 50 0 0 0
SMALL
GASTEIGER

@<TRIPOS>ATOM
      1 FE         84.4000   18.0430   30.8150 Fe    1582  HEC1582     0.0000
      2  CHA       82.2180   15.3440   30.8140 C.2   1582  HEC1582     0.0000
      3  CHB       85.4060   17.1770   34.0320 C.2   1582  HEC1582     0.0000
      4  CHC       86.4300   20.8200   30.8810 C.2   1582  HEC1582     0.0000
      5  CHD       83.7560   18.6610   27.4540 C.2   1582  HEC1582     0.0000
      6  NA        83.8890   16.4960   32.1890 N.2   1582  HEC1582     0.0000
      7  C1A       82.9370   15.5030   31.9920 C.2   1582  HEC1582     0.0000
      8  C2A       82.8710   14.7110   33.2100 C.2   1582  HEC1582     0.0000
      9  C3A       83.7540   15.2220   34.0910 C.2   1582  HEC1582     0.0000
     10  C4A       84.4140   16.3660   33.4650 C.2   1582  HEC1582     0.0000
     11  CMA       84.0830   14.7300   35.5130 C.3   1582  HEC1582     0.0000
     12  CAA       81.9590   13.4700   33.4390 C.3   1582  HEC1582     0.0000
     13  CBA       82.8620   12.2350   33.3950 C.3   1582  HEC1582     0.0000
     14  CGA       83.2250   11.9350   31.9410 C.2   1582  HEC1582     0.0000
     15  O1A       84.4390   11.8640   31.5910 O.co2 1582  HEC1582     0.0000
     16  O2A       82.3130   11.7710   31.0990 O.co2 1582  HEC1582     0.0000
     17  NB        85.6090   18.8930   32.2510 N.ar  1582  HEC1582     0.0000
     18  C1B       85.9900   18.2780   33.4310 C.ar  1582  HEC1582     0.0000
     19  C2B       87.1340   19.0190   33.9240 C.ar  1582  HEC1582     0.0000
     20  C3B       87.4340   20.0040   33.0370 C.ar  1582  HEC1582     0.0000
     21  C4B       86.4560   19.9600   31.9800 C.ar  1582  HEC1582     0.0000
     22  CMB       87.8800   18.6280   35.2080 C.3   1582  HEC1582     0.0000
     23  CAB       88.5640   21.0730   33.0770 C.3   1582  HEC1582     0.0000
     24  CBB       89.9800   20.4390   32.9720 C.3   1582  HEC1582     0.0000
     25  NC        85.0540   19.4660   29.3760 N.2   1582  HEC1582     0.0000
     26  C1C       85.7650   20.6100   29.6980 C.2   1582  HEC1582     0.0000
     27  C2C       85.6550   21.5360   28.5870 C.2   1582  HEC1582     0.0000
     28  C3C       84.9420   20.9140   27.6300 C.2   1582  HEC1582     0.0000
     29  C4C       84.5330   19.6060   28.1130 C.2   1582  HEC1582     0.0000
     30  CMC       86.2900   22.9550   28.5210 C.3   1582  HEC1582     0.0000
     31  CAC       84.5390   21.4950   26.2510 C.3   1582  HEC1582     0.0000
     32  CBC       85.7660   21.5060   25.2910 C.3   1582  HEC1582     0.0000
     33  ND        83.1790   17.1330   29.3270 N.ar  1582  HEC1582     0.0000
     34  C1D       83.0670   17.5960   28.0100 C.ar  1582  HEC1582     0.0000
     35  C2D       82.0990   16.7510   27.3250 C.ar  1582  HEC1582     0.0000
     36  C3D       81.6640   15.7310   28.3920 C.ar  1582  HEC1582     0.0000
     37  C4D       82.3650   16.0430   29.6110 C.ar  1582  HEC1582     0.0000
     38  CMD       81.6280   16.8290   25.8480 C.3   1582  HEC1582     0.0000
     39  CAD       80.6480   14.5890   28.2300 C.3   1582  HEC1582     0.0000
     40  CBD       79.3040   15.1650   28.6370 C.3   1582  HEC1582     0.0000
     41  CGD       78.2390   14.1010   28.5390 C.2   1582  HEC1582     0.0000
     42  O1D       78.5110   13.0050   27.9790 O.co2 1582  HEC1582     0.0000
     43  O2D       77.1160   14.3670   29.0150 O.co2 1582  HEC1582     0.0000
@<TRIPOS>BOND
     1    32    31    1
     2    38    35    1
     3    31    28    1
     4    35    34   ar
     5    35    36   ar
     6     5    34    2
     7     5    29    1
     8    28    29    1
     9    28    27    2
    10    42    41   ar
    11    34    33   ar
    12    29    25    2
    13    39    36    1
    14    39    40    1
    15    36    37   ar
    16    30    27    1
    17    41    40    1
    18    41    43   ar
    19    27    26    1
    20    33    37   ar
    21    33     1    1
    22    25    26    1
    23    25     1    1
    24    37     2    2
    25    26     4    2
    26     2     7    1
    27     1     6    1
    28     1    17    1
    29     4    21    1
    30    16    14   ar
    31    15    14   ar
    32    14    13    1
    33    21    17   ar
    34    21    20   ar
    35     7     6    2
    36     7     8    1
    37     6    10    1
    38    17    18   ar
    39    24    23    1
    40    20    23    1
    41    20    19   ar
    42     8    12    1
    43     8     9    2
    44    13    12    1
    45    18    19   ar
    46    18     3    1
    47    10     3    2
    48    10     9    1
    49    19    22    1
    50     9    11    1
