@<TRIPOS>MOLECULE
2c9z_UDP_A_1.pdb
 25 26 0 0 0
SMALL
GASTEIGER

@<TRIPOS>ATOM
      1  N1         9.4190   -2.2670   25.2700 N.am  1457  UDP1457    -0.1766
      2  C2        10.3290   -1.2770   25.6180 C.1   1457  UDP1457     0.2845
      3  N3        11.4940   -1.1280   24.8990 N.2   1457  UDP1457    -0.2452
      4  C4        11.7510   -1.9580   23.8340 C.1   1457  UDP1457     0.2182
      5  C5        10.8420   -2.9630   23.4700 C.2   1457  UDP1457     0.1242
      6  C6         9.6640   -3.1090   24.2040 C.2   1457  UDP1457     0.0929
      7  O2        10.1090   -0.5200   26.5670 O.2   1457  UDP1457    -0.1918
      8  O4        12.8010   -1.7990   23.2190 O.2   1457  UDP1457    -0.2085
      9  C1'        8.1860   -2.3850   26.0680 C.3   1457  UDP1457     0.2401
     10  C2'        7.0210   -1.6750   25.3820 C.3   1457  UDP1457     0.2319
     11  O2'        6.9670   -0.2910   25.6570 O.3   1457  UDP1457    -0.2157
     12  C3'        5.8270   -2.4230   25.9370 C.3   1457  UDP1457     0.2158
     13  C4'        6.3650   -3.8290   26.1740 C.3   1457  UDP1457     0.1799
     14  O4'        7.7740   -3.7370   26.2000 O.3   1457  UDP1457    -0.3320
     15  O3'        5.4180   -1.8450   27.1580 O.3   1457  UDP1457    -0.2175
     16  C5'        5.9690   -4.7790   25.0480 C.3   1457  UDP1457     0.1813
     17  O5'        4.7150   -5.3120   25.3580 O.3   1457  UDP1457    -0.3111
     18  PA         3.6980   -5.9140   24.2740 P.3   1457  UDP1457     0.2231
     19  O1A        3.5190   -4.8850   23.2480 O.2   1457  UDP1457    -0.5169
     20  O2A        2.3940   -6.3120   24.8800 O.3   1457  UDP1457    -0.4370
     21  O3A        4.4120   -7.1900   23.5960 O.3   1457  UDP1457    -0.2261
     22  PB         5.0840   -8.4330   24.3760 P.3   1457  UDP1457     0.5373
     23  O1B        4.2700   -8.8100   25.5480 O.3   1457  UDP1457    -0.1143
     24  O2B        6.4340   -8.0470   24.7920 O.3   1457  UDP1457    -0.1143
     25  O3B        5.1230   -9.5770   23.4170 O.2   1457  UDP1457    -0.2221
@<TRIPOS>BOND
     1     8     4    2
     2    19    18    2
     3    25    22    2
     4     5     4    1
     5     5     6    2
     6    21    18    1
     7    21    22    1
     8     4     3    2
     9     6     1    1
    10    18    20    1
    11    18    17    1
    12    22    24    1
    13    22    23    1
    14     3     2    2
    15    16    17    1
    16    16    13    1
    17     1     2   am
    18     1     9    1
    19    10    11    1
    20    10    12    1
    21    10     9    1
    22     2     7    2
    23    12    13    1
    24    12    15    1
    25     9    14    1
    26    13    14    1
