@<TRIPOS>MOLECULE
2c9z_QUE_A_1.pdb
 22 24 0 0 0
SMALL
GASTEIGER

@<TRIPOS>ATOM
      1  C1         5.0770  -17.5040   24.4080 C.2   1458  QUE1458     0.0837
      2  C2         4.5530  -16.4640   25.1790 C.2   1458  QUE1458     0.2018
      3  C3         3.2040  -16.1240   25.0170 C.2   1458  QUE1458     0.1028
      4  C4         2.3810  -16.7870   24.0850 C.3   1458  QUE1458     0.2199
      5  C5         2.9260  -17.8170   23.3200 C.2   1458  QUE1458     0.0635
      6  C6         4.2600  -18.1720   23.4850 C.2   1458  QUE1458     0.1985
      7  C9         2.6480  -15.0990   25.7600 C.2   1458  QUE1458     0.2401
      8  C10        1.3120  -14.7930   25.5350 C.2   1458  QUE1458     0.2677
      9  C11        0.5970  -15.5280   24.5640 C.2   1458  QUE1458     0.1813
     10  C14       -0.8620  -15.2980   24.2920 C.ar  1458  QUE1458     0.0407
     11  C15       -1.5020  -14.0810   24.5550 C.ar  1458  QUE1458     0.0066
     12  C16       -2.8700  -13.9250   24.3210 C.ar  1458  QUE1458     0.0455
     13  C17       -3.6070  -14.9990   23.8240 C.ar  1458  QUE1458     0.2343
     14  C18       -2.9910  -16.2200   23.5690 C.ar  1458  QUE1458     0.2344
     15  C19       -1.6240  -16.3770   23.8170 C.ar  1458  QUE1458     0.0485
     16  O12        1.1650  -16.4660   23.9270 O.2   1458  QUE1458    -0.4666
     17  O13        3.4180  -14.4330   26.6700 O.2   1458  QUE1458    -0.2831
     18  O23       -3.7340  -17.2600   23.0900 O.3   1458  QUE1458    -0.2831
     19  O24       -4.9320  -14.8660   23.5910 O.3   1458  QUE1458    -0.2831
     20  O27        0.7480  -13.7820   26.2600 O.2   1458  QUE1458    -0.2799
     21  O29        4.7650  -19.1810   22.7300 O.2   1458  QUE1458    -0.2867
     22  O30        5.3350  -15.8070   26.0970 O.2   1458  QUE1458    -0.2866
@<TRIPOS>BOND
     1    21     6    1
     2    18    14    1
     3     5     6    2
     4     5     4    1
     5     6     1    1
     6    14    15   ar
     7    14    13   ar
     8    19    13    1
     9    15    10   ar
    10    13    12   ar
    11    16     4    1
    12    16     9    1
    13     4     3    1
    14    10    11   ar
    15    10     9    1
    16    12    11   ar
    17     1     2    2
    18     9     8    2
    19     3     2    1
    20     3     7    2
    21     2    22    1
    22     8     7    1
    23     8    20    1
    24     7    17    1
