@<TRIPOS>MOLECULE
2ca0_HEM_A_1.pdb
 43 50 0 0 0
SMALL
GASTEIGER

@<TRIPOS>ATOM
      1 FE         35.6890    8.7580   43.5320 Fe    1407  HEM1407     0.0000
      2  CHA       34.7620    7.9520   46.7680 C.2   1407  HEM1407     0.0000
      3  CHB       32.6410    7.8000   42.3990 C.2   1407  HEM1407     0.0000
      4  CHC       36.5420    9.8760   40.3860 C.2   1407  HEM1407     0.0000
      5  CHD       38.8200    9.5980   44.6230 C.2   1407  HEM1407     0.0000
      6  NA        34.1210    7.9550   44.3990 N.ar  1407  HEM1407     0.0000
      7  C1A       33.9030    7.6130   45.7370 C.ar  1407  HEM1407     0.0000
      8  C2A       32.5310    7.0980   45.8950 C.ar  1407  HEM1407     0.0000
      9  C3A       31.9890    7.1260   44.7060 C.ar  1407  HEM1407     0.0000
     10  C4A       32.9030    7.6690   43.7700 C.ar  1407  HEM1407     0.0000
     11  CMA       30.6700    6.4610   44.4060 C.3   1407  HEM1407     0.0000
     12  CAA       31.7190    6.5230   47.0480 C.3   1407  HEM1407     0.0000
     13  CBA       32.4160    5.4350   47.8530 C.3   1407  HEM1407     0.0000
     14  CGA       31.4650    4.6990   48.7630 C.2   1407  HEM1407     0.0000
     15  O1A       30.6910    5.3420   49.4960 O.co2 1407  HEM1407     0.0000
     16  O2A       31.4870    3.4640   48.7480 O.co2 1407  HEM1407     0.0000
     17  NB        34.8370    8.7280   41.7800 N.2   1407  HEM1407     0.0000
     18  C1B       33.5820    8.1890   41.4580 C.2   1407  HEM1407     0.0000
     19  C2B       33.3930    8.0980   40.0260 C.2   1407  HEM1407     0.0000
     20  C3B       34.4990    8.7000   39.4660 C.2   1407  HEM1407     0.0000
     21  C4B       35.3620    9.1290   40.5530 C.2   1407  HEM1407     0.0000
     22  CMB       32.1700    7.5290   39.3180 C.3   1407  HEM1407     0.0000
     23  CAB       34.8110    8.8480   38.1260 C.3   1407  HEM1407     0.0000
     24  CBB       34.1680    9.8570   37.2880 C.3   1407  HEM1407     0.0000
     25  NC        37.2330    9.7940   42.7350 N.ar  1407  HEM1407     0.0000
     26  C1C       37.4120   10.1950   41.4070 C.ar  1407  HEM1407     0.0000
     27  C2C       38.7530   10.7120   41.1650 C.ar  1407  HEM1407     0.0000
     28  C3C       39.4540   10.6140   42.3660 C.ar  1407  HEM1407     0.0000
     29  C4C       38.4950   10.0620   43.3370 C.ar  1407  HEM1407     0.0000
     30  CMC       39.2530   11.2400   39.8010 C.3   1407  HEM1407     0.0000
     31  CAC       40.8010   10.9140   42.5110 C.3   1407  HEM1407     0.0000
     32  CBC       41.4960   11.2800   43.7000 C.3   1407  HEM1407     0.0000
     33  ND        36.5890    8.6930   45.2820 N.2   1407  HEM1407     0.0000
     34  C1D       37.9570    8.9450   45.5240 C.2   1407  HEM1407     0.0000
     35  C2D       38.2480    8.9210   46.9540 C.2   1407  HEM1407     0.0000
     36  C3D       37.0440    8.8000   47.6220 C.2   1407  HEM1407     0.0000
     37  C4D       36.0170    8.5310   46.5670 C.2   1407  HEM1407     0.0000
     38  CMD       39.6710    8.9500   47.5880 C.3   1407  HEM1407     0.0000
     39  CAD       36.9390    8.9320   49.1410 C.3   1407  HEM1407     0.0000
     40  CBD       35.7160    9.6070   49.7230 C.3   1407  HEM1407     0.0000
     41  CGD       35.7440    9.6740   51.2500 C.2   1407  HEM1407     0.0000
     42  O1D       35.8890    8.6080   51.9000 O.co2 1407  HEM1407     0.0000
     43  O2D       35.6170   10.7980   51.7950 O.co2 1407  HEM1407     0.0000
@<TRIPOS>BOND
     1    24    23    1
     2    23    20    1
     3    22    19    1
     4    20    19    2
     5    20    21    1
     6    30    27    1
     7    19    18    1
     8     4    21    2
     9     4    26    1
    10    21    17    1
    11    27    26   ar
    12    27    28   ar
    13    26    25   ar
    14    18    17    2
    15    18     3    1
    16    17     1    1
    17    28    31    1
    18    28    29   ar
    19     3    10    2
    20    31    32    1
    21    25    29   ar
    22    25     1    1
    23    29     5    1
    24     1     6    1
    25     1    33    1
    26    10     6   ar
    27    10     9   ar
    28     6     7   ar
    29    11     9    1
    30     5    34    2
    31     9     8   ar
    32    33    34    1
    33    33    37    2
    34    34    35    1
    35     7     8   ar
    36     7     2    2
    37     8    12    1
    38    37     2    1
    39    37    36    1
    40    35    38    1
    41    35    36    2
    42    12    13    1
    43    36    39    1
    44    13    14    1
    45    16    14   ar
    46    14    15   ar
    47    39    40    1
    48    40    41    1
    49    41    43   ar
    50    41    42   ar
