@<TRIPOS>MOLECULE
2ca0_PXI_A_1.pdb
 32 33 0 0 0
SMALL
GASTEIGER

@<TRIPOS>ATOM
      1  C1        35.9210    4.6970   44.0060 C.3   1408  PXI1408     0.0038
      2  C2        34.9790    3.6680   43.3660 C.3   1408  PXI1408     0.0440
      3  C3        35.6960    2.3020   43.0560 C.3   1408  PXI1408     0.1727
      4  O1        36.2460    1.6870   44.2570 O.3   1408  PXI1408    -0.4519
      5  C4        37.5580    1.4420   44.5670 C.2   1408  PXI1408     0.3187
      6  O2        38.4860    2.0310   44.0610 O.2   1408  PXI1408    -0.2500
      7  C5        37.6990    0.3540   45.5810 C.3   1408  PXI1408     0.1262
      8  C6        37.6630    1.0130   46.9980 C.3   1408  PXI1408     0.0142
      9  C7        39.0200   -0.5170   45.4720 C.3   1408  PXI1408     0.1283
     10  O3        38.9860   -1.4220   46.6620 O.3   1408  PXI1408    -0.3305
     11  C8        40.2310   -2.0320   47.1630 C.3   1408  PXI1408     0.2679
     12  O4        41.4630   -1.5690   46.5450 O.3   1408  PXI1408    -0.3311
     13  C9        42.6300   -2.3460   47.0310 C.3   1408  PXI1408     0.1194
     14  C10       43.8660   -1.9110   46.2600 C.3   1408  PXI1408     0.0322
     15  C11       42.8620   -2.0930   48.5370 C.3   1408  PXI1408     0.0483
     16  C12       41.6060   -2.6410   49.2850 C.3   1408  PXI1408     0.0957
     17  N1        41.6450   -2.5880   50.8050 N.3   1408  PXI1408    -0.2691
     18  C13       41.1870   -3.9030   51.3080 C.3   1408  PXI1408     0.0897
     19  C14       42.9890   -2.3910   51.3510 C.3   1408  PXI1408     0.0897
     20  C15       40.2980   -1.8810   48.7290 C.3   1408  PXI1408     0.2224
     21  O5        39.1230   -2.4650   49.3050 O.3   1408  PXI1408    -0.2163
     22  C16       39.0760   -1.3150   44.0570 C.3   1408  PXI1408     0.0283
     23  C17       40.4710   -1.6260   43.5630 C.3   1408  PXI1408     0.0025
     24  C18       38.2550   -2.6150   44.1060 C.3   1408  PXI1408     0.0101
     25  C19       37.1030   -2.8550   43.0460 C.3   1408  PXI1408     0.0620
     26  C20       37.1810   -4.2690   42.4990 C.3   1408  PXI1408     0.0081
     27  C21       37.1160   -1.8250   41.8110 C.2   1408  PXI1408     0.1724
     28  O6        37.7110   -2.1240   40.7850 O.2   1408  PXI1408    -0.2914
     29  C22       36.4640   -0.5000   41.8320 C.2   1408  PXI1408     0.0330
     30  C23       35.2740   -0.2200   42.3580 C.2   1408  PXI1408    -0.0199
     31  C24       34.7090    1.2300   42.3470 C.3   1408  PXI1408     0.0622
     32  C25       33.3220    1.1260   43.0370 C.3   1408  PXI1408     0.0084
@<TRIPOS>BOND
     1    28    27    2
     2    27    29    1
     3    27    25    1
     4    29    30    2
     5    31    30    1
     6    31    32    1
     7    31     3    1
     8    26    25    1
     9    25    24    1
    10     3     2    1
    11     3     4    1
    12     2     1    1
    13    23    22    1
    14    22    24    1
    15    22     9    1
    16     6     5    2
    17     4     5    1
    18     5     7    1
    19     9     7    1
    20     9    10    1
    21     7     8    1
    22    14    13    1
    23    12    13    1
    24    12    11    1
    25    10    11    1
    26    13    15    1
    27    11    20    1
    28    15    16    1
    29    20    16    1
    30    20    21    1
    31    16    17    1
    32    17    18    1
    33    17    19    1
