@<TRIPOS>MOLECULE
2ca3_HEC_B_1.pdb
 43 50 0 0 0
SMALL
GASTEIGER

@<TRIPOS>ATOM
      1 FE         84.4850   18.1260   30.7440 Fe    1582  HEC1582     0.0000
      2  CHA       82.2480   15.4700   30.7620 C.2   1582  HEC1582     0.0000
      3  CHB       85.4720   17.2340   33.9430 C.2   1582  HEC1582     0.0000
      4  CHC       86.5280   20.8300   30.8410 C.2   1582  HEC1582     0.0000
      5  CHD       83.7620   18.7490   27.4600 C.2   1582  HEC1582     0.0000
      6  NA        83.9310   16.6480   32.0920 N.2   1582  HEC1582     0.0000
      7  C1A       82.9950   15.6490   31.8900 C.2   1582  HEC1582     0.0000
      8  C2A       82.9750   14.7970   33.0620 C.2   1582  HEC1582     0.0000
      9  C3A       83.8660   15.2950   33.9390 C.2   1582  HEC1582     0.0000
     10  C4A       84.4980   16.4530   33.3400 C.2   1582  HEC1582     0.0000
     11  CMA       84.2300   14.7400   35.3430 C.3   1582  HEC1582     0.0000
     12  CAA       82.0440   13.5510   33.2620 C.3   1582  HEC1582     0.0000
     13  CBA       82.8770   12.2780   33.2140 C.3   1582  HEC1582     0.0000
     14  CGA       83.3820   12.0380   31.8150 C.2   1582  HEC1582     0.0000
     15  O1A       84.6220   11.9200   31.6780 O.co2 1582  HEC1582     0.0000
     16  O2A       82.5690   11.9810   30.8440 O.co2 1582  HEC1582     0.0000
     17  NB        85.7150   18.9190   32.1850 N.ar  1582  HEC1582     0.0000
     18  C1B       86.0840   18.3290   33.3740 C.ar  1582  HEC1582     0.0000
     19  C2B       87.2160   19.0720   33.8940 C.ar  1582  HEC1582     0.0000
     20  C3B       87.5270   20.0540   33.0100 C.ar  1582  HEC1582     0.0000
     21  C4B       86.5670   19.9860   31.9360 C.ar  1582  HEC1582     0.0000
     22  CMB       87.9610   18.6990   35.1860 C.3   1582  HEC1582     0.0000
     23  CAB       88.6560   21.1230   33.0740 C.3   1582  HEC1582     0.0000
     24  CBB       90.0270   20.5650   32.6590 C.3   1582  HEC1582     0.0000
     25  NC        85.1110   19.5000   29.3880 N.2   1582  HEC1582     0.0000
     26  C1C       85.8260   20.6350   29.6870 C.2   1582  HEC1582     0.0000
     27  C2C       85.8580   21.4800   28.4980 C.2   1582  HEC1582     0.0000
     28  C3C       84.9810   20.9380   27.6360 C.2   1582  HEC1582     0.0000
     29  C4C       84.5540   19.6560   28.1390 C.2   1582  HEC1582     0.0000
     30  CMC       86.3830   22.9410   28.4730 C.3   1582  HEC1582     0.0000
     31  CAC       84.5660   21.4610   26.2410 C.3   1582  HEC1582     0.0000
     32  CBC       85.8610   21.5690   25.3820 C.3   1582  HEC1582     0.0000
     33  ND        83.2130   17.2360   29.3180 N.ar  1582  HEC1582     0.0000
     34  C1D       83.0670   17.6940   28.0160 C.ar  1582  HEC1582     0.0000
     35  C2D       82.0570   16.8930   27.3580 C.ar  1582  HEC1582     0.0000
     36  C3D       81.6080   15.8700   28.4050 C.ar  1582  HEC1582     0.0000
     37  C4D       82.3770   16.1640   29.5790 C.ar  1582  HEC1582     0.0000
     38  CMD       81.5560   17.0130   25.9110 C.3   1582  HEC1582     0.0000
     39  CAD       80.5440   14.7610   28.3230 C.3   1582  HEC1582     0.0000
     40  CBD       79.1610   15.3000   28.6490 C.3   1582  HEC1582     0.0000
     41  CGD       78.1410   14.1790   28.6370 C.2   1582  HEC1582     0.0000
     42  O1D       78.4300   13.1030   28.0320 O.co2 1582  HEC1582     0.0000
     43  O2D       77.0410   14.3800   29.2250 O.co2 1582  HEC1582     0.0000
@<TRIPOS>BOND
     1    32    31    1
     2    38    35    1
     3    31    28    1
     4    35    34   ar
     5    35    36   ar
     6     5    34    2
     7     5    29    1
     8    28    29    1
     9    28    27    2
    10    34    33   ar
    11    42    41   ar
    12    29    25    2
    13    39    36    1
    14    39    40    1
    15    36    37   ar
    16    30    27    1
    17    27    26    1
    18    41    40    1
    19    41    43   ar
    20    33    37   ar
    21    33     1    1
    22    25    26    1
    23    25     1    1
    24    37     2    2
    25    26     4    2
    26     1     6    1
    27     1    17    1
    28     2     7    1
    29     4    21    1
    30    16    14   ar
    31    15    14   ar
    32    14    13    1
    33     7     6    2
    34     7     8    1
    35    21    17   ar
    36    21    20   ar
    37     6    10    1
    38    17    18   ar
    39    24    23    1
    40    20    23    1
    41    20    19   ar
    42     8    12    1
    43     8     9    2
    44    13    12    1
    45    10     9    1
    46    10     3    2
    47    18    19   ar
    48    18     3    1
    49    19    22    1
    50     9    11    1
