@<TRIPOS>MOLECULE
2ca3_MSS_A_1.pdb
 26 29 0 0 0
SMALL
GASTEIGER

@<TRIPOS>ATOM
      1  N1        69.7350   13.2680   21.2270 N.2   1374  MSS1374     0.0000
      2  C2        70.4690   14.4060   21.0720 C.1   1374  MSS1374     0.0000
      3  N2        70.1770   15.2140   20.0330 N.pl3 1374  MSS1374     0.0000
      4  N3        71.4960   14.7330   21.9070 N.2   1374  MSS1374     0.0000
      5  C4        71.8210   13.9380   22.9690 C.1   1374  MSS1374     0.0000
      6  O4        72.7510   14.2160   23.7320 O.2   1374  MSS1374     0.0000
      7  N5        71.3270   11.8230   24.2270 N.2   1374  MSS1374     0.0000
      8  C6        70.8830   10.4300   24.0790 C.3   1374  MSS1374     0.0000
      9  C7        69.4750   10.3430   23.4920 C.3   1374  MSS1374     0.0000
     10  N8        69.2480   11.2910   22.4040 N.2   1374  MSS1374     0.0000
     11  C9        71.0600   12.6970   23.2030 C.2   1374  MSS1374     0.0000
     12  C10       69.9720   12.4150   22.2510 C.1   1374  MSS1374     0.0000
     13  C1'       71.0170    9.5450   25.2970 C.2   1374  MSS1374     0.0000
     14  S1'       72.6090    9.1540   25.7400 S.3   1374  MSS1374     0.0000
     15  C2'       69.8950    9.0550   25.9140 C.2   1374  MSS1374     0.0000
     16  S2'       69.9460    7.9160   27.1740 S.3   1374  MSS1374     0.0000
     17  C3'       68.4960    9.4980   25.4590 C.3   1374  MSS1374     0.0000
     18  O3'       68.4950   10.5460   24.4900 O.3   1374  MSS1374     0.0000
     19  C4'       67.7000   10.0220   26.6360 C.3   1374  MSS1374     0.0000
     20  O4'       66.4220   10.4250   26.1260 O.3   1374  MSS1374     0.0000
     21  P         65.5240   11.3480   27.0660 P.3   1374  MSS1374     0.0000
     22  O1P       64.3370   11.6940   26.2000 O.2   1374  MSS1374     0.0000
     23  O2P       66.4210   12.5280   27.3720 O.3   1374  MSS1374     0.0000
     24  O3P       65.1770   10.4660   28.2500 O.3   1374  MSS1374     0.0000
     25 MOM1       72.2830    7.3110   27.2750 Mo    1374  MSS1374     0.0000
     26  OM1       72.7110    5.9530   26.3320 O.3   1374  MSS1374     0.0000
@<TRIPOS>BOND
     1     3     2    1
     2     2     1    2
     3     2     4    2
     4     1    12    2
     5     4     5    2
     6    12    10    2
     7    12    11    1
     8    10     9    1
     9     5    11    1
    10     5     6    2
    11    11     7    2
    12     9     8    1
    13     9    18    1
    14     8     7    1
    15     8    13    1
    16    18    17    1
    17    13    14    1
    18    13    15    2
    19    17    15    1
    20    17    19    1
    21    14    25    1
    22    15    16    1
    23    20    19    1
    24    20    21    1
    25    22    21    2
    26    26    25    1
    27    21    23    1
    28    21    24    1
    29    16    25    1
