@<TRIPOS>MOLECULE
2ca4_MSS_A_1.pdb
 26 29 0 0 0
SMALL
GASTEIGER

@<TRIPOS>ATOM
      1  N1        68.8960   13.0010   21.0730 N.2   1374  MSS1374     0.0000
      2  C2        69.6430   14.0970   20.8610 C.1   1374  MSS1374     0.0000
      3  N2        69.3200   14.8740   19.8130 N.pl3 1374  MSS1374     0.0000
      4  N3        70.6800   14.4430   21.6740 N.2   1374  MSS1374     0.0000
      5  C4        71.0300   13.6870   22.7430 C.1   1374  MSS1374     0.0000
      6  O4        71.9840   14.0280   23.4640 O.2   1374  MSS1374     0.0000
      7  N5        70.4830   11.6030   24.0380 N.2   1374  MSS1374     0.0000
      8  C6        70.1100   10.2000   23.8660 C.3   1374  MSS1374     0.0000
      9  C7        68.6740   10.0730   23.3120 C.3   1374  MSS1374     0.0000
     10  N8        68.3630   11.0440   22.2670 N.2   1374  MSS1374     0.0000
     11  C9        70.2470   12.4490   23.0190 C.2   1374  MSS1374     0.0000
     12  C10       69.1230   12.1560   22.0950 C.1   1374  MSS1374     0.0000
     13  C1'       70.3110    9.3330   25.0940 C.2   1374  MSS1374     0.0000
     14  S1'       71.9020    8.9210   25.5560 S.3   1374  MSS1374     0.0000
     15  C2'       69.2110    8.8430   25.7500 C.2   1374  MSS1374     0.0000
     16  S2'       69.3360    7.7810   27.0510 S.3   1374  MSS1374     0.0000
     17  C3'       67.7980    9.1770   25.3130 C.3   1374  MSS1374     0.0000
     18  O3'       67.7310   10.2340   24.3650 O.3   1374  MSS1374     0.0000
     19  C4'       66.9690    9.6360   26.5030 C.3   1374  MSS1374     0.0000
     20  O4'       65.6990   10.0990   26.0360 O.3   1374  MSS1374     0.0000
     21  P         64.7730   11.0130   26.9650 P.3   1374  MSS1374     0.0000
     22  O1P       63.5930   11.4240   26.1090 O.2   1374  MSS1374     0.0000
     23  O2P       65.6870   12.1770   27.3490 O.3   1374  MSS1374     0.0000
     24  O3P       64.4610   10.0660   28.0920 O.3   1374  MSS1374     0.0000
     25 MOM1       71.6560    7.1310   27.1420 Mo    1374  MSS1374     0.0000
     26  OM1       71.9840    5.7140   26.2840 O.3   1374  MSS1374     0.0000
@<TRIPOS>BOND
     1     3     2    1
     2     2     1    2
     3     2     4    2
     4     1    12    2
     5     4     5    2
     6    12    10    2
     7    12    11    1
     8    10     9    1
     9     5    11    1
    10     5     6    2
    11    11     7    2
    12     9     8    1
    13     9    18    1
    14     8     7    1
    15     8    13    1
    16    18    17    1
    17    13    14    1
    18    13    15    2
    19    17    15    1
    20    17    19    1
    21    14    25    1
    22    15    16    1
    23    20    19    1
    24    20    21    1
    25    22    21    2
    26    26    25    1
    27    21    23    1
    28    21    24    1
    29    16    25    1
