@<TRIPOS>MOLECULE
2ca4_HEC_B_1.pdb
 43 50 0 0 0
SMALL
GASTEIGER

@<TRIPOS>ATOM
      1 FE         83.5400   17.7750   30.6080 Fe    1582  HEC1582     0.0000
      2  CHA       81.2950   15.1580   30.7230 C.2   1582  HEC1582     0.0000
      3  CHB       84.6420   16.9020   33.7710 C.2   1582  HEC1582     0.0000
      4  CHC       85.6630   20.5520   30.6890 C.2   1582  HEC1582     0.0000
      5  CHD       82.9510   18.3050   27.3350 C.2   1582  HEC1582     0.0000
      6  NA        83.0570   16.2790   32.0010 N.2   1582  HEC1582     0.0000
      7  C1A       82.0810   15.3150   31.8460 C.2   1582  HEC1582     0.0000
      8  C2A       82.0270   14.5270   33.0670 C.2   1582  HEC1582     0.0000
      9  C3A       82.9660   15.0040   33.9070 C.2   1582  HEC1582     0.0000
     10  C4A       83.6280   16.1180   33.2510 C.2   1582  HEC1582     0.0000
     11  CMA       83.3310   14.5080   35.3380 C.3   1582  HEC1582     0.0000
     12  CAA       81.0480   13.3250   33.2770 C.3   1582  HEC1582     0.0000
     13  CBA       81.7820   11.9820   33.0870 C.3   1582  HEC1582     0.0000
     14  CGA       82.2700   11.7040   31.6860 C.2   1582  HEC1582     0.0000
     15  O1A       83.5030   11.6020   31.4980 O.co2 1582  HEC1582     0.0000
     16  O2A       81.4510   11.5590   30.7420 O.co2 1582  HEC1582     0.0000
     17  NB        84.8340   18.6220   31.9980 N.ar  1582  HEC1582     0.0000
     18  C1B       85.2200   18.0030   33.1770 C.ar  1582  HEC1582     0.0000
     19  C2B       86.3520   18.7240   33.7030 C.ar  1582  HEC1582     0.0000
     20  C3B       86.6500   19.7300   32.8560 C.ar  1582  HEC1582     0.0000
     21  C4B       85.7030   19.6800   31.7650 C.ar  1582  HEC1582     0.0000
     22  CMB       87.1090   18.3310   34.9960 C.3   1582  HEC1582     0.0000
     23  CAB       87.8200   20.7640   32.9630 C.3   1582  HEC1582     0.0000
     24  CBB       89.1180   20.0670   32.5000 C.3   1582  HEC1582     0.0000
     25  NC        84.2740   19.1570   29.2470 N.2   1582  HEC1582     0.0000
     26  C1C       84.9640   20.3260   29.5290 C.2   1582  HEC1582     0.0000
     27  C2C       84.8270   21.2220   28.3940 C.2   1582  HEC1582     0.0000
     28  C3C       84.0900   20.5690   27.4710 C.2   1582  HEC1582     0.0000
     29  C4C       83.7140   19.2670   27.9870 C.2   1582  HEC1582     0.0000
     30  CMC       85.4340   22.6490   28.2770 C.3   1582  HEC1582     0.0000
     31  CAC       83.6570   21.0860   26.0750 C.3   1582  HEC1582     0.0000
     32  CBC       84.9200   21.2020   25.1870 C.3   1582  HEC1582     0.0000
     33  ND        82.3040   16.8470   29.2320 N.ar  1582  HEC1582     0.0000
     34  C1D       82.2200   17.2800   27.9110 C.ar  1582  HEC1582     0.0000
     35  C2D       81.2190   16.4800   27.2340 C.ar  1582  HEC1582     0.0000
     36  C3D       80.6990   15.4950   28.2830 C.ar  1582  HEC1582     0.0000
     37  C4D       81.4340   15.7970   29.5000 C.ar  1582  HEC1582     0.0000
     38  CMD       80.7700   16.5850   25.7560 C.3   1582  HEC1582     0.0000
     39  CAD       79.5930   14.4400   28.0220 C.3   1582  HEC1582     0.0000
     40  CBD       78.3380   14.8810   28.7630 C.3   1582  HEC1582     0.0000
     41  CGD       77.2350   13.8490   28.6710 C.2   1582  HEC1582     0.0000
     42  O1D       77.5180   12.7260   28.1510 O.co2 1582  HEC1582     0.0000
     43  O2D       76.0830   14.1670   29.1200 O.co2 1582  HEC1582     0.0000
@<TRIPOS>BOND
     1    32    31    1
     2    38    35    1
     3    31    28    1
     4    35    34   ar
     5    35    36   ar
     6     5    34    2
     7     5    29    1
     8    28    29    1
     9    28    27    2
    10    34    33   ar
    11    29    25    2
    12    39    36    1
    13    39    40    1
    14    42    41   ar
    15    30    27    1
    16    36    37   ar
    17    27    26    1
    18    41    40    1
    19    41    43   ar
    20    33    37   ar
    21    33     1    1
    22    25    26    1
    23    25     1    1
    24    37     2    2
    25    26     4    2
    26     1    17    1
    27     1     6    1
    28     4    21    1
    29     2     7    1
    30    16    14   ar
    31    15    14   ar
    32    14    13    1
    33    21    17   ar
    34    21    20   ar
    35     7     6    2
    36     7     8    1
    37    17    18   ar
    38     6    10    1
    39    24    23    1
    40    20    23    1
    41    20    19   ar
    42     8    12    1
    43     8     9    2
    44    13    12    1
    45    18    19   ar
    46    18     3    1
    47    10     3    2
    48    10     9    1
    49    19    22    1
    50     9    11    1
