@<TRIPOS>MOLECULE
2ca8_GSH_A_1.pdb
 20 19 0 0 0
SMALL
GASTEIGER

@<TRIPOS>ATOM
      1  N1         2.3080   11.7480   45.4910 N.3   1212  GSH1212    -0.1208
      2  CA1        2.9750   11.5810   44.2050 C.3   1212  GSH1212     0.1948
      3  C1         2.4810   12.6830   43.3080 C.2   1212  GSH1212     0.3819
      4  O11        1.3950   12.4470   42.7320 O.co2 1212  GSH1212    -0.2441
      5  O12        3.0620   13.7770   43.1150 O.co2 1212  GSH1212    -0.2441
      6  CB1        4.4960   11.3880   44.3380 C.3   1212  GSH1212     0.0402
      7  CG1        5.2740   11.5260   43.0410 C.3   1212  GSH1212     0.0889
      8  CD1        6.2530   10.3940   42.8220 C.2   1212  GSH1212     0.2418
      9  OE1        6.0640    9.1260   43.3980 O.2   1212  GSH1212    -0.2733
     10  N2         7.2810   10.6760   42.0320 N.am  1212  GSH1212    -0.1968
     11  CA2        8.1550    9.6890   41.4380 C.3   1212  GSH1212     0.1843
     12  C2         9.5330   10.2040   41.5850 C.2   1212  GSH1212     0.2627
     13  O2         9.6970   11.5960   41.4990 O.2   1212  GSH1212    -0.2714
     14  CB2        7.9220    9.5420   39.9430 C.3   1212  GSH1212     0.0997
     15  SG2        6.2420    8.9890   39.5710 S.3   1212  GSH1212    -0.0797
     16  N3        10.5000    9.3110   41.7800 N.am  1212  GSH1212    -0.1917
     17  CA3       11.8710    9.5590   41.3660 C.3   1212  GSH1212     0.2285
     18  C3        12.6540   10.1250   42.5210 C.2   1212  GSH1212     0.3865
     19  O31       13.7860   10.6260   42.3610 O.co2 1212  GSH1212    -0.2437
     20  O32       12.1630   10.1010   43.6650 O.co2 1212  GSH1212    -0.2437
@<TRIPOS>BOND
     1    15    14    1
     2    14    11    1
     3    17    16    1
     4    17    18    1
     5    11    12    1
     6    11    10    1
     7    13    12    2
     8    12    16   am
     9    10     8   am
    10    19    18   ar
    11    18    20   ar
    12     4     3   ar
    13     8     7    1
    14     8     9    2
    15     7     6    1
    16     5     3   ar
    17     3     2    1
    18     2     6    1
    19     2     1    1
