@<TRIPOS>MOLECULE
2can_PLP_A_1.pdb
 15 15 0 0 0
SMALL
GASTEIGER

@<TRIPOS>ATOM
      1  N1        55.5570   46.6910   18.9200 N.ar    2  PLP2       -0.2452
      2  C2        56.0260   47.9820   19.0130 C.ar    2  PLP2        0.0978
      3  C2A       55.9660   48.7040   20.3190 C.3     2  PLP2        0.0555
      4  C3        56.4900   48.6440   17.9120 C.ar    2  PLP2        0.2049
      5  O3        56.8180   49.9730   18.0310 O.3     2  PLP2       -0.2857
      6  C4        56.4570   47.9920   16.6720 C.ar    2  PLP2        0.0182
      7  C4A       56.7430   48.6560   15.4450 C.3     2  PLP2        0.0342
      8  C5        55.9980   46.6640   16.6170 C.ar    2  PLP2        0.0261
      9  C6        55.5520   46.0350   17.7290 C.ar    2  PLP2        0.0965
     10  C5A       55.8370   45.9340   15.3140 C.3     2  PLP2        0.1815
     11  O4P       57.0560   45.4960   14.7290 O.3     2  PLP2       -0.2653
     12  P         57.2020   45.2120   13.1180 P.3     2  PLP2        0.5329
     13  O1P       56.4840   43.9850   12.6810 O.3     2  PLP2       -0.1145
     14  O2P       58.7540   44.6850   13.1230 O.3     2  PLP2       -0.1145
     15  O3P       57.1230   46.4630   12.3280 O.2     2  PLP2       -0.2224
@<TRIPOS>BOND
     1    15    12    2
     2    13    12    1
     3    12    14    1
     4    12    11    1
     5    11    10    1
     6    10     8    1
     7     7     6    1
     8     8     6   ar
     9     8     9   ar
    10     6     4   ar
    11     9     1   ar
    12     4     5    1
    13     4     2   ar
    14     1     2   ar
    15     2     3    1
