@<TRIPOS>MOLECULE
2caq_GSH_A_1.pdb
 20 19 0 0 0
SMALL
GASTEIGER

@<TRIPOS>ATOM
      1  O12        1.2220   12.4170   42.6790 O.co2 1208  GSH1208    -0.2441
      2  C1         2.3190   12.7820   43.0880 C.2   1208  GSH1208     0.3819
      3  O11        2.8890   13.8370   42.6940 O.co2 1208  GSH1208    -0.2441
      4  CA1        2.8280   11.7390   44.0550 C.3   1208  GSH1208     0.1948
      5  N1         2.0970   11.7820   45.3270 N.3   1208  GSH1208    -0.1208
      6  CB1        4.3340   11.6190   44.2190 C.3   1208  GSH1208     0.0402
      7  CG1        5.1030   11.6630   42.9190 C.3   1208  GSH1208     0.0889
      8  CD1        6.1750   10.5900   42.7820 C.2   1208  GSH1208     0.2418
      9  OE1        6.0860    9.3870   43.3390 O.2   1208  GSH1208    -0.2733
     10  N2         7.1580   10.8910   42.0610 N.am  1208  GSH1208    -0.1968
     11  CA2        8.2070    9.9450   41.7700 C.3   1208  GSH1208     0.1846
     12  CB2        7.7080    9.4810   40.3940 C.3   1208  GSH1208     0.0997
     13  SG2        8.9180    8.4200   39.5640 S.3   1208  GSH1208    -0.0797
     14  C2         9.5620   10.5910   41.6960 C.2   1208  GSH1208     0.2666
     15  O2         9.7130   11.7880   41.1390 O.2   1208  GSH1208    -0.2711
     16  N3        10.4830    9.8930   42.2320 N.am  1208  GSH1208    -0.1695
     17  CA3       11.9250    9.8580   42.5220 C.2   1208  GSH1208     0.1746
     18  C3        12.8230   10.9940   42.1720 C.2   1208  GSH1208     0.4043
     19  O31       12.3430   12.1310   41.9080 O.co2 1208  GSH1208    -0.2390
     20  O32       14.0500   10.7530   42.1780 O.co2 1208  GSH1208    -0.2390
@<TRIPOS>BOND
     1    13    12    1
     2    12    11    1
     3    15    14    2
     4    14    11    1
     5    14    16    1
     6    11    10    1
     7    19    18   ar
     8    10     8   am
     9    18    20   ar
    10    18    17    1
    11    16    17    2
    12     1     2   ar
    13     3     2   ar
    14     8     7    1
    15     8     9    2
    16     7     6    1
    17     2     4    1
    18     4     6    1
    19     4     5    1
