@<TRIPOS>MOLECULE
2cb8_MYA_A_1.pdb
 27 29 0 0 0
SMALL
GASTEIGER

@<TRIPOS>ATOM
      1  N6A       28.3790   18.2150   34.8710 N.pl3 1088  MYA1088     0.2180
      2  C6A       27.9710   19.3210   35.5160 C.2   1088  MYA1088     0.4393
      3  N1A       26.8700   19.2660   36.2860 N.2   1088  MYA1088     0.0021
      4  C2A       26.4250   20.3580   36.9260 C.3   1088  MYA1088     0.5254
      5  N3A       27.0570   21.5370   36.8510 N.2   1088  MYA1088    -0.0055
      6  C4A       28.2360   21.5890   36.0400 C.2   1088  MYA1088     0.3518
      7  C5A       28.7010   20.4930   35.3900 C.2   1088  MYA1088     0.2526
      8  N9A       28.9830   22.6550   35.8390 N.pl3 1088  MYA1088    -0.1439
      9  N7A       29.8010   20.8880   34.7420 N.2   1088  MYA1088    -0.2095
     10  C8A       29.9790   22.2120   35.0200 C.3   1088  MYA1088     0.3377
     11  P3X       29.3210   28.1970   37.8200 P.3   1088  MYA1088     0.5327
     12  O7A       28.3000   28.9100   36.9370 O.2   1088  MYA1088    -0.2224
     13  O8A       30.5890   28.8100   37.3290 O.3   1088  MYA1088    -0.1145
     14  O9A       28.8460   28.3560   39.2230 O.3   1088  MYA1088    -0.1145
     15  O3X       28.9660   26.7500   37.2650 O.3   1088  MYA1088    -0.2673
     16  P1A       28.0700   27.5810   31.8900 P.3   1088  MYA1088     0.5327
     17  O2A       27.0970   26.5410   31.2630 O.2   1088  MYA1088    -0.2224
     18  O1A       29.4970   27.7560   31.3870 O.3   1088  MYA1088    -0.1145
     19  O3A       27.3830   28.9800   31.8200 O.3   1088  MYA1088    -0.1145
     20  O5X       28.2090   27.2350   33.4000 O.3   1088  MYA1088    -0.2675
     21  C4X       28.0250   25.8900   35.2360 C.3   1088  MYA1088     0.1796
     22  O4X       27.7410   24.5320   35.5270 O.3   1088  MYA1088    -0.3136
     23  C1X       28.7580   23.9980   36.3620 C.3   1088  MYA1088     0.3185
     24  C2X       29.9520   24.9090   36.1470 C.3   1088  MYA1088     0.2543
     25  O2X       30.8340   24.8430   37.2540 O.3   1088  MYA1088    -0.2131
     26  C3X       29.3100   26.2620   35.9680 C.3   1088  MYA1088     0.1928
     27  C5X       28.1670   25.8740   33.7350 C.3   1088  MYA1088     0.1859
@<TRIPOS>BOND
     1    17    16    2
     2    18    16    1
     3    19    16    1
     4    16    20    1
     5    20    27    1
     6    27    21    1
     7     9    10    1
     8     9     7    2
     9     1     2    1
    10    10     8    1
    11    21    22    1
    12    21    26    1
    13     7     2    1
    14     7     6    1
    15     2     3    2
    16    22    23    1
    17     8     6    1
    18     8    23    1
    19    26    24    1
    20    26    15    1
    21     6     5    2
    22    24    23    1
    23    24    25    1
    24     3     4    1
    25     5     4    1
    26    12    11    2
    27    15    11    1
    28    13    11    1
    29    11    14    1
