@<TRIPOS>MOLECULE
2cbf_SAH_A_1.pdb
 26 28 0 0 0
SMALL
GASTEIGER

@<TRIPOS>ATOM
      1  N        -11.8000   34.9850   20.1200 N.3   300  SAH300     -0.1208
      2  CA       -12.6510   34.3000   19.1300 C.3   300  SAH300      0.1952
      3  CB       -11.9430   33.5600   17.9740 C.3   300  SAH300      0.0422
      4  CG       -10.8300   34.1830   17.1690 C.3   300  SAH300      0.0597
      5  SD        -9.9500   32.9060   16.3290 S.3   300  SAH300     -0.1375
      6  C        -14.0120   33.8530   19.6160 C.2   300  SAH300      0.3819
      7  O        -14.0970   33.8440   20.8080 O.co2 300  SAH300     -0.2441
      8  OXT      -15.0070   33.4910   18.9430 O.co2 300  SAH300     -0.2441
      9  C5'      -11.0650   33.2610   14.8310 C.3   300  SAH300      0.0899
     10  C4'      -11.7590   31.9670   14.5320 C.3   300  SAH300      0.1630
     11  O4'      -12.9670   32.1260   15.3370 O.3   300  SAH300     -0.3153
     12  C3'      -12.2710   31.5980   13.1490 C.3   300  SAH300      0.2168
     13  O3'      -11.4430   30.4930   12.5190 O.3   300  SAH300     -0.2175
     14  C2'      -13.5560   30.7640   13.4120 C.3   300  SAH300      0.2569
     15  O2'      -12.9360   29.4920   13.7280 O.3   300  SAH300     -0.2130
     16  C1'      -13.9810   31.4920   14.6290 C.3   300  SAH300      0.3185
     17  N9       -14.9190   32.4660   14.5140 N.pl3 300  SAH300     -0.1439
     18  C8       -15.0510   33.6090   15.1580 C.3   300  SAH300      0.3377
     19  N7       -16.0300   34.3630   14.5250 N.2   300  SAH300     -0.2095
     20  C5       -16.8210   33.4920   14.0100 C.2   300  SAH300      0.2526
     21  C6       -18.1550   33.4520   13.5490 C.2   300  SAH300      0.4393
     22  N6       -18.9970   34.4100   13.7030 N.pl3 300  SAH300      0.2180
     23  N1       -18.7100   32.4110   12.9710 N.2   300  SAH300      0.0021
     24  C2       -18.0950   31.2530   13.3120 C.3   300  SAH300      0.5254
     25  N3       -16.8540   31.2010   13.7810 N.2   300  SAH300     -0.0055
     26  C4       -16.1510   32.3560   13.9380 C.2   300  SAH300      0.3518
@<TRIPOS>BOND
     1    13    12    1
     2    23    24    1
     3    23    21    2
     4    12    14    1
     5    12    10    1
     6    24    25    1
     7    14    15    1
     8    14    16    1
     9    21    22    1
    10    21    20    1
    11    25    26    2
    12    26    20    1
    13    26    17    1
    14    20    19    2
    15    17    16    1
    16    17    18    1
    17    19    18    1
    18    10     9    1
    19    10    11    1
    20    16    11    1
    21     9     5    1
    22     5     4    1
    23     4     3    1
    24     3     2    1
    25     8     6   ar
    26     2     6    1
    27     2     1    1
    28     6     7   ar
