@<TRIPOS>MOLECULE
2cbg_PMS_A_1.pdb
 10 10 0 0 0
SMALL
GASTEIGER

@<TRIPOS>ATOM
      1  C         28.3070   16.0650   10.9730 C.3   1225  PMS1225     0.1742
      2  C1        26.8710   16.5120   10.9380 C.ar  1225  PMS1225     0.0010
      3  C2        25.8800   15.6940   11.5130 C.ar  1225  PMS1225    -0.0026
      4  C3        24.5170   16.1270   11.4680 C.ar  1225  PMS1225    -0.0003
      5  C4        24.1700   17.3700   10.8820 C.ar  1225  PMS1225    -0.0000
      6  C5        25.1880   18.1730   10.3260 C.ar  1225  PMS1225    -0.0003
      7  C6        26.5560   17.7340   10.3540 C.ar  1225  PMS1225    -0.0026
      8  S         29.2180   17.2050   12.0470 S.3   1225  PMS1225    -0.0138
      9  O1S       30.5670   16.6630   12.2530 O.3   1225  PMS1225    -0.0778
     10  O2S       28.4300   17.5070   13.3220 O.3   1225  PMS1225    -0.0778
@<TRIPOS>BOND
     1     6     7   ar
     2     6     5   ar
     3     7     2   ar
     4     5     4   ar
     5     2     1    1
     6     2     3   ar
     7     1     8    1
     8     4     3   ar
     9     8     9    1
    10     8    10    1
