@<TRIPOS>MOLECULE
2cbj_OAN_A_1.pdb
 25 26 0 0 0
SMALL
GASTEIGER

@<TRIPOS>ATOM
      1  CAH       36.3610   41.1260   22.3470 C.3   1625  OAN1625     0.0964
      2  CAG       34.8320   41.1180   22.1590 C.2   1625  OAN1625     0.2423
      3  OAN       34.1590   40.1370   22.4990 O.2   1625  OAN1625    -0.2733
      4  NAI       34.3300   42.2390   21.6190 N.am  1625  OAN1625    -0.1948
      5  CAB       32.8900   42.4920   21.4040 C.3   1625  OAN1625     0.2065
      6  CAC       32.2170   42.7650   22.7850 C.3   1625  OAN1625     0.2146
      7  OAJ       32.2670   44.1500   23.1080 O.3   1625  OAN1625    -0.2179
      8  CAD       30.7780   42.2830   22.8100 C.3   1625  OAN1625     0.2266
      9  OAK       30.1620   42.6060   24.0510 O.3   1625  OAN1625    -0.2163
     10  CAE       30.7730   40.7580   22.5960 C.3   1625  OAN1625     0.2328
     11  CAF       29.4330   39.9750   22.7330 C.3   1625  OAN1625     0.2281
     12  OAM       28.3700   40.6860   22.0980 O.3   1625  OAN1625    -0.2163
     13  OAL       31.3210   40.4870   21.2800 O.2   1625  OAN1625    -0.4583
     14  CAA       32.1910   41.3470   20.6590 C.2   1625  OAN1625     0.2599
     15  NAY       32.4020   41.1960   19.3420 N.2   1625  OAN1625    -0.0369
     16  OAQ       31.8010   40.2090   18.5730 O.3   1625  OAN1625    -0.2944
     17  CAP       31.1530   40.6970   17.4770 C.2   1625  OAN1625     0.4504
     18  OAR       31.5130   41.7790   16.9930 O.2   1625  OAN1625    -0.2218
     19  NAO       30.1400   39.9400   16.9710 N.am  1625  OAN1625    -0.1406
     20  CAS       29.3650   40.2860   15.8890 C.ar  1625  OAN1625     0.0768
     21  CAT       29.8740   40.9900   14.7690 C.ar  1625  OAN1625     0.0167
     22  CAU       29.0530   41.3450   13.6810 C.ar  1625  OAN1625     0.0013
     23  CAV       27.7010   41.0000   13.6980 C.ar  1625  OAN1625     0.0001
     24  CAW       27.1720   40.2930   14.7890 C.ar  1625  OAN1625     0.0013
     25  CAX       28.0010   39.9390   15.8650 C.ar  1625  OAN1625     0.0167
@<TRIPOS>BOND
     1    22    23   ar
     2    22    21   ar
     3    23    24   ar
     4    21    20   ar
     5    24    25   ar
     6    25    20   ar
     7    20    19    1
     8    19    17   am
     9    18    17    2
    10    17    16    1
    11    16    15    1
    12    15    14    2
    13    14    13    1
    14    14     5    1
    15    13    10    1
    16     5     4    1
    17     5     6    1
    18     4     2   am
    19    12    11    1
    20     2     1    1
    21     2     3    2
    22    10    11    1
    23    10     8    1
    24     6     8    1
    25     6     7    1
    26     8     9    1
