@<TRIPOS>MOLECULE
2cbo_TH2_A_1.pdb
 28 31 0 0 0
SMALL
GASTEIGER

@<TRIPOS>ATOM
      1  C1         7.6170   16.9600    7.0650 C.3   120  TH2120      0.0118
      2  C2         8.4960   17.2380    5.8100 C.3   120  TH2120      0.0694
      3  C3         9.8690   16.5960    5.8420 C.2   120  TH2120      0.1725
      4  O3        10.7650   16.9230    5.1080 O.2   120  TH2120     -0.2914
      5  C4        10.0840   15.5000    6.8000 C.2   120  TH2120      0.0289
      6  C5         9.1050   14.9530    7.5930 C.2   120  TH2120     -0.0420
      7  C6         9.4750   13.7890    8.5100 C.3   120  TH2120      0.0221
      8  C7         8.7230   13.7500    9.8540 C.3   120  TH2120      0.0044
      9  C8         7.2050   14.0110    9.6730 C.3   120  TH2120      0.0007
     10  C9         6.9460   15.3650    8.9690 C.3   120  TH2120      0.0035
     11  C10        7.6150   15.4580    7.5430 C.3   120  TH2120      0.0157
     12  C11        5.4280   15.7820    8.8130 C.3   120  TH2120      0.0004
     13  C12        4.7210   15.6770   10.1990 C.3   120  TH2120      0.0035
     14  C13        4.9010   14.2710   10.8350 C.3   120  TH2120      0.0369
     15  C14        6.4340   14.0140   11.0100 C.3   120  TH2120      0.0035
     16  C15        6.5220   12.7550   11.9150 C.3   120  TH2120      0.0038
     17  C16        5.2450   12.8560   12.7960 C.3   120  TH2120      0.0436
     18  C17        4.5080   14.1480   12.3240 C.3   120  TH2120      0.1686
     19  O17        3.0800   14.0390   12.4810 O.3   120  TH2120     -0.4523
     20  C18        4.1730   13.1830    9.9650 C.3   120  TH2120      0.0036
     21  C20        2.4910   13.9260   13.4760 C.2   120  TH2120      0.3174
     22  O20        2.9780   14.2340   14.5920 O.2   120  TH2120     -0.2501
     23  C21        0.9090   12.1530   12.9060 C.3   120  TH2120      0.1257
     24  C22        1.0750   13.4920   13.6570 C.3   120  TH2120      0.1213
     25  C23       -0.5540   11.8100   12.7800 C.2   120  TH2120      0.3654
     26  O23       -0.8200   10.5910   12.6460 O.co2 120  TH2120     -0.2456
     27  O24       -1.4190   12.7330   12.9310 O.co2 120  TH2120     -0.2456
     28  C19        6.8780   14.5370    6.5160 C.3   120  TH2120      0.0041
@<TRIPOS>BOND
     1     4     3    2
     2     2     3    1
     3     2     1    1
     4     3     5    1
     5    28    11    1
     6     5     6    2
     7     1    11    1
     8    11     6    1
     9    11    10    1
    10     6     7    1
    11     7     8    1
    12    12    10    1
    13    12    13    1
    14    10     9    1
    15     9     8    1
    16     9    15    1
    17    20    14    1
    18    13    14    1
    19    14    15    1
    20    14    18    1
    21    15    16    1
    22    16    17    1
    23    18    19    1
    24    18    17    1
    25    19    21    1
    26    26    25   ar
    27    25    23    1
    28    25    27   ar
    29    23    24    1
    30    21    24    1
    31    21    22    2
