@<TRIPOS>MOLECULE
2cbq_TH2_A_1.pdb
 28 31 0 0 0
SMALL
GASTEIGER

@<TRIPOS>ATOM
      1  C1         8.2700   35.5960   10.9370 C.3   1114  TH21114     0.0118
      2  C2         6.9470   36.3960   10.9190 C.3   1114  TH21114     0.0694
      3  C3         5.9490   35.8280    9.9630 C.2   1114  TH21114     0.1725
      4  O3         5.3350   36.4680    9.1570 O.2   1114  TH21114    -0.2914
      5  C4         5.7280   34.3910   10.1040 C.2   1114  TH21114     0.0289
      6  C5         6.6500   33.5710   10.6890 C.2   1114  TH21114    -0.0420
      7  C6         6.3800   32.0960   10.8390 C.3   1114  TH21114     0.0221
      8  C7         7.4670   31.2720   10.1560 C.3   1114  TH21114     0.0044
      9  C8         8.8450   31.6330   10.7890 C.3   1114  TH21114     0.0007
     10  C9         9.1520   33.1630   10.5860 C.3   1114  TH21114     0.0035
     11  C10        8.0430   34.0790   11.2690 C.3   1114  TH21114     0.0157
     12  C11       10.5470   33.5920   11.1780 C.3   1114  TH21114     0.0004
     13  C12       11.6240   32.7080   10.4790 C.3   1114  TH21114     0.0035
     14  C13       11.4000   31.1870   10.7460 C.3   1114  TH21114     0.0369
     15  C14        9.9960   30.8340   10.1200 C.3   1114  TH21114     0.0035
     16  C15        9.8940   29.3130   10.1800 C.3   1114  TH21114     0.0038
     17  C16       11.3570   28.8710    9.9680 C.3   1114  TH21114     0.0436
     18  C17       12.2580   30.1630    9.9330 C.3   1114  TH21114     0.1686
     19  O17       13.6700   30.1130    9.9840 O.3   1114  TH21114    -0.4523
     20  C18       11.5740   30.8700   12.2740 C.3   1114  TH21114     0.0036
     21  C20       14.4570   29.9750    8.9910 C.2   1114  TH21114     0.3174
     22  O20       14.6560   30.6850    7.9720 O.2   1114  TH21114    -0.2501
     23  C21       16.2450   28.7200   10.1700 C.3   1114  TH21114     0.1257
     24  C22       15.2400   28.7060    9.0040 C.3   1114  TH21114     0.1213
     25  C23       17.3590   27.7200    9.8780 C.2   1114  TH21114     0.3654
     26  O23       17.1380   26.5200   10.1820 O.co2 1114  TH21114    -0.2456
     27  O24       18.4300   28.1600    9.3370 O.co2 1114  TH21114    -0.2456
     28  C19        8.0390   33.8600   12.8170 C.3   1114  TH21114     0.0041
@<TRIPOS>BOND
     1    22    21    2
     2    21    24    1
     3    21    19    1
     4    24    23    1
     5     4     3    2
     6    27    25   ar
     7    25    23    1
     8    25    26   ar
     9    18    17    1
    10    18    19    1
    11    18    14    1
    12     3     5    1
    13     3     2    1
    14    17    16    1
    15     5     6    2
    16    15    16    1
    17    15    14    1
    18    15     9    1
    19     8     9    1
    20     8     7    1
    21    13    14    1
    22    13    12    1
    23    10     9    1
    24    10    12    1
    25    10    11    1
    26     6     7    1
    27     6    11    1
    28    14    20    1
    29     2     1    1
    30     1    11    1
    31    11    28    1
