@<TRIPOS>MOLECULE
2cbr_A80_A_1.pdb
 26 28 0 0 0
SMALL
GASTEIGER

@<TRIPOS>ATOM
      1  C1        29.0760   81.9550    5.4700 C.3   201  A80201      0.0187
      2  C2        29.3930   82.3310    4.0090 C.3   201  A80201      0.0044
      3  C3        28.4650   83.4730    3.4930 C.3   201  A80201      0.0044
      4  C4        27.0040   83.0070    3.3910 C.3   201  A80201      0.0186
      5  C5        26.5340   82.2560    4.6970 C.ar  201  A80201     -0.0267
      6  C6        25.1590   82.0750    4.9840 C.ar  201  A80201     -0.0033
      7  C7        24.7380   81.4320    6.1560 C.ar  201  A80201      0.0163
      8  C8        25.6800   80.9390    7.1100 C.ar  201  A80201      0.0733
      9  C9        27.0620   81.1260    6.8810 C.ar  201  A80201      0.0120
     10  C10       27.5330   81.7750    5.7020 C.ar  201  A80201     -0.0255
     11  N11       25.2850   80.2390    8.3010 N.am  201  A80201     -0.1755
     12  C12       24.0040   79.9950    8.7070 C.2   201  A80201      0.2690
     13  C13       23.7550   79.2120    9.9550 C.ar  201  A80201      0.0554
     14  C14       24.8390   78.7470   10.7410 C.ar  201  A80201      0.0048
     15  C15       24.5880   77.9720   11.8920 C.ar  201  A80201      0.0067
     16  C16       23.2550   77.6580   12.2650 C.ar  201  A80201      0.0798
     17  C17       22.1720   78.1300   11.4870 C.ar  201  A80201      0.0067
     18  C18       22.4160   78.8980   10.3380 C.ar  201  A80201      0.0048
     19  C19       22.9980   76.8480   13.4320 C.2   201  A80201      0.3878
     20  C20       29.6360   83.0620    6.3710 C.3   201  A80201      0.0044
     21  C21       29.8010   80.6620    5.8440 C.3   201  A80201      0.0044
     22  C22       26.1020   84.2180    3.1130 C.3   201  A80201      0.0044
     23  C23       26.8940   82.0640    2.1860 C.3   201  A80201      0.0044
     24  O24       23.0300   80.3960    8.0500 O.2   201  A80201     -0.2680
     25  O25       23.2590   75.6160   13.4090 O.co2 201  A80201     -0.2406
     26  O26       22.2950   77.3000   14.3450 O.co2 201  A80201     -0.2406
@<TRIPOS>BOND
     1    23     4    1
     2    22     4    1
     3     4     3    1
     4     4     5    1
     5     3     2    1
     6     2     1    1
     7     5     6   ar
     8     5    10   ar
     9     6     7   ar
    10     1    10    1
    11     1    21    1
    12     1    20    1
    13    10     9   ar
    14     7     8   ar
    15     9     8   ar
    16     8    11    1
    17    24    12    2
    18    11    12   am
    19    12    13    1
    20    13    18   ar
    21    13    14   ar
    22    18    17   ar
    23    14    15   ar
    24    17    16   ar
    25    15    16   ar
    26    16    19    1
    27    25    19   ar
    28    19    26   ar
