@<TRIPOS>MOLECULE
2cbs_R13_A_1.pdb
 25 26 0 0 0
SMALL
GASTEIGER

@<TRIPOS>ATOM
      1  C1        22.0320   30.5980   16.0950 C.3   200  R13200      0.0186
      2  C2        21.0690   31.2690   15.0880 C.3   200  R13200      0.0044
      3  C3        20.4100   30.2440   14.1100 C.3   200  R13200      0.0044
      4  C4        19.5380   29.1960   14.8440 C.3   200  R13200      0.0186
      5  C5        20.2690   28.6070   16.1040 C.ar  200  R13200     -0.0268
      6  C6        19.7760   27.4010   16.7060 C.ar  200  R13200     -0.0046
      7  C7        20.4030   26.8550   17.8480 C.ar  200  R13200     -0.0007
      8  C8        21.5450   27.4930   18.4030 C.ar  200  R13200     -0.0043
      9  C9        22.0610   28.6780   17.8210 C.ar  200  R13200     -0.0049
     10  C10       21.4400   29.2640   16.6850 C.ar  200  R13200     -0.0268
     11  C11       22.2470   26.9180   19.6740 C.2   200  R13200     -0.0219
     12  C12       21.6600   25.8630   20.3090 C.2   200  R13200     -0.0043
     13  C13       22.1540   25.3030   21.4780 C.2   200  R13200     -0.0006
     14  C14       21.4580   24.2850   22.1120 C.2   200  R13200     -0.0041
     15  C15       21.9040   23.7090   23.3140 C.2   200  R13200     -0.0153
     16  C16       21.1190   22.7080   23.9000 C.2   200  R13200      0.0819
     17  C17       21.3750   21.9950   25.1620 C.2   200  R13200      0.3876
     18  C18       18.2110   29.8240   15.2730 C.3   200  R13200      0.0044
     19  C19       19.2060   28.0870   13.8430 C.3   200  R13200      0.0044
     20  C20       22.2800   31.6070   17.2230 C.3   200  R13200      0.0044
     21  C21       23.3810   30.3210   15.4280 C.3   200  R13200      0.0044
     22  C22       23.5570   27.5550   20.1970 C.3   200  R13200      0.0310
     23  C23       23.2240   24.1810   23.9910 C.3   200  R13200      0.0312
     24  O1        22.4180   21.3230   25.2820 O.co2 200  R13200     -0.2406
     25  O2        20.5490   22.0950   26.0900 O.co2 200  R13200     -0.2406
@<TRIPOS>BOND
     1    19     4    1
     2     3     4    1
     3     3     2    1
     4     4    18    1
     5     4     5    1
     6     2     1    1
     7    21     1    1
     8     1    10    1
     9     1    20    1
    10     5    10   ar
    11     5     6   ar
    12    10     9   ar
    13     6     7   ar
    14     9     8   ar
    15     7     8   ar
    16     8    11    1
    17    11    22    1
    18    11    12    2
    19    12    13    1
    20    13    14    2
    21    14    15    1
    22    15    16    2
    23    15    23    1
    24    16    17    1
    25    17    24   ar
    26    17    25   ar
