@<TRIPOS>MOLECULE
2cbt_TH2_A_1.pdb
 28 31 0 0 0
SMALL
GASTEIGER

@<TRIPOS>ATOM
      1  C1       -20.3440  -12.1650   -3.6000 C.3   1120  TH21120     0.0118
      2  C2       -19.0420  -11.3340   -3.3760 C.3   1120  TH21120     0.0694
      3  C3       -18.2210  -11.8210   -2.2270 C.2   1120  TH21120     0.1725
      4  O3       -17.7210  -11.1260   -1.3960 O.2   1120  TH21120    -0.2914
      5  C4       -18.0040  -13.2570   -2.2100 C.2   1120  TH21120     0.0289
      6  C5       -18.7980  -14.1330   -2.8900 C.2   1120  TH21120    -0.0420
      7  C6       -18.5030  -15.6110   -2.8530 C.3   1120  TH21120     0.0221
      8  C7       -19.7110  -16.4040   -2.3540 C.3   1120  TH21120     0.0044
      9  C8       -20.9170  -16.1220   -3.3060 C.3   1120  TH21120     0.0007
     10  C9       -21.2640  -14.5870   -3.2970 C.3   1120  TH21120     0.0035
     11  C10      -20.0330  -13.6940   -3.7830 C.3   1120  TH21120     0.0157
     12  C11      -22.4920  -14.2290   -4.2180 C.3   1120  TH21120     0.0004
     13  C12      -23.6980  -15.0770   -3.7240 C.3   1120  TH21120     0.0035
     14  C13      -23.4070  -16.6070   -3.8070 C.3   1120  TH21120     0.0369
     15  C14      -22.1920  -16.8850   -2.8530 C.3   1120  TH21120     0.0035
     16  C15      -22.0910  -18.3990   -2.7510 C.3   1120  TH21120     0.0038
     17  C16      -23.5580  -18.8430   -2.8490 C.3   1120  TH21120     0.0436
     18  C17      -24.4430  -17.5820   -3.1570 C.3   1120  TH21120     0.1686
     19  O17      -25.7890  -17.6650   -3.6020 O.3   1120  TH21120    -0.4523
     20  C18      -23.2000  -17.0620   -5.2870 C.3   1120  TH21120     0.0036
     21  C20      -26.8510  -17.8170   -2.8890 C.2   1120  TH21120     0.3174
     22  O20      -27.0290  -17.8580   -1.6300 O.2   1120  TH21120    -0.2501
     23  C21      -27.8710  -19.2090   -4.6840 C.3   1120  TH21120     0.1257
     24  C22      -28.0940  -18.0490   -3.7000 C.3   1120  TH21120     0.1213
     25  C23      -28.8910  -20.3370   -4.4380 C.2   1120  TH21120     0.3654
     26  O23      -30.1020  -20.0880   -4.7030 O.co2 1120  TH21120    -0.2456
     27  O24      -28.4420  -21.4560   -3.9750 O.co2 1120  TH21120    -0.2456
     28  C19      -19.6870  -14.0160   -5.2730 C.3   1120  TH21120     0.0041
@<TRIPOS>BOND
     1    20    14    1
     2    28    11    1
     3    26    25   ar
     4    23    25    1
     5    23    24    1
     6    25    27   ar
     7    12    13    1
     8    12    10    1
     9    14    13    1
    10    14    18    1
    11    14    15    1
    12    11     1    1
    13    11    10    1
    14    11     6    1
    15    24    21    1
    16    19    18    1
    17    19    21    1
    18     1     2    1
    19     2     3    1
    20     9    10    1
    21     9    15    1
    22     9     8    1
    23    18    17    1
    24     6     7    1
    25     6     5    2
    26    21    22    2
    27    15    16    1
    28     7     8    1
    29    17    16    1
    30     3     5    1
    31     3     4    2
