@<TRIPOS>MOLECULE
2cbu_CTS_A_1.pdb
 13 14 0 0 0
SMALL
GASTEIGER

@<TRIPOS>ATOM
      1  C1        -0.5070   10.8440   10.6270 C.3   1447  CTS1447     0.1082
      2  C2         0.3330   11.6930    9.6800 C.3   1447  CTS1447     0.2006
      3  C3        -0.2730   11.9170    8.2970 C.3   1447  CTS1447     0.2150
      4  C4        -1.0850   10.6940    7.8910 C.3   1447  CTS1447     0.2017
      5  C5        -2.3280   10.6590    8.7820 C.3   1447  CTS1447     0.1215
      6  C6        -3.1010    9.3570    8.7240 C.3   1447  CTS1447     0.1704
      7  O2         0.5420   12.9510   10.3040 O.3   1447  CTS1447    -0.2188
      8  O3         0.8230   12.2310    7.4310 O.3   1447  CTS1447    -0.2176
      9  O4        -1.5210   10.8180    6.5390 O.3   1447  CTS1447    -0.2188
     10  O6        -2.2500    8.1960    8.8240 O.3   1447  CTS1447    -0.2216
     11  N         -1.8710   10.5690   10.1820 N.3   1447  CTS1447    -0.2673
     12  C7        -3.8450    9.3820   10.0520 C.3   1447  CTS1447     0.0517
     13  C8        -2.8230    9.8740   11.0510 C.3   1447  CTS1447     0.0749
@<TRIPOS>BOND
     1     9     4    1
     2     8     3    1
     3     4     3    1
     4     4     5    1
     5     3     2    1
     6     6     5    1
     7     6    10    1
     8     6    12    1
     9     5    11    1
    10     2     7    1
    11     2     1    1
    12    12    13    1
    13    11     1    1
    14    11    13    1
