@<TRIPOS>MOLECULE
2cbv_CGB_A_1.pdb
 12 13 0 0 0
SMALL
GASTEIGER

@<TRIPOS>ATOM
      1  O2         0.5890   12.8770   10.4180 O.3   1447  CGB1447    -0.2050
      2  C2         0.0470   11.6450    9.9450 C.3   1447  CGB1447     0.2165
      3  N1        -1.0440   11.1990   10.7870 N.3   1447  CGB1447    -0.1891
      4  C8         1.0120   10.4680   10.0590 C.3   1447  CGB1447     0.0516
      5  C7         0.1160    9.2460   10.2830 C.3   1447  CGB1447     0.0242
      6  C6        -1.3000    9.8280   10.4470 C.3   1447  CGB1447     0.1083
      7  C3        -0.4540   11.7630    8.4880 C.3   1447  CGB1447     0.2276
      8  O3         0.6860   12.0520    7.6640 O.3   1447  CGB1447    -0.2161
      9  C4        -1.1870   10.4680    8.0340 C.3   1447  CGB1447     0.2175
     10  O4        -1.9360   10.6990    6.8430 O.3   1447  CGB1447    -0.2175
     11  C5        -2.0920    9.8960    9.1280 C.3   1447  CGB1447     0.2007
     12  O5        -2.5690    8.5760    8.7990 O.3   1447  CGB1447    -0.2188
@<TRIPOS>BOND
     1    10     9    1
     2     8     7    1
     3     9     7    1
     4     9    11    1
     5     7     2    1
     6    12    11    1
     7    11     6    1
     8     2     4    1
     9     2     1    1
    10     2     3    1
    11     4     5    1
    12     5     6    1
    13     6     3    1
