@<TRIPOS>MOLECULE
2cbx_CC5_A_1.pdb
 17 19 0 0 0
SMALL
GASTEIGER

@<TRIPOS>ATOM
      1  N1        23.4850   33.1390  -33.3480 N.2   500  CC5500      0.0021
      2  C2        24.0330   33.8780  -32.3680 C.3   500  CC5500      0.5254
      3  N3        23.5230   33.8810  -31.1410 N.2   500  CC5500     -0.0055
      4  C4        22.4270   33.1450  -30.8880 C.2   500  CC5500      0.3518
      5  N9        21.7100   32.9630  -29.7960 N.pl3 500  CC5500     -0.1439
      6  C8        20.7290   32.1070  -30.0570 C.3   500  CC5500      0.3377
      7  N7        20.8080   31.7410  -31.3360 N.2   500  CC5500     -0.2095
      8  C5        21.8450   32.3600  -31.8760 C.2   500  CC5500      0.2526
      9  C6        22.4060   32.3580  -33.1460 C.2   500  CC5500      0.4393
     10  N6        21.8670   31.6220  -34.1270 N.pl3 500  CC5500      0.2180
     11  C1'       22.0030   33.6000  -28.5110 C.3   500  CC5500      0.3186
     12  C2'       20.7240   34.2900  -28.0820 C.3   500  CC5500      0.2570
     13  C3'       20.5820   33.9140  -26.5890 C.3   500  CC5500      0.2184
     14  C4'       21.9260   33.2480  -26.2820 C.3   500  CC5500      0.1820
     15  O4'       22.1940   32.5740  -27.5620 O.3   500  CC5500     -0.3135
     16  O2'       20.8660   35.6970  -28.3090 O.3   500  CC5500     -0.2130
     17  O3'       20.3870   35.0670  -25.7810 O.3   500  CC5500     -0.2174
@<TRIPOS>BOND
     1    10     9    1
     2     1     9    2
     3     1     2    1
     4     9     8    1
     5     2     3    1
     6     8     7    2
     7     8     4    1
     8     7     6    1
     9     3     4    2
    10     4     5    1
    11     6     5    1
    12     5    11    1
    13    11    12    1
    14    11    15    1
    15    16    12    1
    16    12    13    1
    17    15    14    1
    18    13    14    1
    19    13    17    1
