@<TRIPOS>MOLECULE
2cbz_ATP_A_1.pdb
 31 33 0 0 0
SMALL
GASTEIGER

@<TRIPOS>ATOM
      1  PG       -21.6390   46.5380    6.1560 P.3   1873  ATP1873     0.5373
      2  O1G      -20.3700   46.4390    6.9590 O.3   1873  ATP1873    -0.1143
      3  O2G      -22.1040   45.2090    5.6090 O.2   1873  ATP1873    -0.2221
      4  O3G      -22.7510   47.3510    6.7940 O.3   1873  ATP1873    -0.1143
      5  PB       -20.4670   48.7440    4.7010 P.3   1873  ATP1873     0.2277
      6  O1B      -21.3820   49.9060    4.9470 O.2   1873  ATP1873    -0.5168
      7  O2B      -19.2030   48.6860    5.5020 O.3   1873  ATP1873    -0.4368
      8  O3B      -21.2820   47.3520    4.7910 O.3   1873  ATP1873    -0.2258
      9  PA       -18.7830   48.4910    2.3300 P.3   1873  ATP1873     0.2189
     10  O1A      -18.1920   47.1910    2.7830 O.3   1873  ATP1873    -0.4371
     11  O2A      -17.9360   49.7310    2.3580 O.2   1873  ATP1873    -0.5170
     12  O3A      -20.1500   48.7920    3.1230 O.3   1873  ATP1873    -0.2700
     13  O5'      -19.3930   48.2200    0.8620 O.3   1873  ATP1873    -0.3112
     14  C5'      -19.5630   49.1970   -0.1620 C.3   1873  ATP1873     0.1813
     15  C4'      -18.8580   48.6920   -1.4330 C.3   1873  ATP1873     0.1821
     16  O4'      -17.4480   48.6460   -1.1630 O.3   1873  ATP1873    -0.3135
     17  C3'      -19.2460   47.2590   -1.7870 C.3   1873  ATP1873     0.2184
     18  O3'      -19.3310   47.1290   -3.2130 O.3   1873  ATP1873    -0.2174
     19  C2'      -18.0870   46.4230   -1.2770 C.3   1873  ATP1873     0.2570
     20  O2'      -17.9270   45.1870   -1.9700 O.3   1873  ATP1873    -0.2130
     21  C1'      -16.9180   47.3630   -1.5080 C.3   1873  ATP1873     0.3186
     22  N9       -15.7510   47.0150   -0.6660 N.pl3 1873  ATP1873    -0.1439
     23  C8       -15.6710   47.1300    0.6740 C.3   1873  ATP1873     0.3377
     24  N7       -14.4570   46.7300    1.1340 N.2   1873  ATP1873    -0.2095
     25  C5       -13.7280   46.3530    0.0660 C.2   1873  ATP1873     0.2526
     26  C6       -12.3530   45.8280   -0.1530 C.2   1873  ATP1873     0.4393
     27  N6       -11.5200   45.6290    0.8990 N.pl3 1873  ATP1873     0.2180
     28  N1       -11.9750   45.5590   -1.4290 N.2   1873  ATP1873     0.0021
     29  C2       -12.8090   45.7610   -2.4780 C.3   1873  ATP1873     0.5254
     30  N3       -14.0700   46.2370   -2.3500 N.2   1873  ATP1873    -0.0055
     31  C4       -14.5810   46.5430   -1.1230 C.2   1873  ATP1873     0.3518
@<TRIPOS>BOND
     1    18    17    1
     2    29    30    1
     3    29    28    1
     4    30    31    2
     5    20    19    1
     6    17    15    1
     7    17    19    1
     8    21    19    1
     9    21    16    1
    10    21    22    1
    11    15    16    1
    12    15    14    1
    13    28    26    2
    14    31    22    1
    15    31    25    1
    16    22    23    1
    17    14    13    1
    18    26    25    1
    19    26    27    1
    20    25    24    2
    21    23    24    1
    22    13     9    1
    23     9    11    2
    24     9    10    1
    25     9    12    1
    26    12     5    1
    27     5     8    1
    28     5     6    2
    29     5     7    1
    30     8     1    1
    31     3     1    2
    32     1     4    1
    33     1     2    1
