@<TRIPOS>MOLECULE
2cc2_5AD_A_1.pdb
 18 20 0 0 0
SMALL
GASTEIGER

@<TRIPOS>ATOM
      1  N1        -5.6960   56.2440  -28.9210 N.2   1299  5AD1299     0.0021
      2  C2        -6.2790   56.2120  -27.7220 C.3   1299  5AD1299     0.5254
      3  N3        -5.7240   55.5710  -26.6960 N.2   1299  5AD1299    -0.0055
      4  C4        -4.5590   54.9170  -26.8630 C.2   1299  5AD1299     0.3518
      5  N9        -3.8080   54.2290  -26.0200 N.pl3 1299  5AD1299    -0.1439
      6  C8        -2.7240   53.7910  -26.6690 C.3   1299  5AD1299     0.3377
      7  N7        -2.7910   54.2210  -27.9410 N.2   1299  5AD1299    -0.2095
      8  C5        -3.9180   54.9290  -28.0910 C.2   1299  5AD1299     0.2526
      9  C6        -4.5280   55.6250  -29.1520 C.2   1299  5AD1299     0.4393
     10  N6        -3.9880   55.6910  -30.3780 N.pl3 1299  5AD1299     0.2180
     11  C1'       -4.1940   53.9820  -24.6260 C.3   1299  5AD1299     0.3185
     12  C2'       -4.1850   52.4630  -24.3570 C.3   1299  5AD1299     0.2569
     13  C3'       -3.5040   52.3590  -22.9750 C.3   1299  5AD1299     0.2159
     14  C4'       -3.5840   53.7860  -22.4590 C.3   1299  5AD1299     0.1524
     15  C5'       -2.5230   54.0950  -21.3700 C.3   1299  5AD1299     0.0350
     16  O4'       -3.2860   54.5380  -23.6600 O.3   1299  5AD1299    -0.3162
     17  O2'       -5.5530   51.9720  -24.3510 O.3   1299  5AD1299    -0.2130
     18  O3'       -4.2440   51.4830  -22.1080 O.3   1299  5AD1299    -0.2175
@<TRIPOS>BOND
     1    10     9    1
     2     9     1    2
     3     9     8    1
     4     1     2    1
     5     8     7    2
     6     8     4    1
     7     7     6    1
     8     2     3    1
     9     4     3    2
    10     4     5    1
    11     6     5    1
    12     5    11    1
    13    11    12    1
    14    11    16    1
    15    12    17    1
    16    12    13    1
    17    16    14    1
    18    13    14    1
    19    13    18    1
    20    14    15    1
