@<TRIPOS>MOLECULE
2cc7_LUM_A_1.pdb
 18 20 0 0 0
SMALL
GASTEIGER

@<TRIPOS>ATOM
      1  N1         0.2070   22.2550   -2.7100 N.2   1068  LUM1068    -0.2377
      2  C2        -0.4750   21.9390   -3.8170 C.1   1068  LUM1068     0.3754
      3  C10        0.7220   21.2480   -1.9280 C.1   1068  LUM1068     0.1954
      4  O2        -0.9670   22.8540   -4.5400 O.2   1068  LUM1068    -0.1738
      5  N3        -0.6730   20.6330   -4.1860 N.2   1068  LUM1068    -0.2289
      6  C4        -0.2170   19.5850   -3.4590 C.1   1068  LUM1068     0.2593
      7  O4        -0.4190   18.4070   -3.8510 O.2   1068  LUM1068    -0.2051
      8  C4A        0.5090   19.8370   -2.2980 C.2   1068  LUM1068     0.3111
      9  N5         1.0080   18.8350   -1.5190 N.2   1068  LUM1068    -0.3799
     10  C5A        1.7090   19.1710   -0.4120 C.2   1068  LUM1068     0.1413
     11  C6         2.2300   18.1530    0.4000 C.3   1068  LUM1068     0.0828
     12  C9A        1.9180   20.5130   -0.0550 C.2   1068  LUM1068     0.1510
     13  C7         2.9590   18.4810    1.5380 C.2   1068  LUM1068    -0.0443
     14  C7M        3.5300   17.3450    2.3830 C.3   1068  LUM1068     0.0261
     15  C8         3.1660   19.7970    1.8860 C.2   1068  LUM1068    -0.0443
     16  C8M        3.9580   20.1230    3.1450 C.3   1068  LUM1068     0.0261
     17  C9         2.6350   20.8350    1.1030 C.3   1068  LUM1068     0.0837
     18  N10        1.4330   21.5120   -0.8200 N.2   1068  LUM1068    -0.3385
@<TRIPOS>BOND
     1     4     2    2
     2     5     2    2
     3     5     6    2
     4     7     6    2
     5     2     1    2
     6     6     8    1
     7     1     3    2
     8     8     3    1
     9     8     9    2
    10     3    18    2
    11     9    10    2
    12    18    12    2
    13    10    12    1
    14    10    11    1
    15    12    17    1
    16    11    13    1
    17    17    15    1
    18    13    15    2
    19    13    14    1
    20    15    16    1
