@<TRIPOS>MOLECULE
2cc8_RBF_A_1.pdb
 27 29 0 0 0
SMALL
GASTEIGER

@<TRIPOS>ATOM
      1  N1         0.1870   22.6860   -2.8860 N.2   1067  RBF1067    -0.2890
      2  C2        -0.5060   22.3180   -3.9780 C.1   1067  RBF1067     0.3669
      3  O2        -0.9690   23.2270   -4.6820 O.2   1067  RBF1067    -0.1744
      4  N3        -0.6880   21.0350   -4.3420 N.2   1067  RBF1067    -0.2300
      5  C4        -0.2500   20.0260   -3.6100 C.1   1067  RBF1067     0.2513
      6  O4        -0.4360   18.8540   -3.9560 O.2   1067  RBF1067    -0.2057
      7  C4A        0.4970   20.3230   -2.3680 C.2   1067  RBF1067     0.2700
      8  N5         1.0050   19.3490   -1.5780 N.2   1067  RBF1067    -0.3878
      9  C5A        1.7000   19.6780   -0.4620 C.2   1067  RBF1067     0.1320
     10  C6         2.1860   18.6710    0.3330 C.2   1067  RBF1067     0.0250
     11  C7         2.9220   18.9590    1.4830 C.2   1067  RBF1067    -0.0238
     12  C7M        3.4390   17.8050    2.3060 C.3   1067  RBF1067     0.0308
     13  C8         3.1590   20.3670    1.8710 C.2   1067  RBF1067    -0.0280
     14  C8M        3.9400   20.6960    3.1250 C.3   1067  RBF1067     0.0304
     15  C9         2.6550   21.3980    1.0890 C.2   1067  RBF1067    -0.0041
     16  C9A        1.9240   21.0860   -0.0810 C.3   1067  RBF1067     0.1497
     17  N10        1.4350   22.1020   -0.9290 N.pl3 1067  RBF1067    -0.2691
     18  C10        0.7120   21.7380   -2.0630 C.2   1067  RBF1067     0.2416
     19  C1'        1.5670   23.5450   -0.6010 C.3   1067  RBF1067     0.1294
     20  C2'        2.5540   24.3780   -1.4030 C.3   1067  RBF1067     0.2044
     21  O2'        3.8130   24.1100   -0.8120 O.3   1067  RBF1067    -0.2185
     22  C3'        2.1570   25.8680   -1.3630 C.3   1067  RBF1067     0.2166
     23  O3'        2.1750   26.3540   -0.0170 O.3   1067  RBF1067    -0.2175
     24  C4'        0.7730   26.0690   -2.0480 C.3   1067  RBF1067     0.2175
     25  O4'        0.8690   25.6220   -3.3930 O.3   1067  RBF1067    -0.2175
     26  C5'        0.2510   27.5030   -2.1100 C.3   1067  RBF1067     0.2175
     27  O5'       -1.0530   27.5090   -2.7350 O.3   1067  RBF1067    -0.2175
@<TRIPOS>BOND
     1     3     2    2
     2     4     2    2
     3     4     5    2
     4     2     1    2
     5     6     5    2
     6     5     7    1
     7    25    24    1
     8     1    18    2
     9    27    26    1
    10     7    18    1
    11     7     8    2
    12    26    24    1
    13    18    17    1
    14    24    22    1
    15     8     9    2
    16    20    22    1
    17    20    21    1
    18    20    19    1
    19    22    23    1
    20    17    19    1
    21    17    16    1
    22     9    16    1
    23     9    10    1
    24    16    15    1
    25    10    11    2
    26    15    13    2
    27    11    13    1
    28    11    12    1
    29    13    14    1
