@<TRIPOS>MOLECULE
2cca_HEM_A_1.pdb
 43 50 0 0 0
SMALL
GASTEIGER

@<TRIPOS>ATOM
      1 FE         84.8110   38.6200   48.0370 Fe    1741  HEM1741     0.0000
      2  CHA       84.4060   37.9680   51.3930 C.2   1741  HEM1741     0.0000
      3  CHB       86.4800   35.6210   47.6690 C.2   1741  HEM1741     0.0000
      4  CHC       84.9070   39.0360   44.6370 C.2   1741  HEM1741     0.0000
      5  CHD       82.8980   41.4390   48.3300 C.2   1741  HEM1741     0.0000
      6  NA        85.3560   37.1110   49.2930 N.ar  1741  HEM1741     0.0000
      7  C1A       85.0400   37.0160   50.6320 C.ar  1741  HEM1741     0.0000
      8  C2A       85.5060   35.7370   51.1100 C.ar  1741  HEM1741     0.0000
      9  C3A       86.0840   35.0910   50.0920 C.ar  1741  HEM1741     0.0000
     10  C4A       85.9980   35.9360   48.9250 C.ar  1741  HEM1741     0.0000
     11  CMA       86.7280   33.6840   50.1240 C.3   1741  HEM1741     0.0000
     12  CAA       85.3630   35.2330   52.5600 C.3   1741  HEM1741     0.0000
     13  CBA       83.9900   34.6670   52.9020 C.3   1741  HEM1741     0.0000
     14  CGA       83.9950   34.3890   54.3900 C.2   1741  HEM1741     0.0000
     15  O1A       84.6960   33.4420   54.8130 O.co2 1741  HEM1741     0.0000
     16  O2A       83.3150   35.1000   55.1730 O.co2 1741  HEM1741     0.0000
     17  NB        85.5070   37.4920   46.4290 N.2   1741  HEM1741     0.0000
     18  C1B       86.2830   36.3540   46.5220 C.2   1741  HEM1741     0.0000
     19  C2B       86.8340   36.0660   45.2140 C.2   1741  HEM1741     0.0000
     20  C3B       86.4010   37.0110   44.3660 C.2   1741  HEM1741     0.0000
     21  C4B       85.5520   37.9240   45.1230 C.2   1741  HEM1741     0.0000
     22  CMB       87.7610   34.8720   44.8890 C.3   1741  HEM1741     0.0000
     23  CAB       86.7180   37.1370   42.8550 C.2   1741  HEM1741     0.0000
     24  CBB       87.8960   36.7740   42.3290 C.2   1741  HEM1741     0.0000
     25  NC        84.0930   40.0030   46.7410 N.ar  1741  HEM1741     0.0000
     26  C1C       84.1560   39.9350   45.3620 C.ar  1741  HEM1741     0.0000
     27  C2C       83.3000   40.9720   44.8150 C.ar  1741  HEM1741     0.0000
     28  C3C       82.7430   41.6400   45.8420 C.ar  1741  HEM1741     0.0000
     29  C4C       83.2350   41.0360   47.0630 C.ar  1741  HEM1741     0.0000
     30  CMC       83.0900   41.2350   43.3050 C.3   1741  HEM1741     0.0000
     31  CAC       81.7420   42.8300   45.8020 C.2   1741  HEM1741     0.0000
     32  CBC       81.8940   43.8630   44.9650 C.2   1741  HEM1741     0.0000
     33  ND        83.7310   39.5170   49.6150 N.2   1741  HEM1741     0.0000
     34  C1D       83.2110   40.8030   49.5040 C.2   1741  HEM1741     0.0000
     35  C2D       83.0510   41.3780   50.8230 C.2   1741  HEM1741     0.0000
     36  C3D       83.5250   40.2930   51.7830 C.2   1741  HEM1741     0.0000
     37  C4D       83.9210   39.1750   50.9480 C.2   1741  HEM1741     0.0000
     38  CMD       82.5270   42.7820   51.2040 C.3   1741  HEM1741     0.0000
     39  CAD       83.5610   40.4010   53.3120 C.3   1741  HEM1741     0.0000
     40  CBD       82.2780   39.8020   53.8620 C.3   1741  HEM1741     0.0000
     41  CGD       82.2590   39.9420   55.3610 C.2   1741  HEM1741     0.0000
     42  O1D       81.6100   39.0880   56.0260 O.co2 1741  HEM1741     0.0000
     43  O2D       82.8920   40.9030   55.8840 O.co2 1741  HEM1741     0.0000
@<TRIPOS>BOND
     1    24    23    2
     2    23    20    1
     3    30    27    1
     4    20    21    1
     5    20    19    2
     6     4    21    2
     7     4    26    1
     8    27    26   ar
     9    27    28   ar
    10    22    19    1
    11    32    31    2
    12    21    17    1
    13    19    18    1
    14    26    25   ar
    15    31    28    1
    16    28    29   ar
    17    17    18    2
    18    17     1    1
    19    18     3    1
    20    25    29   ar
    21    25     1    1
    22    29     5    1
    23     3    10    2
    24     1     6    1
    25     1    33    1
    26     5    34    2
    27    10     6   ar
    28    10     9   ar
    29     6     7   ar
    30    34    33    1
    31    34    35    1
    32    33    37    2
    33     9    11    1
    34     9     8   ar
    35     7     8   ar
    36     7     2    2
    37    35    38    1
    38    35    36    2
    39    37     2    1
    40    37    36    1
    41     8    12    1
    42    36    39    1
    43    12    13    1
    44    13    14    1
    45    39    40    1
    46    40    41    1
    47    14    15   ar
    48    14    16   ar
    49    41    43   ar
    50    41    42   ar
