@<TRIPOS>MOLECULE
2ccb_RBF_A_1.pdb
 27 29 0 0 0
SMALL
GASTEIGER

@<TRIPOS>ATOM
      1  N1         0.2290   22.7140   -2.8930 N.2   1067  RBF1067    -0.2890
      2  C2        -0.4650   22.3310   -3.9920 C.1   1067  RBF1067     0.3669
      3  O2        -0.9230   23.2470   -4.7080 O.2   1067  RBF1067    -0.1744
      4  N3        -0.6390   21.0430   -4.3260 N.2   1067  RBF1067    -0.2300
      5  C4        -0.1950   20.0310   -3.5950 C.1   1067  RBF1067     0.2513
      6  O4        -0.3580   18.8400   -3.9200 O.2   1067  RBF1067    -0.2057
      7  C4A        0.5670   20.3570   -2.3690 C.2   1067  RBF1067     0.2700
      8  N5         1.0610   19.3890   -1.5810 N.2   1067  RBF1067    -0.3878
      9  C5A        1.7560   19.7200   -0.4530 C.2   1067  RBF1067     0.1320
     10  C6         2.2520   18.7100    0.3550 C.2   1067  RBF1067     0.0250
     11  C7         2.9770   19.0210    1.5140 C.2   1067  RBF1067    -0.0238
     12  C7M        3.5330   17.8890    2.3720 C.3   1067  RBF1067     0.0308
     13  C8         3.1920   20.4430    1.8740 C.2   1067  RBF1067    -0.0280
     14  C8M        3.9660   20.7820    3.1350 C.3   1067  RBF1067     0.0304
     15  C9         2.6870   21.4750    1.0810 C.2   1067  RBF1067    -0.0041
     16  C9A        1.9690   21.1450   -0.0880 C.3   1067  RBF1067     0.1497
     17  N10        1.4570   22.1720   -0.9220 N.pl3 1067  RBF1067    -0.2691
     18  C10        0.7390   21.7850   -2.0650 C.2   1067  RBF1067     0.2416
     19  C1'        1.5960   23.6000   -0.5930 C.3   1067  RBF1067     0.1294
     20  C2'        2.5700   24.3800   -1.4470 C.3   1067  RBF1067     0.2044
     21  O2'        3.8580   24.1470   -0.8860 O.3   1067  RBF1067    -0.2185
     22  C3'        2.1770   25.8630   -1.5060 C.3   1067  RBF1067     0.2166
     23  O3'        2.0800   26.3820   -0.1790 O.3   1067  RBF1067    -0.2175
     24  C4'        0.8510   25.9910   -2.3170 C.3   1067  RBF1067     0.2175
     25  O4'        1.1430   25.7710   -3.6980 O.3   1067  RBF1067    -0.2175
     26  C5'        0.0800   27.3010   -2.1830 C.3   1067  RBF1067     0.2175
     27  O5'       -1.0660   27.3250   -3.0630 O.3   1067  RBF1067    -0.2175
@<TRIPOS>BOND
     1     3     2    2
     2     4     2    2
     3     4     5    2
     4     2     1    2
     5     6     5    2
     6    25    24    1
     7     5     7    1
     8    27    26    1
     9     1    18    2
    10     7    18    1
    11     7     8    2
    12    24    26    1
    13    24    22    1
    14    18    17    1
    15     8     9    2
    16    22    20    1
    17    22    23    1
    18    20    21    1
    19    20    19    1
    20    17    19    1
    21    17    16    1
    22     9    16    1
    23     9    10    1
    24    16    15    1
    25    10    11    2
    26    15    13    2
    27    11    13    1
    28    11    12    1
    29    13    14    1
