@<TRIPOS>MOLECULE
2ccd_HEM_A_1.pdb
 43 50 0 0 0
SMALL
GASTEIGER

@<TRIPOS>ATOM
      1 FE         84.4290   38.7190   48.1080 Fe    1741  HEM1741     0.0000
      2  CHA       84.0460   38.2130   51.2880 C.2   1741  HEM1741     0.0000
      3  CHB       85.9840   35.6730   47.6220 C.2   1741  HEM1741     0.0000
      4  CHC       84.3940   38.9840   44.4980 C.2   1741  HEM1741     0.0000
      5  CHD       82.4210   41.4970   48.1500 C.2   1741  HEM1741     0.0000
      6  NA        84.9110   37.2370   49.2020 N.ar  1741  HEM1741     0.0000
      7  C1A       84.6490   37.2260   50.5520 C.ar  1741  HEM1741     0.0000
      8  C2A       85.1640   35.9970   51.0820 C.ar  1741  HEM1741     0.0000
      9  C3A       85.7160   35.3060   50.0890 C.ar  1741  HEM1741     0.0000
     10  C4A       85.5650   36.0610   48.8780 C.ar  1741  HEM1741     0.0000
     11  CMA       86.3950   33.9290   50.1930 C.3   1741  HEM1741     0.0000
     12  CAA       85.0890   35.5940   52.5690 C.3   1741  HEM1741     0.0000
     13  CBA       83.7340   34.9810   52.8790 C.3   1741  HEM1741     0.0000
     14  CGA       83.7040   34.6220   54.3550 C.2   1741  HEM1741     0.0000
     15  O1A       84.3810   33.6400   54.7240 O.co2 1741  HEM1741     0.0000
     16  O2A       83.0050   35.3030   55.1520 O.co2 1741  HEM1741     0.0000
     17  NB        84.9830   37.5200   46.3630 N.2   1741  HEM1741     0.0000
     18  C1B       85.7390   36.3630   46.4630 C.2   1741  HEM1741     0.0000
     19  C2B       86.2320   35.9880   45.1520 C.2   1741  HEM1741     0.0000
     20  C3B       85.7860   36.9040   44.2780 C.2   1741  HEM1741     0.0000
     21  C4B       84.9970   37.8790   45.0240 C.2   1741  HEM1741     0.0000
     22  CMB       87.1070   34.7470   44.8360 C.3   1741  HEM1741     0.0000
     23  CAB       86.0580   36.9470   42.7510 C.2   1741  HEM1741     0.0000
     24  CBB       87.2900   37.1990   42.2790 C.2   1741  HEM1741     0.0000
     25  NC        83.6070   39.9820   46.6050 N.ar  1741  HEM1741     0.0000
     26  C1C       83.6950   39.9160   45.2300 C.ar  1741  HEM1741     0.0000
     27  C2C       82.8890   40.9700   44.6480 C.ar  1741  HEM1741     0.0000
     28  C3C       82.3320   41.6670   45.6500 C.ar  1741  HEM1741     0.0000
     29  C4C       82.7810   41.0570   46.8950 C.ar  1741  HEM1741     0.0000
     30  CMC       82.7640   41.1750   43.1070 C.3   1741  HEM1741     0.0000
     31  CAC       81.3690   42.8940   45.5940 C.2   1741  HEM1741     0.0000
     32  CBC       81.5640   43.9730   44.8380 C.2   1741  HEM1741     0.0000
     33  ND        83.3310   39.6970   49.4960 N.2   1741  HEM1741     0.0000
     34  C1D       82.7410   40.9270   49.3590 C.2   1741  HEM1741     0.0000
     35  C2D       82.5180   41.4900   50.6940 C.2   1741  HEM1741     0.0000
     36  C3D       83.0180   40.4480   51.6840 C.2   1741  HEM1741     0.0000
     37  C4D       83.5060   39.3800   50.8410 C.2   1741  HEM1741     0.0000
     38  CMD       81.9030   42.8580   51.0620 C.3   1741  HEM1741     0.0000
     39  CAD       83.0530   40.5400   53.2400 C.3   1741  HEM1741     0.0000
     40  CBD       81.9860   39.6870   53.9130 C.3   1741  HEM1741     0.0000
     41  CGD       81.9700   39.9640   55.4170 C.2   1741  HEM1741     0.0000
     42  O1D       81.2790   39.2490   56.1900 O.co2 1741  HEM1741     0.0000
     43  O2D       82.6260   40.9080   55.8770 O.co2 1741  HEM1741     0.0000
@<TRIPOS>BOND
     1    24    23    2
     2    23    20    1
     3    30    27    1
     4    20    21    1
     5    20    19    2
     6     4    21    2
     7     4    26    1
     8    27    26   ar
     9    27    28   ar
    10    22    19    1
    11    32    31    2
    12    21    17    1
    13    19    18    1
    14    26    25   ar
    15    31    28    1
    16    28    29   ar
    17    17    18    2
    18    17     1    1
    19    18     3    1
    20    25    29   ar
    21    25     1    1
    22    29     5    1
    23     3    10    2
    24     1     6    1
    25     1    33    1
    26     5    34    2
    27    10     6   ar
    28    10     9   ar
    29     6     7   ar
    30    34    33    1
    31    34    35    1
    32    33    37    2
    33     9    11    1
    34     9     8   ar
    35     7     8   ar
    36     7     2    2
    37    35    38    1
    38    35    36    2
    39    37     2    1
    40    37    36    1
    41     8    12    1
    42    36    39    1
    43    12    13    1
    44    13    14    1
    45    39    40    1
    46    40    41    1
    47    14    15   ar
    48    14    16   ar
    49    41    43   ar
    50    41    42   ar
