@<TRIPOS>MOLECULE
2ccg_TMP_A_1.pdb
 21 22 0 0 0
SMALL
GASTEIGER

@<TRIPOS>ATOM
      1  P         -7.6530   -2.1430  117.5550 P.3   1205  TMP1205     0.5327
      2  O1P       -6.5120   -2.9160  117.0390 O.2   1205  TMP1205    -0.2224
      3  O2P       -7.4490   -1.8340  119.0260 O.3   1205  TMP1205    -0.1145
      4  O3P       -8.9300   -2.8480  117.3180 O.3   1205  TMP1205    -0.1145
      5  O5'       -7.6680   -0.7510  116.8680 O.3   1205  TMP1205    -0.2675
      6  C5'       -7.8520   -0.4790  115.4220 C.3   1205  TMP1205     0.1858
      7  C4'       -8.3850    0.9690  115.3070 C.3   1205  TMP1205     0.1774
      8  O4'       -8.6870    1.2790  113.9190 O.3   1205  TMP1205    -0.3339
      9  C3'       -9.6790    1.2680  116.1110 C.3   1205  TMP1205     0.1857
     10  O3'       -9.3630    2.3160  117.0150 O.3   1205  TMP1205    -0.2203
     11  C2'      -10.7210    1.7520  115.1510 C.3   1205  TMP1205     0.0874
     12  C1'      -10.0280    1.7500  113.8060 C.3   1205  TMP1205     0.2090
     13  N1       -10.7280    1.1790  112.6510 N.am  1205  TMP1205    -0.1794
     14  C2       -11.5580    2.0170  111.8820 C.1   1205  TMP1205     0.2844
     15  O2       -11.7670    3.2100  112.1350 O.2   1205  TMP1205    -0.1918
     16  N3       -12.1790    1.3460  110.8160 N.2   1205  TMP1205    -0.2455
     17  C4       -11.9880   -0.0110  110.4500 C.1   1205  TMP1205     0.2134
     18  O4       -12.5920   -0.4690  109.4910 O.2   1205  TMP1205    -0.2088
     19  C5       -11.0960   -0.8220  111.3050 C.2   1205  TMP1205     0.0891
     20  C5M      -10.8180   -2.2530  111.0190 C.3   1205  TMP1205     0.0462
     21  C6       -10.4730   -0.1540  112.3780 C.2   1205  TMP1205     0.0877
@<TRIPOS>BOND
     1    18    17    2
     2    17    16    2
     3    17    19    1
     4    16    14    2
     5    20    19    1
     6    19    21    2
     7    14    15    2
     8    14    13   am
     9    21    13    1
    10    13    12    1
    11    12     8    1
    12    12    11    1
    13     8     7    1
    14    11     9    1
    15     7     6    1
    16     7     9    1
    17     6     5    1
    18     9    10    1
    19     5     1    1
    20     2     1    2
    21     4     1    1
    22     1     3    1
