@<TRIPOS>MOLECULE
2cch_ATP_A_1.pdb
 31 33 0 0 0
SMALL
GASTEIGER

@<TRIPOS>ATOM
      1  PG        19.6070    9.1300    6.8480 P.3   1297  ATP1297     0.5373
      2  O1G       18.1550    9.2350    7.2610 O.3   1297  ATP1297    -0.1143
      3  O2G       20.5410    8.7630    7.9760 O.3   1297  ATP1297    -0.1143
      4  O3G       20.0920   10.2490    5.9590 O.2   1297  ATP1297    -0.2221
      5  PB        18.8470    6.5170    6.1370 P.3   1297  ATP1297     0.2277
      6  O1B       17.3910    6.8450    6.3960 O.3   1297  ATP1297    -0.4368
      7  O2B       19.2160    5.6180    4.9810 O.2   1297  ATP1297    -0.5168
      8  O3B       19.6660    7.8700    5.8620 O.3   1297  ATP1297    -0.2258
      9  PA        19.1000    4.5560    8.1850 P.3   1297  ATP1297     0.2189
     10  O1A       20.3660    3.8020    8.5160 O.2   1297  ATP1297    -0.5170
     11  O2A       18.1020    4.8500    9.2820 O.3   1297  ATP1297    -0.4371
     12  O3A       19.5140    5.9570    7.4980 O.3   1297  ATP1297    -0.2700
     13  O5'       18.3710    3.7240    7.0040 O.3   1297  ATP1297    -0.3112
     14  C5'       16.9560    3.5270    6.9810 C.3   1297  ATP1297     0.1813
     15  C4'       16.5450    2.6680    5.7860 C.3   1297  ATP1297     0.1821
     16  O4'       15.2180    2.1750    5.9940 O.3   1297  ATP1297    -0.3135
     17  C3'       16.5220    3.4220    4.4610 C.3   1297  ATP1297     0.2184
     18  O3'       17.0880    2.6160    3.4210 O.3   1297  ATP1297    -0.2174
     19  C2'       15.0590    3.6780    4.1590 C.3   1297  ATP1297     0.2570
     20  O2'       14.8150    3.6760    2.7440 O.3   1297  ATP1297    -0.2130
     21  C1'       14.3750    2.5230    4.8840 C.3   1297  ATP1297     0.3186
     22  N9        12.9990    2.8160    5.3730 N.pl3 1297  ATP1297    -0.1439
     23  C8        12.6380    3.5850    6.4230 C.3   1297  ATP1297     0.3377
     24  N7        11.2840    3.5850    6.5780 N.2   1297  ATP1297    -0.2095
     25  C5        10.7620    2.7970    5.6180 C.2   1297  ATP1297     0.2526
     26  C6         9.4040    2.3480    5.1900 C.2   1297  ATP1297     0.4393
     27  N6         8.2890    2.7540    5.8300 N.pl3 1297  ATP1297     0.2180
     28  N1         9.3230    1.5210    4.1210 N.2   1297  ATP1297     0.0021
     29  C2        10.4180    1.1030    3.4640 C.3   1297  ATP1297     0.5254
     30  N3        11.6720    1.4700    3.7880 N.2   1297  ATP1297    -0.0055
     31  C4        11.9040    2.2930    4.8340 C.2   1297  ATP1297     0.3518
@<TRIPOS>BOND
     1    20    19    1
     2    18    17    1
     3    29    30    1
     4    29    28    1
     5    30    31    2
     6    28    26    2
     7    19    17    1
     8    19    21    1
     9    17    15    1
    10    31    22    1
    11    31    25    1
    12    21    22    1
    13    21    16    1
    14     7     5    2
    15    26    25    1
    16    26    27    1
    17    22    23    1
    18    25    24    2
    19    15    16    1
    20    15    14    1
    21     8     5    1
    22     8     1    1
    23     4     1    2
    24     5     6    1
    25     5    12    1
    26    23    24    1
    27     1     2    1
    28     1     3    1
    29    14    13    1
    30    13     9    1
    31    12     9    1
    32     9    10    2
    33     9    11    1
