@<TRIPOS>MOLECULE
2cci_ATP_A_1.pdb
 31 33 0 0 0
SMALL
GASTEIGER

@<TRIPOS>ATOM
      1  PG        19.0340   50.9820    6.6360 P.3   1297  ATP1297     0.5373
      2  O1G       17.9770   50.6380    7.6700 O.3   1297  ATP1297    -0.1143
      3  O2G       18.9360   50.2090    5.3330 O.2   1297  ATP1297    -0.2221
      4  O3G       19.2270   52.4680    6.4370 O.3   1297  ATP1297    -0.1143
      5  PB        21.2360   51.2840    8.4220 P.3   1297  ATP1297     0.2277
      6  O1B       20.2460   52.0270    9.2760 O.3   1297  ATP1297    -0.4368
      7  O2B       22.2220   50.3760    9.1200 O.2   1297  ATP1297    -0.5168
      8  O3B       20.4200   50.4530    7.3010 O.3   1297  ATP1297    -0.2258
      9  PA        23.1430   51.9020    6.4370 P.3   1297  ATP1297     0.2189
     10  O1A       22.8720   50.5160    5.9000 O.2   1297  ATP1297    -0.5170
     11  O2A       24.4820   52.2280    7.0540 O.3   1297  ATP1297    -0.4371
     12  O3A       22.0290   52.3460    7.5160 O.3   1297  ATP1297    -0.2700
     13  O5'       22.8320   52.9230    5.2310 O.3   1297  ATP1297    -0.3112
     14  C5'       21.5520   52.8720    4.6010 C.3   1297  ATP1297     0.1813
     15  C4'       21.6160   53.3300    3.1530 C.3   1297  ATP1297     0.1821
     16  O4'       22.3770   54.5340    3.0380 O.3   1297  ATP1297    -0.3135
     17  C3'       22.2790   52.3170    2.2290 C.3   1297  ATP1297     0.2184
     18  O3'       21.3370   51.3880    1.6770 O.3   1297  ATP1297    -0.2174
     19  C2'       22.8850   53.1870    1.1500 C.3   1297  ATP1297     0.2570
     20  O2'       21.9280   53.4130    0.1080 O.3   1297  ATP1297    -0.2130
     21  C1'       23.1740   54.5080    1.8460 C.3   1297  ATP1297     0.3186
     22  N9        24.6140   54.6240    2.1990 N.pl3 1297  ATP1297    -0.1439
     23  C8        25.1460   54.3470    3.4100 C.3   1297  ATP1297     0.3377
     24  N7        26.4840   54.5580    3.4270 N.2   1297  ATP1297    -0.2095
     25  C5        26.8320   54.9880    2.2030 C.2   1297  ATP1297     0.2526
     26  C6        28.0950   55.3920    1.5430 C.2   1297  ATP1297     0.4393
     27  N6        29.2620   55.3690    2.2330 N.pl3 1297  ATP1297     0.2180
     28  N1        28.0370   55.7800    0.2430 N.2   1297  ATP1297     0.0021
     29  C2        26.8680   55.8000   -0.4380 C.3   1297  ATP1297     0.5254
     30  N3        25.6840   55.4460    0.1000 N.2   1297  ATP1297    -0.0055
     31  C4        25.6000   55.0370    1.3940 C.2   1297  ATP1297     0.3518
@<TRIPOS>BOND
     1    29    30    1
     2    29    28    1
     3    30    31    2
     4    20    19    1
     5    28    26    2
     6    19    21    1
     7    19    17    1
     8    31    22    1
     9    31    25    1
    10    26    25    1
    11    26    27    1
    12    18    17    1
    13    21    22    1
    14    21    16    1
    15    22    23    1
    16    25    24    2
    17    17    15    1
    18    16    15    1
    19    15    14    1
    20    23    24    1
    21    14    13    1
    22    13     9    1
    23     3     1    2
    24    10     9    2
    25     4     1    1
    26     9    11    1
    27     9    12    1
    28     1     8    1
    29     1     2    1
    30     8     5    1
    31    12     5    1
    32     5     7    2
    33     5     6    1
