@<TRIPOS>MOLECULE
2cci_III_I_1.pdb
 38 38 0 0 0
SMALL
GASTEIGER

@<TRIPOS>ATOM
      1  N         14.1830   34.2320   54.2710 N.3    69  ALA69      -0.1231
      2  CA        15.1020   33.6080   55.2720 C.3    69  ALA69       0.1694
      3  C         14.3710   32.6820   56.2520 C.2    69  ALA69       0.2593
      4  O         13.1660   32.8190   56.4760 O.2    69  ALA69      -0.2718
      5  CB        15.8870   34.6820   56.0270 C.3    69  ALA69       0.0304
      6  N         15.1170   31.7420   56.8260 N.am   70  SER70      -0.1939
      7  CA        14.5730   30.7540   57.7520 C.3    70  SER70       0.2040
      8  C         14.5090   31.3420   59.1700 C.2    70  SER70       0.2485
      9  O         15.4590   32.0110   59.5950 O.2    70  SER70      -0.2729
     10  CB        15.4570   29.5020   57.7360 C.3    70  SER70       0.2129
     11  OG        14.7060   28.3280   57.4950 O.3    70  SER70      -0.2179
     12  N         13.3920   31.1080   59.9030 N.am   71  PRO71      -0.2715
     13  CA        13.2720   31.5320   61.3080 C.3    71  PRO71       0.1536
     14  C         14.3290   30.8980   62.2040 C.2    71  PRO71       0.2598
     15  O         14.7880   29.7830   61.9360 O.2    71  PRO71      -0.2715
     16  CB        11.8850   31.0260   61.7170 C.3    71  PRO71       0.0310
     17  CG        11.1450   30.9080   60.4570 C.3    71  PRO71       0.0237
     18  CD        12.1550   30.4540   59.4420 C.3    71  PRO71       0.0939
     19  N         14.7110   31.6130   63.2580 N.am   72  ARG72      -0.1964
     20  CA        15.7420   31.1320   64.1770 C.3    72  ARG72       0.1729
     21  C         15.2820   31.1380   65.6330 C.2    72  ARG72       0.2616
     22  O         14.0840   31.2390   65.9160 O.2    72  ARG72      -0.2715
     23  CB        17.0340   31.9370   64.0050 C.3    72  ARG72       0.0348
     24  CG        17.8220   31.5940   62.7480 C.3    72  ARG72       0.0492
     25  CD        18.3070   30.1520   62.7770 C.3    72  ARG72       0.2205
     26  NE        19.7510   30.0680   62.5640 N.pl3  72  ARG72      -0.0865
     27  CZ        20.6640   30.2810   63.5120 C.cat  72  ARG72       0.5346
     28  NH1       20.2910   30.5970   64.7500 N.pl3  72  ARG72       0.1354
     29  NH2       21.9550   30.1820   63.2250 N.pl3  72  ARG72       0.1354
     30  N         16.2390   31.0250   66.5510 N.am   73  LYS73      -0.1977
     31  CA        15.9230   30.9100   67.9730 C.3    73  LYS73       0.1596
     32  C         17.1170   31.3270   68.8340 C.2    73  LYS73       0.2287
     33  O         18.1330   30.6250   68.8970 O.2    73  LYS73      -0.2864
     34  CB        15.5240   29.4660   68.2890 C.3    73  LYS73       0.0298
     35  CG        14.5450   29.2950   69.4290 C.3    73  LYS73       0.0038
     36  CD        14.6510   27.8780   69.9440 C.3    73  LYS73       0.0206
     37  CE        13.3670   27.4020   70.5530 C.3    73  LYS73       0.1093
     38  NZ        13.5760   26.0510   71.1320 N.3    73  LYS73      -0.1314
@<TRIPOS>BOND
     1     1     2    1
     2     2     5    1
     3     2     3    1
     4     3     4    2
     5     3     6   am
     6     6     7    1
     7    11    10    1
     8    10     7    1
     9     7     8    1
    10     8     9    2
    11     8    12   am
    12    18    12    1
    13    18    17    1
    14    12    13    1
    15    17    16    1
    16    13    16    1
    17    13    14    1
    18    15    14    2
    19    14    19   am
    20    26    25    1
    21    26    27    2
    22    24    25    1
    23    24    23    1
    24    29    27    1
    25    19    20    1
    26    27    28    1
    27    23    20    1
    28    20    21    1
    29    21    22    2
    30    21    30   am
    31    30    31    1
    32    31    34    1
    33    31    32    1
    34    34    35    1
    35    32    33    2
    36    35    36    1
    37    36    37    1
    38    37    38    1
