@<TRIPOS>MOLECULE
2ccj_TMP_A_1.pdb
 21 22 0 0 0
SMALL
GASTEIGER

@<TRIPOS>ATOM
      1  P        -31.5000   36.9590  107.0230 P.3   1209  TMP1209     0.5327
      2  O1P      -30.2960   36.2300  107.4550 O.3   1209  TMP1209    -0.1145
      3  O2P      -32.2990   37.4300  108.2140 O.3   1209  TMP1209    -0.1145
      4  O3P      -32.3190   36.1380  106.1020 O.2   1209  TMP1209    -0.2224
      5  O5'      -31.0480   38.2420  106.3110 O.3   1209  TMP1209    -0.2675
      6  C5'      -30.2350   38.2550  105.0810 C.3   1209  TMP1209     0.1858
      7  C4'      -30.4670   39.6140  104.4170 C.3   1209  TMP1209     0.1774
      8  O4'      -29.6650   39.7150  103.2090 O.3   1209  TMP1209    -0.3339
      9  C3'      -31.9340   39.9080  104.0110 C.3   1209  TMP1209     0.1857
     10  O3'      -32.3290   41.0780  104.7090 O.3   1209  TMP1209    -0.2203
     11  C2'      -31.9450   40.1850  102.5390 C.3   1209  TMP1209     0.0874
     12  C1'      -30.4990   40.0650  102.1190 C.3   1209  TMP1209     0.2090
     13  N1       -30.1580   39.3420  100.8900 N.am  1209  TMP1209    -0.1794
     14  C2       -30.2690   40.0440   99.6760 C.1   1209  TMP1209     0.2844
     15  O2       -30.6310   41.2250   99.5980 O.2   1209  TMP1209    -0.1918
     16  N3       -29.9320   39.2740   98.5590 N.2   1209  TMP1209    -0.2455
     17  C4       -29.5120   37.9280   98.5680 C.1   1209  TMP1209     0.2134
     18  O4       -29.2470   37.3690   97.5170 O.2   1209  TMP1209    -0.2088
     19  C5       -29.4120   37.2590   99.8860 C.2   1209  TMP1209     0.0891
     20  C5M      -28.9760   35.8540  100.0090 C.3   1209  TMP1209     0.0462
     21  C6       -29.7550   38.0300  101.0180 C.2   1209  TMP1209     0.0877
@<TRIPOS>BOND
     1    18    17    2
     2    16    17    2
     3    16    14    2
     4    17    19    1
     5    15    14    2
     6    14    13   am
     7    19    20    1
     8    19    21    2
     9    13    21    1
    10    13    12    1
    11    12    11    1
    12    12     8    1
    13    11     9    1
    14     8     7    1
    15     9     7    1
    16     9    10    1
    17     7     6    1
    18     6     5    1
    19     4     1    2
    20     5     1    1
    21     1     2    1
    22     1     3    1
