@<TRIPOS>MOLECULE
2ccp_HEM_A_1.pdb
 43 50 0 0 0
SMALL
GASTEIGER

@<TRIPOS>ATOM
      1  CHA       -5.4970   53.9240   22.3750 C.2   296  HEM296      0.0000
      2  CHB       -7.5130   58.0480   23.8120 C.2   296  HEM296      0.0000
      3  CHC       -5.8450   60.1390   19.8130 C.2   296  HEM296      0.0000
      4  CHD       -3.4710   56.1870   18.6590 C.2   296  HEM296      0.0000
      5  C1A       -6.1430   54.8770   23.0930 C.2   296  HEM296      0.0000
      6  C2A       -6.6750   54.6630   24.4340 C.2   296  HEM296      0.0000
      7  C3A       -7.2550   55.8080   24.8190 C.2   296  HEM296      0.0000
      8  C4A       -7.0490   56.7740   23.7530 C.2   296  HEM296      0.0000
      9  CMA       -7.9790   56.1760   26.1300 C.3   296  HEM296      0.0000
     10  CAA       -6.5870   53.3010   25.1340 C.2   296  HEM296      0.0000
     11  CBA       -5.3500   52.8650   25.8430 C.2   296  HEM296      0.0000
     12  CGA       -5.3730   51.6180   26.6750 C.2   296  HEM296      0.0000
     13  O1A       -6.3270   51.4490   27.4660 O.co2 296  HEM296      0.0000
     14  O2A       -4.3340   50.9150   26.4900 O.co2 296  HEM296      0.0000
     15  C1B       -7.2590   58.9370   22.8010 C.ar  296  HEM296      0.0000
     16  C2B       -7.8100   60.2850   22.7630 C.ar  296  HEM296      0.0000
     17  C3B       -7.3740   60.8500   21.6560 C.ar  296  HEM296      0.0000
     18  C4B       -6.5320   59.8930   20.9760 C.ar  296  HEM296      0.0000
     19  CMB       -8.7360   60.8840   23.8260 C.3   296  HEM296      0.0000
     20  CAB       -7.6210   62.2800   21.1710 C.2   296  HEM296      0.0000
     21  CBB       -8.7910   62.8590   21.3770 C.2   296  HEM296      0.0000
     22  C1C       -4.9510   59.3240   19.1880 C.2   296  HEM296      0.0000
     23  C2C       -4.0610   59.6590   18.1140 C.2   296  HEM296      0.0000
     24  C3C       -3.4010   58.5410   17.8280 C.2   296  HEM296      0.0000
     25  C4C       -3.8890   57.4910   18.6800 C.2   296  HEM296      0.0000
     26  CMC       -3.8820   61.0310   17.4710 C.3   296  HEM296      0.0000
     27  CAC       -2.2830   58.3180   16.7660 C.3   296  HEM296      0.0000
     28  CBC       -2.5450   58.9060   15.5890 C.3   296  HEM296      0.0000
     29  C1D       -3.8880   55.1950   19.5010 C.ar  296  HEM296      0.0000
     30  C2D       -3.6600   53.7760   19.3250 C.ar  296  HEM296      0.0000
     31  C3D       -4.1760   53.1740   20.3930 C.ar  296  HEM296      0.0000
     32  C4D       -4.8160   54.1720   21.2230 C.ar  296  HEM296      0.0000
     33  CMD       -2.9230   53.1480   18.1460 C.3   296  HEM296      0.0000
     34  CAD       -4.2010   51.6510   20.7230 C.3   296  HEM296      0.0000
     35  CBD       -3.0460   51.1910   21.5750 C.3   296  HEM296      0.0000
     36  CGD       -2.9190   49.8070   22.0240 C.2   296  HEM296      0.0000
     37  O1D       -2.0990   49.6600   22.9730 O.co2 296  HEM296      0.0000
     38  O2D       -3.5650   48.9270   21.4550 O.co2 296  HEM296      0.0000
     39  NA        -6.3730   56.1780   22.7050 N.2   296  HEM296      0.0000
     40  NB        -6.4690   58.7240   21.6920 N.ar  296  HEM296      0.0000
     41  NC        -4.8710   57.9770   19.5190 N.2   296  HEM296      0.0000
     42  ND        -4.6120   55.4290   20.6670 N.ar  296  HEM296      0.0000
     43 FE         -5.5550   57.1070   21.1520 Fe    296  HEM296      0.0000
@<TRIPOS>BOND
     1    28    27    1
     2    27    24    1
     3    26    23    1
     4    24    23    2
     5    24    25    1
     6    23    22    1
     7    33    30    1
     8     4    25    1
     9     4    29    2
    10    25    41    2
    11    22    41    1
    12    22     3    2
    13    30    29   ar
    14    30    31   ar
    15    29    42   ar
    16    41    43    1
    17     3    18    1
    18    31    34    1
    19    31    32   ar
    20    42    43    1
    21    42    32   ar
    22    34    35    1
    23    18    17   ar
    24    18    40   ar
    25    43    40    1
    26    43    39    1
    27    20    21    2
    28    20    17    1
    29    32     1    2
    30    38    36   ar
    31    35    36    1
    32    17    16   ar
    33    40    15   ar
    34    36    37   ar
    35     1     5    1
    36    39     5    2
    37    39     8    1
    38    16    15   ar
    39    16    19    1
    40    15     2    1
    41     5     6    1
    42     8     2    2
    43     8     7    1
    44     6     7    2
    45     6    10    1
    46     7     9    1
    47    10    11    2
    48    11    12    1
    49    14    12   ar
    50    12    13   ar
