@<TRIPOS>MOLECULE
2ccr_B4G_A_1.pdb
 34 36 0 0 0
SMALL
GASTEIGER

@<TRIPOS>ATOM
      1  O1        17.3840   -5.2280   37.1430 O.3   1398  B4G1398    -0.1869
      2  O2        15.6800   -6.9590   38.6180 O.3   1398  B4G1398    -0.2148
      3  O3        16.6680   -7.7970   41.1770 O.3   1398  B4G1398    -0.2175
      4  O4        19.3230   -7.1340   40.7470 O.3   1398  B4G1398    -0.3257
      5  O5        18.6640   -4.7820   39.0460 O.3   1398  B4G1398    -0.3237
      6  CJ1       19.9110   -7.7540   41.8710 C.3   1398  B4G1398     0.2695
      7  CJ2       20.1970   -9.2140   41.5600 C.3   1398  B4G1398     0.2404
      8  CJ3       20.8550   -9.8200   42.8110 C.3   1398  B4G1398     0.2167
      9  CJ4       22.1620   -9.0820   43.1000 C.3   1398  B4G1398     0.1804
     10  CJ5       21.8770   -7.5690   43.3240 C.3   1398  B4G1398     0.1803
     11  CJ6       23.1290   -6.7320   43.5690 C.3   1398  B4G1398     0.2141
     12  OJ5       21.1500   -7.0390   42.1570 O.3   1398  B4G1398    -0.3257
     13  OJ2       18.9530   -9.8950   41.3020 O.3   1398  B4G1398    -0.2149
     14  OJ3       21.1460  -11.2010   42.5690 O.3   1398  B4G1398    -0.2175
     15  OJ4       23.1010   -9.2740   41.9920 O.3   1398  B4G1398    -0.3257
     16  OJ6       23.8960   -7.3120   44.6330 O.3   1398  B4G1398    -0.2176
     17  CQ1       24.2950   -9.9230   42.3980 C.3   1398  B4G1398     0.2695
     18  CQ2       24.7860  -10.8590   41.2890 C.3   1398  B4G1398     0.2406
     19  CQ3       26.0880  -11.5000   41.7870 C.3   1398  B4G1398     0.2198
     20  CQ4       27.1150  -10.3840   42.0240 C.3   1398  B4G1398     0.2144
     21  CQ5       26.5950   -9.4140   43.0910 C.3   1398  B4G1398     0.1835
     22  CQ6       27.5620   -8.2610   43.3460 C.3   1398  B4G1398     0.2142
     23  OQ5       25.2880   -8.8820   42.6480 O.3   1398  B4G1398    -0.3256
     24  OQ2       23.8160  -11.8890   41.0650 O.3   1398  B4G1398    -0.2149
     25  OQ3       26.5860  -12.3880   40.7740 O.3   1398  B4G1398    -0.2174
     26  OQ4       27.2950   -9.6470   40.8080 O.3   1398  B4G1398    -0.2176
     27  OQ6       26.9470   -7.3120   44.2360 O.3   1398  B4G1398    -0.2176
     28  C1A       17.3400   -5.1920   38.5420 C.3   1398  B4G1398     0.3023
     29  C2A       16.9850   -6.5730   39.0980 C.3   1398  B4G1398     0.2433
     30  C3A       16.9810   -6.5060   40.6320 C.3   1398  B4G1398     0.2168
     31  C4A       18.3560   -6.0940   41.1230 C.3   1398  B4G1398     0.1804
     32  C5A       18.7410   -4.7120   40.5150 C.3   1398  B4G1398     0.1804
     33  C6A       20.1290   -4.2390   40.9250 C.3   1398  B4G1398     0.2141
     34  O6        20.4290   -3.0430   40.2020 O.3   1398  B4G1398    -0.2176
@<TRIPOS>BOND
     1     1    28    1
     2    28     5    1
     3    28    29    1
     4     2    29    1
     5     5    32    1
     6    29    30    1
     7    34    33    1
     8    32    33    1
     9    32    31    1
    10    30    31    1
    11    30     3    1
    12     4    31    1
    13     4     6    1
    14    25    19    1
    15    26    20    1
    16    24    18    1
    17    18    19    1
    18    18    17    1
    19    13     7    1
    20     7     6    1
    21     7     8    1
    22    19    20    1
    23     6    12    1
    24    15    17    1
    25    15     9    1
    26    20    21    1
    27    12    10    1
    28    17    23    1
    29    14     8    1
    30    23    21    1
    31     8     9    1
    32    21    22    1
    33     9    10    1
    34    10    11    1
    35    22    27    1
    36    11    16    1
