@<TRIPOS>MOLECULE
2ccr_B2G_A_1.pdb
 23 24 0 0 0
SMALL
GASTEIGER

@<TRIPOS>ATOM
      1  C1A       16.6150  -15.4580   32.7500 C.3   1399  B2G1399     0.3023
      2  C2A       17.4680  -14.6140   31.7980 C.3   1399  B2G1399     0.2433
      3  C3A       18.5500  -13.8910   32.6090 C.3   1399  B2G1399     0.2168
      4  C4A       17.8810  -12.9800   33.6580 C.3   1399  B2G1399     0.1804
      5  C5A       16.9650  -13.8520   34.6040 C.3   1399  B2G1399     0.1804
      6  C6A       16.2440  -13.0940   35.7020 C.3   1399  B2G1399     0.2141
      7  O2A       18.1040  -15.4660   30.7770 O.3   1399  B2G1399    -0.2148
      8  O3A       19.3370  -13.0800   31.7300 O.3   1399  B2G1399    -0.2175
      9  O4A       17.0970  -11.9730   32.9210 O.3   1399  B2G1399    -0.3257
     10  O5A       15.9810  -14.6110   33.7700 O.3   1399  B2G1399    -0.3237
     11  O6A       16.7270  -13.6690   36.9480 O.3   1399  B2G1399    -0.2176
     12  C1B       17.6200  -10.6580   32.9200 C.3   1399  B2G1399     0.2695
     13  C2B       16.6680   -9.7960   32.0860 C.3   1399  B2G1399     0.2406
     14  C3B       17.3670   -8.4040   32.1540 C.3   1399  B2G1399     0.2198
     15  C4B       17.3960   -7.8790   33.6430 C.3   1399  B2G1399     0.2144
     16  C5B       18.2200   -8.8320   34.5760 C.3   1399  B2G1399     0.1835
     17  C6B       18.3650   -8.4650   36.2000 C.3   1399  B2G1399     0.2142
     18  O2B       16.7120  -10.2700   30.7510 O.3   1399  B2G1399    -0.2149
     19  O3B       16.5950   -7.4670   31.3420 O.3   1399  B2G1399    -0.2174
     20  O4B       16.0860   -7.9130   34.1240 O.3   1399  B2G1399    -0.2176
     21  O5B       17.7070  -10.2040   34.3600 O.3   1399  B2G1399    -0.3256
     22  O6B       17.3620   -8.1160   37.0790 O.3   1399  B2G1399    -0.2176
     23  O1A       15.6310  -16.1110   32.0320 O.3   1399  B2G1399    -0.1869
@<TRIPOS>BOND
     1    18    13    1
     2     7     2    1
     3    19    14    1
     4     8     3    1
     5     2     3    1
     6     2     1    1
     7    23     1    1
     8    13    14    1
     9    13    12    1
    10    14    15    1
    11     3     4    1
    12     1    10    1
    13    12     9    1
    14    12    21    1
    15     9     4    1
    16    15    20    1
    17    15    16    1
    18     4     5    1
    19    10     5    1
    20    21    16    1
    21    16    17    1
    22     5     6    1
    23     6    11    1
    24    17    22    1
