@<TRIPOS>MOLECULE
2ccs_4BH_A_1.pdb
 20 22 0 0 0
SMALL
GASTEIGER

@<TRIPOS>ATOM
      1 CL         33.4180   12.4120   23.0680 Cl    1224  4BH1224    -0.0789
      2  C1        31.8580   11.7320   23.5930 C.ar  1224  4BH1224     0.0967
      3  C2        30.7280   11.9710   22.8700 C.ar  1224  4BH1224     0.2093
      4  O2        30.8540   12.7170   21.6860 O.3   1224  4BH1224    -0.2856
      5  C3        29.4780   11.4760   23.2290 C.ar  1224  4BH1224     0.0849
      6  C4        29.4140   10.7440   24.4030 C.ar  1224  4BH1224     0.2001
      7  O4        28.1680   10.2570   24.8080 O.3   1224  4BH1224    -0.2864
      8  C5        31.8220   10.9560   24.7300 C.ar  1224  4BH1224     0.0191
      9  C6        30.5660   10.4780   25.1420 C.ar  1224  4BH1224     0.0570
     10  C7        30.4910    9.6030   26.3430 C.2   1224  4BH1224     0.1039
     11  N1        29.6900    9.6490   27.3800 N.2   1224  4BH1224    -0.1508
     12  N2        29.9620    8.6100   28.1630 N.2   1224  4BH1224    -0.1496
     13  C8        30.9230    7.8140   27.6910 C.2   1224  4BH1224     0.1176
     14  C9        31.2860    8.4410   26.4960 C.3   1224  4BH1224     0.1438
     15  N3        32.1990    7.8090   25.6810 N.3   1224  4BH1224    -0.2616
     16  C11       31.8170    7.3560   24.3430 C.3   1224  4BH1224     0.0917
     17  C12       32.9930    7.1640   23.3710 C.3   1224  4BH1224     0.1060
     18  C15       33.4830    7.3880   26.2540 C.3   1224  4BH1224     0.0917
     19  C14       34.6030    7.1890   25.2260 C.3   1224  4BH1224     0.1060
     20  N4        34.1340    6.4390   24.0180 N.3   1224  4BH1224    -0.2151
@<TRIPOS>BOND
     1     4     3    1
     2     3     5   ar
     3     3     2   ar
     4     1     2    1
     5     5     6   ar
     6    17    20    1
     7    17    16    1
     8     2     8   ar
     9    20    19    1
    10    16    15    1
    11     6     7    1
    12     6     9   ar
    13     8     9   ar
    14     9    10    1
    15    19    18    1
    16    15    18    1
    17    15    14    1
    18    10    14    1
    19    10    11    2
    20    14    13    1
    21    11    12    1
    22    13    12    2
