@<TRIPOS>MOLECULE
2cct_2E1_A_1.pdb
 25 27 0 0 0
SMALL
GASTEIGER

@<TRIPOS>ATOM
      1  C19       35.0300    7.1580   25.3610 C.3   1224  2E11224     0.1060
      2  C20       34.0940    8.2190   25.9230 C.3   1224  2E11224     0.0917
      3  C17       32.3020    7.4210   24.3390 C.3   1224  2E11224     0.0917
      4  C16       33.2950    6.3580   23.8720 C.3   1224  2E11224     0.1060
      5  N21       32.6980    8.0350   25.5880 N.3   1224  2E11224    -0.2616
      6  C3        31.7870    8.6090   26.3990 C.3   1224  2E11224     0.1472
      7  C2        31.3770    8.3360   27.6760 C.2   1224  2E11224     0.1554
      8  C8        31.8480    7.2240   28.4370 C.2   1224  2E11224     0.2819
      9  N24       34.6920    6.9190   23.9210 N.3   1224  2E11224    -0.2151
     10  O9        32.3810    6.2910   27.8430 O.2   1224  2E11224    -0.2669
     11  N10       31.7170    7.2950   29.7650 N.am  1224  2E11224    -0.2006
     12  C26       31.9740    6.1740   30.5170 C.3   1224  2E11224     0.1156
     13  C27       33.4540    5.8480   30.7900 C.3   1224  2E11224     0.0253
     14  N1        30.5410    9.2700   28.1140 N.2   1224  2E11224    -0.1462
     15  N5        30.3490   10.1640   27.1350 N.2   1224  2E11224    -0.1507
     16  C4        31.0920    9.8120   26.0680 C.2   1224  2E11224     0.1040
     17  C6        31.1260   10.6170   24.8360 C.ar  1224  2E11224     0.0570
     18  C11       32.3410   11.1030   24.3700 C.ar  1224  2E11224     0.0191
     19  C12       32.3740   11.8650   23.2070 C.ar  1224  2E11224     0.0967
     20 CL25       33.8730   12.5000   22.6400 Cl    1224  2E11224    -0.0789
     21  C13       31.2390   12.1950   22.4900 C.ar  1224  2E11224     0.2093
     22  O24       31.3410   12.9440   21.3480 O.3   1224  2E11224    -0.2856
     23  C14       30.0080   11.7000   22.9670 C.ar  1224  2E11224     0.0849
     24  C15       29.9780   10.9260   24.1380 C.ar  1224  2E11224     0.2001
     25  O23       28.8370   10.5160   24.5970 O.3   1224  2E11224    -0.2864
@<TRIPOS>BOND
     1    22    21    1
     2    21    23   ar
     3    21    19   ar
     4    20    19    1
     5    23    24   ar
     6    19    18   ar
     7     4     9    1
     8     4     3    1
     9     9     1    1
    10    24    25    1
    11    24    17   ar
    12     3     5    1
    13    18    17   ar
    14    17    16    1
    15     1     2    1
    16     5     2    1
    17     5     6    1
    18    16     6    1
    19    16    15    2
    20     6     7    1
    21    15    14    1
    22     7    14    2
    23     7     8    1
    24    10     8    2
    25     8    11   am
    26    11    12    1
    27    12    13    1
