@<TRIPOS>MOLECULE
2ccu_2D9_A_1.pdb
 31 34 0 0 0
SMALL
GASTEIGER

@<TRIPOS>ATOM
      1  C31       30.3250    3.0800   18.5890 C.3   1224  2D91224     0.1816
      2  S28       32.1020    2.8400   18.4830 S.O2  1224  2D91224     0.0104
      3  O29       32.1810    1.3580   18.7050 O.2   1224  2D91224    -0.1686
      4  O30       32.4150    3.2230   17.0480 O.2   1224  2D91224    -0.1686
      5  C25       33.0550    3.7530   19.7760 C.ar  1224  2D91224     0.1057
      6  C26       33.7420    4.9720   19.5820 C.ar  1224  2D91224     0.0181
      7  C27       34.4350    5.6070   20.6510 C.ar  1224  2D91224    -0.0016
      8  C24       33.1200    3.2080   21.0650 C.ar  1224  2D91224     0.0181
      9  C23       33.8070    3.8360   22.1240 C.ar  1224  2D91224    -0.0016
     10  C19       34.4630    5.0560   21.9510 C.ar  1224  2D91224    -0.0061
     11  C18       35.2220    5.6900   23.1690 C.3   1224  2D91224     0.0992
     12  N15       34.4470    6.6080   24.0870 N.3   1224  2D91224    -0.2660
     13  C16       33.1080    7.0140   23.5630 C.3   1224  2D91224     0.0941
     14  C17       31.9840    6.9510   24.6110 C.3   1224  2D91224     0.1082
     15  C14       34.4600    6.0970   25.4990 C.3   1224  2D91224     0.0941
     16  C13       33.6370    6.9400   26.5240 C.3   1224  2D91224     0.1082
     17  N12       32.3580    7.4140   25.9510 N.pl3 1224  2D91224    -0.3022
     18  C3        31.5040    8.2570   26.7030 C.ar  1224  2D91224     0.0889
     19  C2        31.1690    7.9020   27.9240 C.ar  1224  2D91224     0.1382
     20  N1        30.3760    8.8750   28.3980 N.ar  1224  2D91224    -0.1450
     21  N5        30.1700    9.7950   27.5770 N.ar  1224  2D91224    -0.1465
     22  C4        30.8580    9.5430   26.4630 C.ar  1224  2D91224     0.1208
     23  C6        30.8970   10.3700   25.3020 C.ar  1224  2D91224     0.0606
     24  C7        32.1040   10.8160   24.8050 C.ar  1224  2D91224     0.0194
     25  C8        32.1800   11.6200   23.6540 C.ar  1224  2D91224     0.0967
     26 CL20       33.7640   12.1180   23.1540 Cl    1224  2D91224    -0.0789
     27  C9        31.0220   12.0100   22.9210 C.ar  1224  2D91224     0.2093
     28  O21       31.0940   12.7880   21.7370 O.3   1224  2D91224    -0.2856
     29  C10       29.7810   11.5660   23.4590 C.ar  1224  2D91224     0.0849
     30  C11       29.7430   10.7670   24.6180 C.ar  1224  2D91224     0.2004
     31  O22       28.5440   10.3480   25.0670 O.3   1224  2D91224    -0.2864
@<TRIPOS>BOND
     1     4     2    2
     2     2     1    1
     3     2     3    2
     4     2     5    1
     5     6     5   ar
     6     6     7   ar
     7     5     8   ar
     8     7    10   ar
     9     8     9   ar
    10    28    27    1
    11    10     9   ar
    12    10    11    1
    13    27    29   ar
    14    27    25   ar
    15    26    25    1
    16    11    12    1
    17    29    30   ar
    18    13    12    1
    19    13    14    1
    20    25    24   ar
    21    12    15    1
    22    14    17    1
    23    30    31    1
    24    30    23   ar
    25    24    23   ar
    26    23    22    1
    27    15    16    1
    28    17    16    1
    29    17    18    1
    30    22    18   ar
    31    22    21   ar
    32    18    19   ar
    33    21    20   ar
    34    19    20   ar
