@<TRIPOS>MOLECULE
2ccv_A2G_A_1.pdb
 15 15 0 0 0
SMALL
GASTEIGER

@<TRIPOS>ATOM
      1  C1         9.6390  -10.4160   99.3620 C.3   1101  A2G1101     0.2917
      2  C2        10.5190  -10.6090  100.6110 C.3   1101  A2G1101     0.1871
      3  C3         9.7580  -11.5320  101.6220 C.3   1101  A2G1101     0.2095
      4  C4         8.3780  -11.0330  101.9770 C.3   1101  A2G1101     0.2136
      5  C5         7.6280  -10.8090  100.6310 C.3   1101  A2G1101     0.1835
      6  C6         6.1970  -10.2610  100.7900 C.3   1101  A2G1101     0.2142
      7  C7        12.9710  -10.8080  100.7380 C.2   1101  A2G1101     0.2421
      8  C8        14.1560  -11.6540  100.0840 C.3   1101  A2G1101     0.0964
      9  O          8.3580   -9.9400   99.7720 O.3   1101  A2G1101    -0.3242
     10  O1         9.5200  -11.6510   98.7090 O.3   1101  A2G1101    -0.1879
     11  O3        10.5210  -11.5950  102.8970 O.3   1101  A2G1101    -0.2183
     12  O4         8.5050   -9.7760  102.6930 O.3   1101  A2G1101    -0.2176
     13  O6         6.2360   -8.8690  101.1220 O.3   1101  A2G1101    -0.2176
     14  O7        13.1570   -9.9330  101.5610 O.2   1101  A2G1101    -0.2733
     15  N2        11.7570  -11.2280  100.2150 N.am  1101  A2G1101    -0.1991
@<TRIPOS>BOND
     1    10     1    1
     2     1     9    1
     3     1     2    1
     4     9     5    1
     5     8     7    1
     6    15     2    1
     7    15     7   am
     8     2     3    1
     9     5     6    1
    10     5     4    1
    11     7    14    2
    12     6    13    1
    13     3     4    1
    14     3    11    1
    15     4    12    1
