@<TRIPOS>MOLECULE
2ccy_HEM_A_1.pdb
 43 50 0 0 0
SMALL
GASTEIGER

@<TRIPOS>ATOM
      1 FE         12.2040   25.0440   21.7040 Fe    129  HEM129      0.0000
      2  CHA        9.0500   23.8010   22.1040 C.2   129  HEM129      0.0000
      3  CHB       13.4940   22.4560   23.7150 C.2   129  HEM129      0.0000
      4  CHC       15.4500   25.9610   20.8570 C.2   129  HEM129      0.0000
      5  CHD       10.9950   27.3960   19.3970 C.2   129  HEM129      0.0000
      6  NA        11.4650   23.4980   22.6360 N.2   129  HEM129      0.0000
      7  C1A       10.0840   23.0770   22.7490 C.2   129  HEM129      0.0000
      8  C2A        9.9500   21.9790   23.6100 C.2   129  HEM129      0.0000
      9  C3A       11.1860   21.6410   24.0550 C.2   129  HEM129      0.0000
     10  C4A       12.1030   22.5370   23.4480 C.2   129  HEM129      0.0000
     11  CMA       11.5690   20.4140   24.9410 C.3   129  HEM129      0.0000
     12  CAA        8.6440   21.1800   23.9610 C.3   129  HEM129      0.0000
     13  CBA        8.2600   20.0720   22.9820 C.3   129  HEM129      0.0000
     14  CGA        7.0750   19.2590   23.3980 C.2   129  HEM129      0.0000
     15  O1A        6.0150   20.0070   23.5080 O.co2 129  HEM129      0.0000
     16  O2A        7.0920   18.0770   23.7300 O.co2 129  HEM129      0.0000
     17  NB        14.0770   24.3610   22.1140 N.ar  129  HEM129      0.0000
     18  C1B       14.3630   23.3890   23.0640 C.ar  129  HEM129      0.0000
     19  C2B       15.7910   23.4220   23.3430 C.ar  129  HEM129      0.0000
     20  C3B       16.3150   24.3140   22.5030 C.ar  129  HEM129      0.0000
     21  C4B       15.2050   24.9560   21.7720 C.ar  129  HEM129      0.0000
     22  CMB       16.4550   22.4500   24.3630 C.3   129  HEM129      0.0000
     23  CAB       17.8350   24.8110   22.5070 C.3   129  HEM129      0.0000
     24  CBB       18.8240   23.8240   22.3030 C.3   129  HEM129      0.0000
     25  NC        13.0270   26.3390   20.4440 N.2   129  HEM129      0.0000
     26  C1C       14.3810   26.5430   20.1940 C.2   129  HEM129      0.0000
     27  C2C       14.5890   27.6240   19.3010 C.2   129  HEM129      0.0000
     28  C3C       13.3690   28.0030   18.7870 C.2   129  HEM129      0.0000
     29  C4C       12.4040   27.1720   19.5320 C.2   129  HEM129      0.0000
     30  CMC       15.9080   28.1520   18.7580 C.3   129  HEM129      0.0000
     31  CAC       13.0120   29.1480   17.8100 C.3   129  HEM129      0.0000
     32  CBC       13.8680   29.6560   16.8060 C.3   129  HEM129      0.0000
     33  ND        10.3930   25.5160   20.8850 N.ar  129  HEM129      0.0000
     34  C1D       10.1490   26.5070   19.9900 C.ar  129  HEM129      0.0000
     35  C2D        8.6530   26.6410   19.9900 C.ar  129  HEM129      0.0000
     36  C3D        8.1490   25.6600   20.6890 C.ar  129  HEM129      0.0000
     37  C4D        9.2550   24.8870   21.2660 C.ar  129  HEM129      0.0000
     38  CMD        7.9930   27.7620   19.1280 C.3   129  HEM129      0.0000
     39  CAD        6.6280   25.3030   20.8530 C.3   129  HEM129      0.0000
     40  CBD        6.1390   24.3660   19.7070 C.3   129  HEM129      0.0000
     41  CGD        4.6390   24.0730   19.6020 C.2   129  HEM129      0.0000
     42  O1D        3.9070   24.7160   18.8280 O.co2 129  HEM129      0.0000
     43  O2D        4.2230   23.1290   20.2830 O.co2 129  HEM129      0.0000
@<TRIPOS>BOND
     1    32    31    1
     2    31    28    1
     3    30    27    1
     4    28    27    2
     5    28    29    1
     6    42    41   ar
     7    38    35    1
     8    27    26    1
     9     5    29    1
    10     5    34    2
    11    29    25    2
    12    41    40    1
    13    41    43   ar
    14    40    39    1
    15    35    34   ar
    16    35    36   ar
    17    34    33   ar
    18    26    25    1
    19    26     4    2
    20    25     1    1
    21    36    39    1
    22    36    37   ar
    23     4    21    1
    24    33    37   ar
    25    33     1    1
    26    37     2    2
    27     1    17    1
    28     1     6    1
    29    21    17   ar
    30    21    20   ar
    31     2     7    1
    32    17    18   ar
    33    24    23    1
    34    20    23    1
    35    20    19   ar
    36     6     7    2
    37     6    10    1
    38     7     8    1
    39    13    14    1
    40    13    12    1
    41    18    19   ar
    42    18     3    1
    43    19    22    1
    44    14    15   ar
    45    14    16   ar
    46    10     3    2
    47    10     9    1
    48     8    12    1
    49     8     9    2
    50     9    11    1
