@<TRIPOS>MOLECULE
2cd2_NAP_A_1.pdb
 48 52 0 0 0
SMALL
GASTEIGER

@<TRIPOS>ATOM
      1  PA        15.7060    9.2900   23.4320 P.3   207  NAP207      0.2189
      2  O1A       15.6700    9.5720   21.9310 O.2   207  NAP207     -0.5170
      3  O2A       14.3920    8.9630   24.0050 O.3   207  NAP207     -0.4371
      4  O5B       16.3530   10.7490   23.9520 O.3   207  NAP207     -0.3112
      5  C5B       16.5950   10.8610   25.4140 C.3   207  NAP207      0.1813
      6  C4B       16.4490   12.3750   25.6640 C.3   207  NAP207      0.1820
      7  O4B       15.3080   12.7350   25.3720 O.3   207  NAP207     -0.3136
      8  C3B       16.4690   12.4990   27.2950 C.3   207  NAP207      0.2157
      9  O3B       17.9650   12.5320   27.3880 O.3   207  NAP207     -0.2175
     10  C2B       15.7290   13.8460   27.3730 C.3   207  NAP207      0.2314
     11  O2B       16.4100   14.9160   26.8640 O.3   207  NAP207     -0.2630
     12  C1B       14.6280   13.5710   26.3200 C.3   207  NAP207      0.3158
     13  N9A       13.4670   12.9400   26.9220 N.pl3 207  NAP207     -0.1439
     14  C8A       13.0500   11.6710   26.6320 C.3   207  NAP207      0.3377
     15  N7A       11.9790   11.3180   27.2910 N.2   207  NAP207     -0.2095
     16  C5A       11.7790   12.5420   28.0580 C.2   207  NAP207      0.2526
     17  C6A       10.7040   12.9470   29.1250 C.2   207  NAP207      0.4393
     18  N6A        9.7890   11.9820   29.3870 N.pl3 207  NAP207      0.2180
     19  N1A       10.7930   14.1280   29.6150 N.2   207  NAP207      0.0021
     20  C2A       11.7770   14.9300   29.2090 C.3   207  NAP207      0.5254
     21  N3A       12.7490   14.6900   28.3500 N.2   207  NAP207     -0.0055
     22  C4A       12.6800   13.4590   27.8200 C.2   207  NAP207      0.3518
     23  O3        16.9020    8.3970   23.8040 O.3   207  NAP207     -0.2703
     24  PN        17.4100    6.9030   23.8710 P.3   207  NAP207      0.2189
     25  O1N       16.6750    6.1870   24.8440 O.3   207  NAP207     -0.4371
     26  O2N       18.8470    6.9110   24.1290 O.2   207  NAP207     -0.5170
     27  O5D       17.2030    6.3370   22.3740 O.3   207  NAP207     -0.3112
     28  C5D       17.8960    6.8010   21.2170 C.3   207  NAP207      0.1813
     29  C4D       18.4570    5.4680   20.6640 C.3   207  NAP207      0.1799
     30  O4D       17.2630    4.6440   20.2880 O.3   207  NAP207     -0.3327
     31  C3D       19.3910    5.5850   19.4050 C.3   207  NAP207      0.2158
     32  O3D       20.2480    4.4220   19.3230 O.3   207  NAP207     -0.2175
     33  C2D       18.3240    5.4850   18.2750 C.3   207  NAP207      0.2309
     34  O2D       18.9170    5.0290   17.1100 O.3   207  NAP207     -0.2158
     35  C1D       17.4210    4.3930   18.8460 C.3   207  NAP207      0.2263
     36  N1N       16.0180    4.3530   18.2250 N.pl3 207  NAP207     -0.2787
     37  C2N       15.5270    3.2230   17.5400 C.3   207  NAP207      0.1244
     38  C3N       14.2920    3.3060   17.0250 C.2   207  NAP207      0.0544
     39  C7N       13.7830    2.0960   16.2960 C.2   207  NAP207      0.2818
     40  O7N       12.6600    2.1070   15.8320 O.2   207  NAP207     -0.2670
     41  N7N       14.6790    1.0860   16.2660 N.am  207  NAP207     -0.0839
     42  C4N       13.3770    4.5340   17.1450 C.2   207  NAP207      0.0033
     43  C5N       14.0550    5.6430   17.9040 C.2   207  NAP207      0.0157
     44  C6N       15.2770    5.5350   18.3980 C.2   207  NAP207      0.0633
     45  P2B       17.4870   15.9940   27.6830 P.3   207  NAP207      0.5328
     46  O1X       16.6470   16.3670   28.8980 O.3   207  NAP207     -0.1145
     47  O2X       17.5970   17.0190   26.6520 O.2   207  NAP207     -0.2224
     48  O3X       18.6050   15.1220   28.1260 O.3   207  NAP207     -0.1145
@<TRIPOS>BOND
     1    40    39    2
     2    41    39   am
     3    39    38    1
     4    38    42    2
     5    38    37    1
     6    34    33    1
     7    42    43    1
     8    37    36    1
     9    43    44    2
    10    36    44    1
    11    36    35    1
    12    33    35    1
    13    33    31    1
    14    35    30    1
    15    32    31    1
    16    31    29    1
    17    30    29    1
    18    29    28    1
    19    28    27    1
    20     2     1    2
    21    27    24    1
    22     1    23    1
    23     1     4    1
    24     1     3    1
    25    23    24    1
    26    24    26    2
    27    24    25    1
    28     4     5    1
    29     7     6    1
    30     7    12    1
    31     5     6    1
    32     6     8    1
    33    12    13    1
    34    12    10    1
    35    14    13    1
    36    14    15    1
    37    47    45    2
    38    11    10    1
    39    11    45    1
    40    13    22    1
    41    15    16    2
    42     8    10    1
    43     8     9    1
    44    45    48    1
    45    45    46    1
    46    22    16    1
    47    22    21    2
    48    16    17    1
    49    21    20    1
    50    17    18    1
    51    17    19    2
    52    20    19    1
