@<TRIPOS>MOLECULE
2cd2_FOL_A_1.pdb
 32 34 0 0 0
SMALL
GASTEIGER

@<TRIPOS>ATOM
      1  N1        10.3440    3.0270   13.1130 N.2   307  FOL307     -0.2672
      2  C2        10.5820    2.1120   12.1300 C.1   307  FOL307      0.2609
      3  NA2        9.6930    1.2650   11.7330 N.pl3 307  FOL307     -0.0220
      4  N3        11.7900    2.0960   11.5310 N.2   307  FOL307     -0.2466
      5  C4        12.7010    2.9700   11.8900 C.1   307  FOL307      0.2569
      6  O4        13.8600    2.8940   11.2970 O.2   307  FOL307     -0.2052
      7  C4A       12.4750    3.9660   12.9320 C.2   307  FOL307      0.2988
      8  N5        13.4260    4.8650   13.2690 N.2   307  FOL307     -0.3839
      9  C6        13.1210    5.7280   14.2060 C.2   307  FOL307      0.1356
     10  C7        11.8820    5.6880   14.7960 C.3   307  FOL307      0.1931
     11  N8        10.8990    4.8410   14.4800 N.2   307  FOL307     -0.1992
     12  C8A       11.2330    3.9450   13.5440 C.1   307  FOL307      0.1401
     13  C9        14.2130    6.7130   14.6110 C.3   307  FOL307      0.1683
     14  N10       15.3610    6.8290   13.7360 N.pl3 307  FOL307     -0.2303
     15  C11       15.2440    8.4190    9.7860 C.ar  307  FOL307      0.0551
     16  C12       16.3990    7.9220   10.3590 C.ar  307  FOL307      0.0059
     17  C13       16.4030    7.4090   11.6410 C.ar  307  FOL307      0.0162
     18  C14       15.2640    7.3800   12.4690 C.ar  307  FOL307      0.0658
     19  C15       14.1140    7.8980   11.8860 C.ar  307  FOL307      0.0162
     20  C16       14.1100    8.3920   10.5870 C.ar  307  FOL307      0.0059
     21  C         15.1760    8.9780    8.4080 C.2   307  FOL307      0.2652
     22  O         16.1890    9.4630    7.8400 O.2   307  FOL307     -0.2684
     23  N         13.9710    8.9760    7.8060 N.am  307  FOL307     -0.1918
     24  CA        13.5900    9.5980    6.5340 C.3   307  FOL307      0.1986
     25  CB        13.7050    8.6150    5.3540 C.3   307  FOL307      0.0451
     26  CG        15.1260    8.7040    4.7960 C.3   307  FOL307      0.1164
     27  CD        15.1050    8.0360    3.4750 C.2   307  FOL307      0.3649
     28  OE1       15.5320    6.8340    3.1760 O.co2 307  FOL307     -0.2457
     29  OE2       14.5230    8.5340    2.3850 O.co2 307  FOL307     -0.2457
     30  CT        12.1820   10.1780    6.5740 C.2   307  FOL307      0.3842
     31  O1        11.3570    9.5050    7.2260 O.co2 307  FOL307     -0.2437
     32  O2        12.0340   11.2480    5.9070 O.co2 307  FOL307     -0.2437
@<TRIPOS>BOND
     1    29    27   ar
     2    28    27   ar
     3    27    26    1
     4    26    25    1
     5    25    24    1
     6    32    30   ar
     7    24    30    1
     8    24    23    1
     9    30    31   ar
    10    23    21   am
    11    22    21    2
    12    21    15    1
    13    15    16   ar
    14    15    20   ar
    15    16    17   ar
    16    20    19   ar
    17     6     5    2
    18     4     5    2
    19     4     2    2
    20    17    18   ar
    21     3     2    1
    22    19    18   ar
    23     5     7    1
    24     2     1    2
    25    18    14    1
    26     7     8    2
    27     7    12    1
    28     1    12    2
    29     8     9    2
    30    12    11    2
    31    14    13    1
    32     9    13    1
    33     9    10    1
    34    11    10    1
