@<TRIPOS>MOLECULE
2cd8_HEM_A_1.pdb
 43 50 0 0 0
SMALL
GASTEIGER

@<TRIPOS>ATOM
      1 FE         23.9290    3.9450   28.3650 Fe    419  HEM419      0.0000
      2  CHA       24.4390    3.0020   25.0340 C.2   419  HEM419      0.0000
      3  CHB       26.8530    2.3780   29.2770 C.2   419  HEM419      0.0000
      4  CHC       23.3630    4.8800   31.6180 C.2   419  HEM419      0.0000
      5  CHD       20.7150    4.9650   27.5280 C.2   419  HEM419      0.0000
      6  NA        25.3340    2.9700   27.3750 N.2   419  HEM419      0.0000
      7  C1A       25.4900    2.7710   25.9500 C.2   419  HEM419      0.0000
      8  C2A       26.7350    2.0010   25.6630 C.2   419  HEM419      0.0000
      9  C3A       27.3160    1.6460   26.8940 C.2   419  HEM419      0.0000
     10  C4A       26.4680    2.2780   27.9140 C.2   419  HEM419      0.0000
     11  CMA       28.7190    1.0630   27.1630 C.3   419  HEM419      0.0000
     12  CAA       27.1880    1.5190   24.2730 C.3   419  HEM419      0.0000
     13  CBA       27.1710   -0.0020   24.2580 C.3   419  HEM419      0.0000
     14  CGA       27.6600   -0.6070   22.9360 C.2   419  HEM419      0.0000
     15  O1A       28.1510    0.1320   22.0620 O.co2 419  HEM419      0.0000
     16  O2A       27.5610   -1.8270   22.7900 O.co2 419  HEM419      0.0000
     17  NB        24.8910    3.6710   30.0880 N.ar  419  HEM419      0.0000
     18  C1B       26.1460    3.0620   30.2610 C.ar  419  HEM419      0.0000
     19  C2B       26.5740    3.1420   31.6830 C.ar  419  HEM419      0.0000
     20  C3B       25.5270    3.7680   32.3230 C.ar  419  HEM419      0.0000
     21  C4B       24.5460    4.1350   31.3360 C.ar  419  HEM419      0.0000
     22  CMB       28.0120    2.8380   32.2280 C.3   419  HEM419      0.0000
     23  CAB       25.3090    4.0110   33.7200 C.3   419  HEM419      0.0000
     24  CBB       26.2890    4.1510   34.7860 C.3   419  HEM419      0.0000
     25  NC        22.3980    4.7870   29.3180 N.2   419  HEM419      0.0000
     26  C1C       22.3620    5.1540   30.6980 C.2   419  HEM419      0.0000
     27  C2C       21.1520    5.8160   31.0470 C.2   419  HEM419      0.0000
     28  C3C       20.3980    5.8670   29.8780 C.2   419  HEM419      0.0000
     29  C4C       21.1540    5.1970   28.8380 C.2   419  HEM419      0.0000
     30  CMC       20.8740    6.5010   32.4040 C.3   419  HEM419      0.0000
     31  CAC       19.1660    6.5280   29.6790 C.3   419  HEM419      0.0000
     32  CBC       18.8190    7.8010   30.3040 C.3   419  HEM419      0.0000
     33  ND        22.7980    3.9210   26.6690 N.ar  419  HEM419      0.0000
     34  C1D       21.4810    4.3640   26.5270 C.ar  419  HEM419      0.0000
     35  C2D       21.0760    4.2210   25.1370 C.ar  419  HEM419      0.0000
     36  C3D       22.0810    3.6670   24.4790 C.ar  419  HEM419      0.0000
     37  C4D       23.1590    3.4710   25.3950 C.ar  419  HEM419      0.0000
     38  CMD       19.7890    4.6830   24.4810 C.3   419  HEM419      0.0000
     39  CAD       22.1930    3.4080   22.9630 C.3   419  HEM419      0.0000
     40  CBD       22.8190    4.5510   22.1880 C.3   419  HEM419      0.0000
     41  CGD       23.0620    4.2070   20.7380 C.2   419  HEM419      0.0000
     42  O1D       22.9060    3.0270   20.3640 O.co2 419  HEM419      0.0000
     43  O2D       23.4220    5.1180   19.9680 O.co2 419  HEM419      0.0000
@<TRIPOS>BOND
     1    43    41   ar
     2    42    41   ar
     3    41    40    1
     4    15    14   ar
     5    40    39    1
     6    16    14   ar
     7    14    13    1
     8    39    36    1
     9    13    12    1
    10    12     8    1
    11    36    35   ar
    12    36    37   ar
    13    38    35    1
    14     2    37    2
    15     2     7    1
    16    35    34   ar
    17    37    33   ar
    18     8     7    1
    19     8     9    2
    20     7     6    2
    21    34    33   ar
    22    34     5    2
    23    33     1    1
    24     9    11    1
    25     9    10    1
    26     6    10    1
    27     6     1    1
    28     5    29    1
    29    10     3    2
    30     1    25    1
    31     1    17    1
    32    29    25    2
    33    29    28    1
    34     3    18    1
    35    25    26    1
    36    31    28    1
    37    31    32    1
    38    28    27    2
    39    17    18   ar
    40    17    21   ar
    41    18    19   ar
    42    26    27    1
    43    26     4    2
    44    27    30    1
    45    21     4    1
    46    21    20   ar
    47    19    22    1
    48    19    20   ar
    49    20    23    1
    50    23    24    1
