@<TRIPOS>MOLECULE
2cd8_PXI_A_1.pdb
 32 33 0 0 0
SMALL
GASTEIGER

@<TRIPOS>ATOM
      1  C1        23.8540   -0.3780   26.9170 C.3   420  PXI420      0.0038
      2  C2        24.7560   -1.3000   27.7520 C.3   420  PXI420      0.0440
      3  C3        23.9190   -2.3410   28.5950 C.3   420  PXI420      0.1727
      4  O1        23.0560   -3.1340   27.7210 O.3   420  PXI420     -0.4519
      5  C4        21.6970   -3.2080   27.6870 C.2   420  PXI420      0.3187
      6  O2        20.9480   -2.5320   28.3610 O.2   420  PXI420     -0.2500
      7  C5        21.2780   -4.2460   26.7470 C.3   420  PXI420      0.1262
      8  C6        20.9400   -3.5850   25.3810 C.3   420  PXI420      0.0142
      9  C7        20.0400   -5.1210   27.1610 C.3   420  PXI420      0.1283
     10  O3        20.0550   -6.1320   26.1000 O.3   420  PXI420     -0.3305
     11  C8        18.8460   -6.7290   25.5950 C.3   420  PXI420      0.2679
     12  O4        17.6290   -6.5510   26.3500 O.3   420  PXI420     -0.3311
     13  C9        16.5650   -7.4390   25.8300 C.3   420  PXI420      0.1194
     14  C10       15.3080   -7.2210   26.6590 C.3   420  PXI420      0.0322
     15  C11       16.2600   -7.1290   24.3250 C.3   420  PXI420      0.0483
     16  C12       17.5960   -7.2770   23.5170 C.3   420  PXI420      0.0957
     17  N1        17.5650   -7.1370   22.0090 N.3   420  PXI420     -0.2691
     18  C13       17.8700   -8.4720   21.4750 C.3   420  PXI420      0.0897
     19  C14       16.2500   -6.7520   21.4690 C.3   420  PXI420      0.0897
     20  C15       18.6540   -6.2880   24.1370 C.3   420  PXI420      0.2224
     21  O5        19.9010   -6.3720   23.4220 O.3   420  PXI420     -0.2163
     22  C16       20.2250   -5.7960   28.6120 C.3   420  PXI420      0.0283
     23  C17       18.9200   -6.2640   29.2250 C.3   420  PXI420      0.0025
     24  C18       21.2310   -6.9650   28.5400 C.3   420  PXI420      0.0101
     25  C19       22.2230   -7.2170   29.7480 C.3   420  PXI420      0.0620
     26  C20       21.8720   -8.4930   30.4850 C.3   420  PXI420      0.0081
     27  C21       22.3030   -5.9890   30.7790 C.2   420  PXI420      0.1724
     28  O6        21.7350   -6.0540   31.8570 O.2   420  PXI420     -0.2914
     29  C22       23.0150   -4.7490   30.4770 C.2   420  PXI420      0.0330
     30  C23       24.1460   -4.6970   29.8050 C.2   420  PXI420     -0.0199
     31  C24       24.8480   -3.3640   29.4570 C.3   420  PXI420      0.0622
     32  C25       26.1040   -3.8080   28.7050 C.3   420  PXI420      0.0084
@<TRIPOS>BOND
     1    19    17    1
     2    18    17    1
     3    17    16    1
     4    21    20    1
     5    16    20    1
     6    16    15    1
     7    20    11    1
     8    15    13    1
     9     8     7    1
    10    11    10    1
    11    11    12    1
    12    13    12    1
    13    13    14    1
    14    10     9    1
    15     7     9    1
    16     7     5    1
    17     1     2    1
    18     9    22    1
    19     5     4    1
    20     5     6    2
    21     4     3    1
    22     2     3    1
    23    24    22    1
    24    24    25    1
    25     3    31    1
    26    22    23    1
    27    32    31    1
    28    31    30    1
    29    25    26    1
    30    25    27    1
    31    30    29    2
    32    29    27    1
    33    27    28    2
