@<TRIPOS>MOLECULE
2cda_NAP_A_1.pdb
 48 52 0 0 0
SMALL
GASTEIGER

@<TRIPOS>ATOM
      1  PA        27.3250   21.6950    9.6140 P.3   1367  NAP1367     0.2189
      2  O1A       26.9410   21.4310    8.2250 O.2   1367  NAP1367    -0.5170
      3  O2A       26.9240   22.9530   10.2710 O.3   1367  NAP1367    -0.4371
      4  O5B       28.8740   21.5460    9.7860 O.3   1367  NAP1367    -0.3112
      5  C5B       29.5850   20.4820    9.1460 C.3   1367  NAP1367     0.1813
      6  C4B       31.0830   20.9110    8.9660 C.3   1367  NAP1367     0.1820
      7  O4B       31.7190   19.8900    8.1490 O.3   1367  NAP1367    -0.3136
      8  C3B       31.2450   22.2640    8.2040 C.3   1367  NAP1367     0.2157
      9  O3B       32.2250   23.0350    8.8490 O.3   1367  NAP1367    -0.2175
     10  C2B       31.7540   21.8290    6.8120 C.3   1367  NAP1367     0.2314
     11  O2B       32.5440   22.8520    6.0760 O.3   1367  NAP1367    -0.2630
     12  C1B       32.5800   20.6020    7.2860 C.3   1367  NAP1367     0.3158
     13  N9A       32.8600   19.6220    6.2640 N.pl3 1367  NAP1367    -0.1439
     14  C8A       32.0010   19.1500    5.3420 C.3   1367  NAP1367     0.3377
     15  N7A       32.6480   18.2610    4.5830 N.2   1367  NAP1367    -0.2095
     16  C5A       33.8980   18.1760    5.0220 C.2   1367  NAP1367     0.2526
     17  C6A       34.9940   17.4380    4.6260 C.2   1367  NAP1367     0.4393
     18  N6A       34.9070   16.5830    3.5870 N.pl3 1367  NAP1367     0.2180
     19  N1A       36.1370   17.6090    5.3260 N.2   1367  NAP1367     0.0021
     20  C2A       36.2390   18.4500    6.3560 C.3   1367  NAP1367     0.5254
     21  N3A       35.2060   19.1690    6.7530 N.2   1367  NAP1367    -0.0055
     22  C4A       34.0380   19.0490    6.1020 C.2   1367  NAP1367     0.3518
     23  O3        26.7480   20.3940   10.4900 O.3   1367  NAP1367    -0.2703
     24  PN        26.7650   20.2590   12.1600 P.3   1367  NAP1367     0.2189
     25  O1N       25.5890   20.8870   12.7350 O.3   1367  NAP1367    -0.4371
     26  O2N       28.1130   20.7360   12.6730 O.2   1367  NAP1367    -0.5170
     27  O5D       26.5760   18.7240   12.3000 O.3   1367  NAP1367    -0.3112
     28  C5D       27.5630   17.8890   11.7460 C.3   1367  NAP1367     0.1813
     29  C4D       27.0060   16.4290   11.5670 C.3   1367  NAP1367     0.1799
     30  O4D       26.6540   15.8530   12.8500 O.3   1367  NAP1367    -0.3327
     31  C3D       25.7290   16.3600   10.7070 C.3   1367  NAP1367     0.2158
     32  O3D       25.8110   15.1660    9.8810 O.3   1367  NAP1367    -0.2175
     33  C2D       24.6110   16.2250   11.7570 C.3   1367  NAP1367     0.2309
     34  O2D       23.4380   15.5680   11.1860 O.3   1367  NAP1367    -0.2158
     35  C1D       25.3190   15.3000   12.7660 C.3   1367  NAP1367     0.2263
     36  N1N       24.7280   15.2290   14.1230 N.pl3 1367  NAP1367    -0.2787
     37  C2N       24.7480   13.9730   14.8050 C.3   1367  NAP1367     0.1244
     38  C3N       24.2300   13.8330   16.1050 C.2   1367  NAP1367     0.0544
     39  C7N       24.3440   12.4540   16.8290 C.2   1367  NAP1367     0.2818
     40  O7N       23.6780   12.2020   17.8400 O.2   1367  NAP1367    -0.2670
     41  N7N       25.2240   11.5980   16.2690 N.am  1367  NAP1367    -0.0839
     42  C4N       23.6290   14.9390   16.7440 C.2   1367  NAP1367     0.0033
     43  C5N       23.5930   16.1970   16.0920 C.2   1367  NAP1367     0.0157
     44  C6N       24.1440   16.3590   14.7910 C.2   1367  NAP1367     0.0633
     45  P2B       32.1670   24.5320    5.8930 P.3   1367  NAP1367     0.5328
     46  O1X       30.6280   24.5330    5.2400 O.3   1367  NAP1367    -0.1145
     47  O2X       32.0220   25.2910    7.3560 O.3   1367  NAP1367    -0.1145
     48  O3X       33.1230   25.3170    5.0160 O.2   1367  NAP1367    -0.2224
@<TRIPOS>BOND
     1    18    17    1
     2    15    16    2
     3    15    14    1
     4    17    16    1
     5    17    19    2
     6    48    45    2
     7    16    22    1
     8    46    45    1
     9    19    20    1
    10    14    13    1
    11    45    11    1
    12    45    47    1
    13    11    10    1
    14    22    13    1
    15    22    21    2
    16    13    12    1
    17    20    21    1
    18    10    12    1
    19    10     8    1
    20    12     7    1
    21     7     6    1
    22     8     9    1
    23     8     6    1
    24     2     1    2
    25     6     5    1
    26     5     4    1
    27     1     4    1
    28     1     3    1
    29     1    23    1
    30    32    31    1
    31    23    24    1
    32    31    29    1
    33    31    33    1
    34    34    33    1
    35    29    28    1
    36    29    30    1
    37    28    27    1
    38    33    35    1
    39    24    27    1
    40    24    26    2
    41    24    25    1
    42    35    30    1
    43    35    36    1
    44    36    44    1
    45    36    37    1
    46    44    43    2
    47    37    38    1
    48    43    42    1
    49    38    42    2
    50    38    39    1
    51    41    39   am
    52    39    40    2
