@<TRIPOS>MOLECULE
2cdb_NAP_A_1.pdb
 48 52 0 0 0
SMALL
GASTEIGER

@<TRIPOS>ATOM
      1  PA        44.5860    0.4780  -10.2910 P.3   1369  NAP1369     0.2189
      2  O1A       44.0970    0.8870   -8.9390 O.3   1369  NAP1369    -0.4371
      3  O2A       44.1210   -0.8080  -10.8800 O.2   1369  NAP1369    -0.5170
      4  O5B       46.1510    0.4290  -10.2580 O.3   1369  NAP1369    -0.3112
      5  C5B       46.9140    1.4270   -9.5640 C.3   1369  NAP1369     0.1813
      6  C4B       48.3650    0.9990   -9.4810 C.3   1369  NAP1369     0.1820
      7  O4B       49.0920    1.9840   -8.6980 O.3   1369  NAP1369    -0.3136
      8  C3B       48.5510   -0.3620   -8.7780 C.3   1369  NAP1369     0.2157
      9  O3B       49.5680   -1.0590   -9.4900 O.3   1369  NAP1369    -0.2175
     10  C2B       49.0280    0.0510   -7.3880 C.3   1369  NAP1369     0.2314
     11  O2B       49.8650   -0.9240   -6.7740 O.3   1369  NAP1369    -0.2630
     12  C1B       49.9030    1.2410   -7.7680 C.3   1369  NAP1369     0.3158
     13  N9A       50.2340    2.1220   -6.6540 N.pl3 1369  NAP1369    -0.1439
     14  C8A       49.5040    2.4540   -5.5690 C.3   1369  NAP1369     0.3377
     15  N7A       50.2100    3.3030   -4.8000 N.2   1369  NAP1369    -0.2095
     16  C5A       51.3760    3.5140   -5.4250 C.2   1369  NAP1369     0.2526
     17  C6A       52.5010    4.2790   -5.1480 C.2   1369  NAP1369     0.4393
     18  N6A       52.5550    5.0150   -4.0410 N.pl3 1369  NAP1369     0.2180
     19  N1A       53.5290    4.2440   -6.0100 N.2   1369  NAP1369     0.0021
     20  C2A       53.4980    3.5310   -7.1240 C.3   1369  NAP1369     0.5254
     21  N3A       52.4410    2.7810   -7.4350 N.2   1369  NAP1369    -0.0055
     22  C4A       51.3820    2.7660   -6.5950 C.2   1369  NAP1369     0.3518
     23  O3        44.2220    1.7320  -11.2320 O.3   1369  NAP1369    -0.2703
     24  PN        44.1640    1.7760  -12.8440 P.3   1369  NAP1369     0.2189
     25  O1N       42.8720    1.2820  -13.3680 O.3   1369  NAP1369    -0.4371
     26  O2N       45.4560    1.3150  -13.3900 O.2   1369  NAP1369    -0.5170
     27  O5D       43.9860    3.3640  -13.0190 O.3   1369  NAP1369    -0.3112
     28  C5D       44.9990    4.2220  -12.4960 C.3   1369  NAP1369     0.1813
     29  C4D       44.4030    5.5760  -12.1710 C.3   1369  NAP1369     0.1799
     30  O4D       43.9730    6.1920  -13.4480 O.3   1369  NAP1369    -0.3327
     31  C3D       43.1460    5.5570  -11.2620 C.3   1369  NAP1369     0.2158
     32  O3D       43.1480    6.7310  -10.4420 O.3   1369  NAP1369    -0.2175
     33  C2D       42.0320    5.6840  -12.2910 C.3   1369  NAP1369     0.2309
     34  O2D       40.8170    6.2050  -11.7550 O.3   1369  NAP1369    -0.2158
     35  C1D       42.6670    6.7350  -13.2310 C.3   1369  NAP1369     0.2263
     36  N1N       42.0690    6.8250  -14.5600 N.pl3 1369  NAP1369    -0.2787
     37  C2N       42.0870    8.0920  -15.1980 C.3   1369  NAP1369     0.1244
     38  C3N       41.5360    8.1900  -16.4760 C.2   1369  NAP1369     0.0544
     39  C7N       41.5920    9.5350  -17.1740 C.2   1369  NAP1369     0.2818
     40  O7N       40.9910    9.6940  -18.2310 O.2   1369  NAP1369    -0.2670
     41  N7N       42.3830   10.4380  -16.5750 N.am  1369  NAP1369    -0.0839
     42  C4N       40.9870    7.0690  -17.1100 C.2   1369  NAP1369     0.0033
     43  C5N       40.9930    5.8150  -16.4820 C.2   1369  NAP1369     0.0157
     44  C6N       41.5320    5.7030  -15.2120 C.2   1369  NAP1369     0.0633
     45  P2B       49.3480   -2.4500   -6.4530 P.3   1369  NAP1369     0.5328
     46  O1X       47.9120   -2.3310   -5.7700 O.3   1369  NAP1369    -0.1145
     47  O2X       49.1790   -3.2030   -7.8760 O.2   1369  NAP1369    -0.2224
     48  O3X       50.3760   -3.1090   -5.5740 O.3   1369  NAP1369    -0.1145
@<TRIPOS>BOND
     1    40    39    2
     2    39    41   am
     3    39    38    1
     4    42    43    1
     5    42    38    2
     6    43    44    2
     7    38    37    1
     8    44    36    1
     9    37    36    1
    10    36    35    1
    11    30    35    1
    12    30    29    1
    13    26    24    2
    14    25    24    1
    15    35    33    1
    16    27    24    1
    17    27    28    1
    18    24    23    1
    19    28    29    1
    20    33    34    1
    21    33    31    1
    22    29    31    1
    23    31    32    1
    24    23     1    1
    25     3     1    2
    26     1     4    1
    27     1     2    1
    28     4     5    1
    29     5     6    1
    30     9     8    1
    31     6     8    1
    32     6     7    1
    33     8    10    1
    34     7    12    1
    35    47    45    2
    36    12    10    1
    37    12    13    1
    38    21    20    1
    39    21    22    2
    40    10    11    1
    41    20    19    1
    42    11    45    1
    43    13    22    1
    44    13    14    1
    45    22    16    1
    46    45    46    1
    47    45    48    1
    48    19    17    2
    49    14    15    1
    50    16    17    1
    51    16    15    2
    52    17    18    1
