@<TRIPOS>MOLECULE
2cdb_BGC_A_1.pdb
 12 12 0 0 0
SMALL
GASTEIGER

@<TRIPOS>ATOM
      1  C2        37.0580    6.3850  -18.6050 C.3   1368  BGC1368     0.2434
      2  C3        37.2740    7.7260  -19.3130 C.3   1368  BGC1368     0.2199
      3  C4        36.4340    8.7780  -18.6050 C.3   1368  BGC1368     0.2144
      4  C5        36.8930    8.8320  -17.1460 C.3   1368  BGC1368     0.1836
      5  C6        36.2740    9.9990  -16.3680 C.3   1368  BGC1368     0.2142
      6  C1        37.3350    6.4910  -17.0970 C.3   1368  BGC1368     0.3024
      7  O1        36.9940    5.2560  -16.4870 O.3   1368  BGC1368    -0.1869
      8  O2        37.9030    5.4180  -19.1760 O.3   1368  BGC1368    -0.2148
      9  O3        36.8950    7.6130  -20.6710 O.3   1368  BGC1368    -0.2174
     10  O4        36.5140   10.0390  -19.2170 O.3   1368  BGC1368    -0.2176
     11  O5        36.6150    7.5800  -16.5360 O.3   1368  BGC1368    -0.3236
     12  O6        37.0530   10.2190  -15.2200 O.3   1368  BGC1368    -0.2176
@<TRIPOS>BOND
     1     9     2    1
     2     2     1    1
     3     2     3    1
     4    10     3    1
     5     8     1    1
     6     1     6    1
     7     3     4    1
     8     4    11    1
     9     4     5    1
    10     6    11    1
    11     6     7    1
    12     5    12    1
