@<TRIPOS>MOLECULE
2cdc_XYP_A_1.pdb
 10 10 0 0 0
SMALL
GASTEIGER

@<TRIPOS>ATOM
      1  O4A        2.7250   -1.5670   15.8200 O.3   1369  XYP1369    -0.1869
      2  C1B        2.7370   -2.8940   16.3880 C.3   1369  XYP1369     0.3024
      3  C2B        2.6050   -2.7890   17.9080 C.3   1369  XYP1369     0.2434
      4  C3B        2.7630   -4.1620   18.5630 C.3   1369  XYP1369     0.2199
      5  C4B        1.7350   -5.1350   18.0020 C.3   1369  XYP1369     0.2143
      6  C5B        1.6680   -5.0790   16.4600 C.3   1369  XYP1369     0.1804
      7  O2B        3.5720   -1.8970   18.4170 O.3   1369  XYP1369    -0.2148
      8  O3B        2.5340   -4.0380   19.9590 O.3   1369  XYP1369    -0.2174
      9  O4B        2.1140   -6.4240   18.4470 O.3   1369  XYP1369    -0.2176
     10  O5B        1.6270   -3.7070   15.9270 O.3   1369  XYP1369    -0.3237
@<TRIPOS>BOND
     1     1     2    1
     2    10     2    1
     3    10     6    1
     4     2     3    1
     5     6     5    1
     6     3     7    1
     7     3     4    1
     8     5     9    1
     9     5     4    1
    10     4     8    1
