@<TRIPOS>MOLECULE
2cdc_XYS_A_1.pdb
 10 10 0 0 0
SMALL
GASTEIGER

@<TRIPOS>ATOM
      1  C1         2.7370   -2.8940   16.3880 C.3   1368  XYS1368     0.3024
      2  C2         2.6050   -2.7890   17.9080 C.3   1368  XYS1368     0.2434
      3  C3         2.7630   -4.1620   18.5630 C.3   1368  XYS1368     0.2199
      4  C4         1.7350   -5.1350   18.0020 C.3   1368  XYS1368     0.2143
      5  C5         1.6680   -5.0790   16.4600 C.3   1368  XYS1368     0.1804
      6  O1         3.9540   -3.5430   16.0300 O.3   1368  XYS1368    -0.1869
      7  O2         3.5720   -1.8970   18.4170 O.3   1368  XYS1368    -0.2148
      8  O3         2.5340   -4.0380   19.9590 O.3   1368  XYS1368    -0.2174
      9  O4         2.1140   -6.4240   18.4470 O.3   1368  XYS1368    -0.2176
     10  O5         1.6270   -3.7070   15.9270 O.3   1368  XYS1368    -0.3237
@<TRIPOS>BOND
     1    10     1    1
     2    10     5    1
     3     6     1    1
     4     1     2    1
     5     5     4    1
     6     2     7    1
     7     2     3    1
     8     4     9    1
     9     4     3    1
    10     3     8    1
