@<TRIPOS>MOLECULE
2cdc_NAP_A_1.pdb
 48 52 0 0 0
SMALL
GASTEIGER

@<TRIPOS>ATOM
      1  PA        10.2710    2.5290    9.1910 P.3   1367  NAP1367     0.2189
      2  O1A        9.7400    2.0400    7.8750 O.2   1367  NAP1367    -0.5170
      3  O2A        9.8690    3.8580    9.6920 O.3   1367  NAP1367    -0.4371
      4  O5B       11.8670    2.5050    9.2170 O.3   1367  NAP1367    -0.3112
      5  C5B       12.5940    1.5610    8.4760 C.3   1367  NAP1367     0.1813
      6  C4B       14.0730    1.9310    8.4970 C.3   1367  NAP1367     0.1820
      7  O4B       14.8040    0.9310    7.7810 O.3   1367  NAP1367    -0.3136
      8  C3B       14.3090    3.2690    7.7860 C.3   1367  NAP1367     0.2157
      9  O3B       15.3570    3.9760    8.4600 O.3   1367  NAP1367    -0.2175
     10  C2B       14.7660    2.8110    6.3970 C.3   1367  NAP1367     0.2314
     11  O2B       15.6060    3.7610    5.7070 O.3   1367  NAP1367    -0.2630
     12  C1B       15.6250    1.6170    6.7950 C.3   1367  NAP1367     0.3158
     13  N9A       15.9320    0.6520    5.7240 N.pl3 1367  NAP1367    -0.1439
     14  C8A       15.1450    0.2720    4.7020 C.3   1367  NAP1367     0.3377
     15  N7A       15.8110   -0.6160    3.9520 N.2   1367  NAP1367    -0.2095
     16  C5A       17.0190   -0.7920    4.5000 C.2   1367  NAP1367     0.2526
     17  C6A       18.1300   -1.5790    4.2050 C.2   1367  NAP1367     0.4393
     18  N6A       18.1270   -2.3840    3.1520 N.pl3 1367  NAP1367     0.2180
     19  N1A       19.2120   -1.5050    5.0120 N.2   1367  NAP1367     0.0021
     20  C2A       19.2520   -0.7190    6.0830 C.3   1367  NAP1367     0.5254
     21  N3A       18.2030    0.0350    6.3920 N.2   1367  NAP1367    -0.0055
     22  C4A       17.0920    0.0180    5.6250 C.2   1367  NAP1367     0.3518
     23  O3         9.8730    1.3400   10.2180 O.3   1367  NAP1367    -0.2703
     24  PN         9.8630    1.3620   11.8810 P.3   1367  NAP1367     0.2189
     25  O1N        8.5790    1.9240   12.3750 O.3   1367  NAP1367    -0.4371
     26  O2N       11.1760    1.8450   12.3680 O.2   1367  NAP1367    -0.5170
     27  O5D        9.7480   -0.2280   12.1160 O.3   1367  NAP1367    -0.3112
     28  C5D       10.7150   -1.1190   11.5300 C.3   1367  NAP1367     0.1813
     29  C4D       10.1280   -2.5340   11.3730 C.3   1367  NAP1367     0.1799
     30  O4D        9.6790   -3.0320   12.6830 O.3   1367  NAP1367    -0.3327
     31  C3D        8.8680   -2.5210   10.5020 C.3   1367  NAP1367     0.2158
     32  O3D        8.8570   -3.7000    9.7020 O.3   1367  NAP1367    -0.2175
     33  C2D        7.7480   -2.5640   11.5400 C.3   1367  NAP1367     0.2309
     34  O2D        6.5280   -3.1130   10.9980 O.3   1367  NAP1367    -0.2158
     35  C1D        8.3430   -3.5450   12.5270 C.3   1367  NAP1367     0.2263
     36  N1N        7.7510   -3.5500   13.8760 N.pl3 1367  NAP1367    -0.2787
     37  C2N        7.8070   -4.7670   14.5690 C.3   1367  NAP1367     0.1244
     38  C3N        7.2850   -4.8470   15.8510 C.2   1367  NAP1367     0.0544
     39  C7N        7.3350   -6.1660   16.6130 C.2   1367  NAP1367     0.2818
     40  O7N        6.7010   -6.2830   17.6710 O.2   1367  NAP1367    -0.2670
     41  N7N        8.0840   -7.1280   16.0540 N.am  1367  NAP1367    -0.0839
     42  C4N        6.7310   -3.7220   16.4420 C.2   1367  NAP1367     0.0033
     43  C5N        6.7040   -2.4890   15.7650 C.2   1367  NAP1367     0.0157
     44  C6N        7.2170   -2.4040   14.4750 C.2   1367  NAP1367     0.0633
     45  P2B       15.0400    5.2150    5.2590 P.3   1367  NAP1367     0.5328
     46  O1X       15.0620    6.1200    6.5740 O.3   1367  NAP1367    -0.1145
     47  O2X       16.2320    5.7920    4.3230 O.2   1367  NAP1367    -0.2224
     48  O3X       13.6950    5.1140    4.6440 O.3   1367  NAP1367    -0.1145
@<TRIPOS>BOND
     1    18    17    1
     2    15    16    2
     3    15    14    1
     4    17    16    1
     5    17    19    2
     6    47    45    2
     7    16    22    1
     8    48    45    1
     9    14    13    1
    10    19    20    1
    11    45    11    1
    12    45    46    1
    13    22    13    1
    14    22    21    2
    15    11    10    1
    16    13    12    1
    17    20    21    1
    18    10    12    1
    19    10     8    1
    20    12     7    1
    21     7     6    1
    22     8     9    1
    23     8     6    1
    24     2     1    2
    25     5     6    1
    26     5     4    1
    27     1     4    1
    28     1     3    1
    29     1    23    1
    30    32    31    1
    31    23    24    1
    32    31    29    1
    33    31    33    1
    34    34    33    1
    35    29    28    1
    36    29    30    1
    37    28    27    1
    38    33    35    1
    39    24    27    1
    40    24    26    2
    41    24    25    1
    42    35    30    1
    43    35    36    1
    44    36    44    1
    45    36    37    1
    46    44    43    2
    47    37    38    1
    48    43    42    1
    49    38    42    2
    50    38    39    1
    51    41    39   am
    52    39    40    2
