@<TRIPOS>MOLECULE
2cdn_ADP_A_1.pdb
 27 29 0 0 0
SMALL
GASTEIGER

@<TRIPOS>ATOM
      1  PB         2.5320    2.3590   18.8610 P.3   201  ADP201      0.5373
      2  O1B        2.8210    2.2700   20.3560 O.3   201  ADP201     -0.1143
      3  O2B        3.6720    1.7140   18.0860 O.2   201  ADP201     -0.2221
      4  O3B        1.1570    1.8350   18.4690 O.3   201  ADP201     -0.1143
      5  PA         2.6720    4.4310   16.9040 P.3   201  ADP201      0.2231
      6  O1A        4.1150    4.3050   16.4360 O.3   201  ADP201     -0.4370
      7  O2A        1.6000    3.8460   16.0310 O.2   201  ADP201     -0.5169
      8  O3A        2.5680    3.9350   18.4160 O.3   201  ADP201     -0.2261
      9  O5'        2.3440    5.9880   16.9280 O.3   201  ADP201     -0.3111
     10  C5'        3.1440    6.9370   17.6450 C.3   201  ADP201      0.1813
     11  C4'        2.4190    8.2800   17.6590 C.3   201  ADP201      0.1821
     12  O4'        2.3600    8.7960   16.3330 O.3   201  ADP201     -0.3135
     13  C3'        0.9620    8.3000   18.1330 C.3   201  ADP201      0.2184
     14  O3'        0.8090    8.3060   19.5580 O.3   201  ADP201     -0.2174
     15  C2'        0.5020    9.6110   17.5300 C.3   201  ADP201      0.2570
     16  O2'        0.9760   10.7220   18.3450 O.3   201  ADP201     -0.2130
     17  C1'        1.2110    9.6100   16.1590 C.3   201  ADP201      0.3186
     18  N9         0.3420    8.8900   15.1990 N.pl3 201  ADP201     -0.1439
     19  C8         0.5470    7.6450   14.6940 C.3   201  ADP201      0.3377
     20  N7        -0.4830    7.3080   13.8730 N.2   201  ADP201     -0.2095
     21  C5        -1.3470    8.3200   13.8640 C.2   201  ADP201      0.2526
     22  C6        -2.6580    8.5720   13.2520 C.2   201  ADP201      0.4393
     23  N6        -3.2380    7.6330   12.4570 N.pl3 201  ADP201      0.2180
     24  N1        -3.2220    9.7700   13.4780 N.2   201  ADP201      0.0021
     25  C2        -2.6710   10.6900   14.2900 C.3   201  ADP201      0.5254
     26  N3        -1.4900   10.5150   14.9080 N.2   201  ADP201     -0.0055
     27  C4        -0.8110    9.3590   14.7450 C.2   201  ADP201      0.3518
@<TRIPOS>BOND
     1    23    22    1
     2    22    24    2
     3    22    21    1
     4    24    25    1
     5    21    20    2
     6    21    27    1
     7    20    19    1
     8    25    26    1
     9    19    18    1
    10    27    26    2
    11    27    18    1
    12    18    17    1
    13     7     5    2
    14    17    12    1
    15    17    15    1
    16    12    11    1
    17     6     5    1
    18     5     9    1
    19     5     8    1
    20     9    10    1
    21    15    13    1
    22    15    16    1
    23    10    11    1
    24    11    13    1
    25     3     1    2
    26    13    14    1
    27     8     1    1
    28     4     1    1
    29     1     2    1
