@<TRIPOS>MOLECULE
2cdo_AAL_A_1.pdb
 10 11 0 0 0
SMALL
GASTEIGER

@<TRIPOS>ATOM
      1  C1        43.3350   16.4600   56.2440 C.3   1006  AAL1006     0.1776
      2  C2        43.8930   15.5220   55.1440 C.3   1006  AAL1006     0.2109
      3  C3        42.7980   15.1510   54.1570 C.3   1006  AAL1006     0.1807
      4  C4        41.6910   14.4460   54.9250 C.3   1006  AAL1006     0.2109
      5  C5        41.0960   15.6400   55.6560 C.3   1006  AAL1006     0.1775
      6  C6        41.0750   16.7230   54.5680 C.3   1006  AAL1006     0.1743
      7  O2        44.4240   14.3400   55.7820 O.3   1006  AAL1006    -0.2177
      8  O3        42.1820   16.3790   53.7060 O.3   1006  AAL1006    -0.3482
      9  O4        40.7060   13.8410   54.1290 O.3   1006  AAL1006    -0.2177
     10  O5        42.0710   15.9770   56.6710 O.3   1006  AAL1006    -0.3482
@<TRIPOS>BOND
     1     8     3    1
     2     8     6    1
     3     9     4    1
     4     3     4    1
     5     3     2    1
     6     6     5    1
     7     4     5    1
     8     2     7    1
     9     2     1    1
    10     5    10    1
    11     1    10    1
