@<TRIPOS>MOLECULE
2cdo_GAL_A_1.pdb
 11 11 0 0 0
SMALL
GASTEIGER

@<TRIPOS>ATOM
      1  C1        45.4960   18.6040   60.1850 C.3   1005  GAL1005     0.1777
      2  C2        45.3820   17.4590   59.1810 C.3   1005  GAL1005     0.2141
      3  C3        44.3050   17.6870   58.1280 C.3   1005  GAL1005     0.2173
      4  C4        42.9700   18.0090   58.8380 C.3   1005  GAL1005     0.2142
      5  C5        43.2100   19.1640   59.7990 C.3   1005  GAL1005     0.1810
      6  C6        41.9570   19.4790   60.6170 C.3   1005  GAL1005     0.2141
      7  O2        46.6860   17.3130   58.5890 O.3   1005  GAL1005    -0.2176
      8  O3        44.2300   16.4900   57.3390 O.3   1005  GAL1005    -0.2175
      9  O4        42.4570   16.8660   59.5400 O.3   1005  GAL1005    -0.2176
     10  O5        44.2180   18.8360   60.7750 O.3   1005  GAL1005    -0.3481
     11  O6        42.2910   20.7080   61.2780 O.3   1005  GAL1005    -0.2176
@<TRIPOS>BOND
     1     8     3    1
     2     3     4    1
     3     3     2    1
     4     7     2    1
     5     4     9    1
     6     4     5    1
     7     2     1    1
     8     5     6    1
     9     5    10    1
    10     1    10    1
    11     6    11    1
