@<TRIPOS>MOLECULE
2cdp_AAL_A_1.pdb
 10 11 0 0 0
SMALL
GASTEIGER

@<TRIPOS>ATOM
      1  C1        43.0720   16.3030   56.1450 C.3   1006  AAL1006     0.1776
      2  C2        43.6270   15.3990   55.0020 C.3   1006  AAL1006     0.2109
      3  C3        42.5300   14.9490   54.0240 C.3   1006  AAL1006     0.1807
      4  C4        41.4280   14.2470   54.7990 C.3   1006  AAL1006     0.2109
      5  C5        40.8760   15.4520   55.5540 C.3   1006  AAL1006     0.1775
      6  C6        40.7930   16.4960   54.4390 C.3   1006  AAL1006     0.1743
      7  O2        44.2300   14.2130   55.5400 O.3   1006  AAL1006    -0.2177
      8  O3        41.8900   16.1550   53.5710 O.3   1006  AAL1006    -0.3482
      9  O4        40.5020   13.6870   53.8950 O.3   1006  AAL1006    -0.2177
     10  O5        41.8220   15.8040   56.6020 O.3   1006  AAL1006    -0.3482
@<TRIPOS>BOND
     1     8     3    1
     2     8     6    1
     3     9     4    1
     4     3     4    1
     5     3     2    1
     6     6     5    1
     7     4     5    1
     8     2     7    1
     9     2     1    1
    10     5    10    1
    11     1    10    1
