@<TRIPOS>MOLECULE
2cdp_GAL_A_1.pdb
 11 11 0 0 0
SMALL
GASTEIGER

@<TRIPOS>ATOM
      1  C1        45.1830   18.3930   60.1050 C.3   1005  GAL1005     0.1777
      2  C2        45.1100   17.2540   59.0830 C.3   1005  GAL1005     0.2141
      3  C3        44.0210   17.5070   58.0320 C.3   1005  GAL1005     0.2173
      4  C4        42.6750   17.8370   58.7230 C.3   1005  GAL1005     0.2142
      5  C5        42.8810   19.0140   59.6730 C.3   1005  GAL1005     0.1810
      6  C6        41.6030   19.3590   60.4310 C.3   1005  GAL1005     0.2141
      7  O2        46.3910   17.0110   58.4670 O.3   1005  GAL1005    -0.2176
      8  O3        43.9690   16.3130   57.2770 O.3   1005  GAL1005    -0.2175
      9  O4        42.1790   16.7300   59.4550 O.3   1005  GAL1005    -0.2176
     10  O5        43.8640   18.6590   60.6600 O.3   1005  GAL1005    -0.3481
     11  O6        41.8790   20.5720   61.1460 O.3   1005  GAL1005    -0.2176
@<TRIPOS>BOND
     1     8     3    1
     2     3     4    1
     3     3     2    1
     4     7     2    1
     5     4     9    1
     6     4     5    1
     7     2     1    1
     8     5     6    1
     9     5    10    1
    10     1    10    1
    11     6    11    1
