@<TRIPOS>MOLECULE
2cdq_LYS_A_1.pdb
 10 9 0 0 0
SMALL
GASTEIGER

@<TRIPOS>ATOM
      1  N         69.9910   42.5360  119.5680 N.3   600  LYS600     -0.1208
      2  CA        71.4430   42.3200  119.7260 C.3   600  LYS600      0.1943
      3  C         72.0530   43.6690  119.4380 C.2   600  LYS600      0.3819
      4  O         71.3720   44.7030  119.5470 O.co2 600  LYS600     -0.2441
      5  CB        71.9300   41.2700  118.7170 C.3   600  LYS600      0.0307
      6  CG        73.0700   40.3760  119.2320 C.3   600  LYS600      0.0036
      7  CD        72.6240   39.3990  120.3010 C.3   600  LYS600      0.0206
      8  CE        73.8170   38.6360  120.8940 C.3   600  LYS600      0.1093
      9  NZ        74.4190   37.5840  120.0060 N.3   600  LYS600     -0.1314
     10  OXT       73.2280   43.7550  119.0910 O.co2 600  LYS600     -0.2441
@<TRIPOS>BOND
     1     5     6    1
     2     5     2    1
     3    10     3   ar
     4     6     7    1
     5     3     4   ar
     6     3     2    1
     7     1     2    1
     8     9     8    1
     9     7     8    1
