@<TRIPOS>MOLECULE
2cdq_SAM_A_1.pdb
 27 29 0 0 0
SMALL
GASTEIGER

@<TRIPOS>ATOM
      1  N         73.2450   57.3560  111.9980 N.3   1500  SAM1500    -0.1208
      2  CA        72.7400   56.2360  111.2090 C.3   1500  SAM1500     0.1952
      3  C         71.2770   55.9070  111.5190 C.2   1500  SAM1500     0.3819
      4  O         70.4940   55.5820  110.6220 O.co2 1500  SAM1500    -0.2441
      5  OXT       70.8440   55.9520  112.6720 O.co2 1500  SAM1500    -0.2441
      6  CB        73.6200   55.0060  111.4140 C.3   1500  SAM1500     0.0414
      7  CG        73.4600   53.9090  110.3560 C.3   1500  SAM1500     0.0503
      8  SD        72.8760   52.3610  111.0880 S.3   1500  SAM1500    -0.1761
      9  CE        74.3690   51.7780  111.9290 C.3   1500  SAM1500     0.0590
     10  C5'       72.6280   51.1890  109.7150 C.3   1500  SAM1500     0.0806
     11  C4'       73.6740   51.1220  108.5970 C.3   1500  SAM1500     0.1622
     12  O4'       74.9380   50.7200  109.0840 O.3   1500  SAM1500    -0.3153
     13  C3'       73.2890   50.1020  107.5350 C.3   1500  SAM1500     0.2168
     14  O3'       73.4870   50.6850  106.2690 O.3   1500  SAM1500    -0.2175
     15  C2'       74.2380   48.9300  107.7060 C.3   1500  SAM1500     0.2569
     16  O2'       74.6800   48.4220  106.4630 O.3   1500  SAM1500    -0.2130
     17  C1'       75.4070   49.5270  108.4680 C.3   1500  SAM1500     0.3185
     18  N9        75.9760   48.6250  109.4940 N.pl3 1500  SAM1500    -0.1439
     19  C8        77.2340   48.0810  109.4700 C.3   1500  SAM1500     0.3377
     20  N7        77.4170   47.3350  110.5800 N.2   1500  SAM1500    -0.2095
     21  C5        76.2950   47.3980  111.3230 C.2   1500  SAM1500     0.2526
     22  C6        75.9460   46.8250  112.5440 C.2   1500  SAM1500     0.4393
     23  N6        76.8020   46.0460  113.2000 N.pl3 1500  SAM1500     0.2180
     24  N1        74.6950   47.0700  113.0730 N.2   1500  SAM1500     0.0021
     25  C2        73.8010   47.8760  112.3930 C.3   1500  SAM1500     0.5254
     26  N3        74.1560   48.4400  111.1810 N.2   1500  SAM1500    -0.0055
     27  C4        75.3810   48.2080  110.6550 C.2   1500  SAM1500     0.3518
@<TRIPOS>BOND
     1    14    13    1
     2    16    15    1
     3    13    15    1
     4    13    11    1
     5    15    17    1
     6    17    12    1
     7    17    18    1
     8    11    12    1
     9    11    10    1
    10    19    18    1
    11    19    20    1
    12    18    27    1
    13    10     8    1
    14     7     8    1
    15     7     6    1
    16    20    21    2
    17     4     3   ar
    18    27    26    2
    19    27    21    1
    20     8     9    1
    21    26    25    1
    22     2     6    1
    23     2     3    1
    24     2     1    1
    25    21    22    1
    26     3     5   ar
    27    25    24    1
    28    22    24    2
    29    22    23    1
