@<TRIPOS>MOLECULE
2cdu_ADP_A_1.pdb
 27 29 0 0 0
SMALL
GASTEIGER

@<TRIPOS>ATOM
      1  PB        14.6740   -3.7530    2.5250 P.3   501  ADP501      0.5373
      2  O1B       14.4560   -4.0160    1.0890 O.2   501  ADP501     -0.2221
      3  O2B       14.3320   -5.0660    3.2200 O.3   501  ADP501     -0.1143
      4  O3B       13.6540   -2.5620    2.9890 O.3   501  ADP501     -0.1143
      5  PA        17.3310   -2.9500    1.7340 P.3   501  ADP501      0.2231
      6  O1A       16.9130   -2.4320    0.4040 O.2   501  ADP501     -0.5169
      7  O2A       18.4620   -2.0520    2.2570 O.3   501  ADP501     -0.4370
      8  O3A       16.1580   -3.1580    2.8480 O.3   501  ADP501     -0.2261
      9  O5'       17.8030   -4.4970    1.6240 O.3   501  ADP501     -0.3111
     10  C5'       18.1850   -5.0490    0.3910 C.3   501  ADP501      0.1813
     11  C4'       19.3920   -5.9920    0.5460 C.3   501  ADP501      0.1821
     12  O4'       19.4490   -6.7270   -0.6470 O.3   501  ADP501     -0.3135
     13  C3'       20.7660   -5.3100    0.6860 C.3   501  ADP501      0.2184
     14  O3'       21.4420   -5.7520    1.8450 O.3   501  ADP501     -0.2174
     15  C2'       21.5770   -5.7180   -0.5150 C.3   501  ADP501      0.2570
     16  O2'       22.8750   -6.1250   -0.1280 O.3   501  ADP501     -0.2130
     17  C1'       20.8080   -6.9330   -0.9990 C.3   501  ADP501      0.3186
     18  N9        20.9590   -7.2260   -2.4280 N.pl3 501  ADP501     -0.1439
     19  C8        20.7150   -6.4320   -3.5220 C.3   501  ADP501      0.3377
     20  N7        20.9980   -7.1360   -4.6490 N.2   501  ADP501     -0.2095
     21  C5        21.4260   -8.3760   -4.2590 C.2   501  ADP501      0.2526
     22  C6        21.8640   -9.4760   -4.9670 C.2   501  ADP501      0.4393
     23  N6        21.9410   -9.4270   -6.2900 N.pl3 501  ADP501      0.2180
     24  N1        22.2420  -10.6200   -4.2890 N.2   501  ADP501      0.0021
     25  C2        22.2090  -10.6580   -2.9260 C.3   501  ADP501      0.5254
     26  N3        21.8150   -9.5550   -2.2060 N.2   501  ADP501     -0.0055
     27  C4        21.4070   -8.4400   -2.8760 C.2   501  ADP501      0.3518
@<TRIPOS>BOND
     1    23    22    1
     2    22    24    2
     3    22    21    1
     4    20    21    2
     5    20    19    1
     6    24    25    1
     7    21    27    1
     8    19    18    1
     9    25    26    1
    10    27    18    1
    11    27    26    2
    12    18    17    1
    13    17    12    1
    14    17    15    1
    15    12    11    1
    16    15    16    1
    17    15    13    1
    18    10    11    1
    19    10     9    1
    20     6     5    2
    21    11    13    1
    22    13    14    1
    23     2     1    2
    24     9     5    1
    25     5     7    1
    26     5     8    1
    27     1     8    1
    28     1     4    1
    29     1     3    1
