@<TRIPOS>MOLECULE
2cdv_HEM_A_1.pdb
 43 50 0 0 0
SMALL
GASTEIGER

@<TRIPOS>ATOM
      1 FE         24.1910   39.3640   26.1200 Fe    108  HEM108      0.0000
      2  CHA       22.1500   42.0860   25.6290 C.2   108  HEM108      0.0000
      3  CHB       21.9400   37.4090   24.3910 C.2   108  HEM108      0.0000
      4  CHC       25.9950   36.6190   26.8920 C.2   108  HEM108      0.0000
      5  CHD       26.5630   41.3830   27.5350 C.2   108  HEM108      0.0000
      6  NA        22.4180   39.6820   25.1740 N.ar  108  HEM108      0.0000
      7  C1A       21.6820   40.8670   25.1300 C.ar  108  HEM108      0.0000
      8  C2A       20.3980   40.6050   24.5180 C.ar  108  HEM108      0.0000
      9  C3A       20.3900   39.3500   24.1030 C.ar  108  HEM108      0.0000
     10  C4A       21.6000   38.7210   24.6150 C.ar  108  HEM108      0.0000
     11  CMA       19.2840   38.5480   23.3770 C.3   108  HEM108      0.0000
     12  CAA       19.3570   41.7040   24.1440 C.3   108  HEM108      0.0000
     13  CBA       19.2970   41.9340   22.5950 C.3   108  HEM108      0.0000
     14  CGA       18.1600   42.8230   22.1370 C.2   108  HEM108      0.0000
     15  O1A       17.0090   42.4930   22.5070 O.co2 108  HEM108      0.0000
     16  O2A       18.4650   43.8880   21.5670 O.co2 108  HEM108      0.0000
     17  NB        24.0000   37.4260   25.7280 N.2   108  HEM108      0.0000
     18  C1B       23.0790   36.8210   24.8910 C.2   108  HEM108      0.0000
     19  C2B       23.5270   35.4800   24.5390 C.2   108  HEM108      0.0000
     20  C3B       24.6560   35.2680   25.2230 C.2   108  HEM108      0.0000
     21  C4B       24.9230   36.4200   26.0220 C.2   108  HEM108      0.0000
     22  CMB       22.7560   34.5340   23.6140 C.3   108  HEM108      0.0000
     23  CAB       25.5400   33.9900   25.2020 C.3   108  HEM108      0.0000
     24  CBB       26.2340   33.8280   24.0440 C.3   108  HEM108      0.0000
     25  NC        25.9420   39.0830   27.0120 N.ar  108  HEM108      0.0000
     26  C1C       26.4950   37.8450   27.3540 C.ar  108  HEM108      0.0000
     27  C2C       27.4520   38.0300   28.3960 C.ar  108  HEM108      0.0000
     28  C3C       27.6840   39.3600   28.5030 C.ar  108  HEM108      0.0000
     29  C4C       26.6710   40.0270   27.6980 C.ar  108  HEM108      0.0000
     30  CMC       28.2730   36.8770   29.0090 C.3   108  HEM108      0.0000
     31  CAC       28.6760   40.0980   29.4410 C.2   108  HEM108      0.0000
     32  CBC       30.0310   39.9080   29.3190 C.2   108  HEM108      0.0000
     33  ND        24.3200   41.3310   26.5180 N.2   108  HEM108      0.0000
     34  C1D       25.4310   41.9880   27.0290 C.2   108  HEM108      0.0000
     35  C2D       25.2310   43.4320   26.9460 C.2   108  HEM108      0.0000
     36  C3D       24.0300   43.6300   26.3950 C.2   108  HEM108      0.0000
     37  C4D       23.4240   42.3220   26.1630 C.2   108  HEM108      0.0000
     38  CMD       26.2780   44.4840   27.3580 C.3   108  HEM108      0.0000
     39  CAD       23.2860   44.9560   26.1650 C.3   108  HEM108      0.0000
     40  CBD       22.7100   45.5090   27.4960 C.3   108  HEM108      0.0000
     41  CGD       21.7070   46.6140   27.2720 C.2   108  HEM108      0.0000
     42  O1D       22.1630   47.7210   26.9050 O.co2 108  HEM108      0.0000
     43  O2D       20.5060   46.3200   27.3030 O.co2 108  HEM108      0.0000
@<TRIPOS>BOND
     1    16    14   ar
     2    14    15   ar
     3    14    13    1
     4    13    12    1
     5    11     9    1
     6    22    19    1
     7    24    23    1
     8     9     8   ar
     9     9    10   ar
    10    12     8    1
    11     3    10    2
    12     3    18    1
    13     8     7   ar
    14    19    18    1
    15    19    20    2
    16    10     6   ar
    17    18    17    2
    18     7     6   ar
    19     7     2    2
    20     6     1    1
    21    23    20    1
    22    20    21    1
    23     2    37    1
    24    17    21    1
    25    17     1    1
    26    21     4    2
    27     1    33    1
    28     1    25    1
    29    37    36    1
    30    37    33    2
    31    39    36    1
    32    39    40    1
    33    36    35    2
    34    33    34    1
    35     4    26    1
    36    42    41   ar
    37    35    34    1
    38    35    38    1
    39    25    26   ar
    40    25    29   ar
    41    34     5    2
    42    41    43   ar
    43    41    40    1
    44    26    27   ar
    45     5    29    1
    46    29    28   ar
    47    27    28   ar
    48    27    30    1
    49    28    31    1
    50    32    31    2
