@<TRIPOS>MOLECULE
2cdz_23D_A_1.pdb
 27 30 0 0 0
SMALL
GASTEIGER

@<TRIPOS>ATOM
      1  CAS       41.9710   34.5680   20.1180 C.ar  1591  23D1591     0.0280
      2  CAQ       40.6860   35.0210   20.4150 C.ar  1591  23D1591     0.0590
      3 CL1        39.8820   34.5010   21.8760 Cl    1591  23D1591    -0.0822
      4  CAP       40.0460   35.9030   19.5480 C.ar  1591  23D1591     0.0115
      5  CAO       40.6820   36.3050   18.3890 C.ar  1591  23D1591     0.0022
      6  CAN       41.9590   35.8430   18.0990 C.ar  1591  23D1591     0.0166
      7  CAM       42.6260   34.9610   18.9470 C.ar  1591  23D1591     0.0740
      8  N6        43.8790   34.5450   18.6130 N.pl3 1591  23D1591    -0.1814
      9  C6        44.5710   33.6350   19.3020 C.2   1591  23D1591     0.2383
     10  N1        43.9120   32.8230   20.1050 N.2   1591  23D1591    -0.3081
     11  C5        45.9500   33.4830   19.2240 C.2   1591  23D1591     0.1693
     12  N7        46.8890   34.1140   18.5260 N.2   1591  23D1591    -0.2402
     13  C8        48.0610   33.5740   18.8240 C.3   1591  23D1591     0.2221
     14  N9        47.8530   32.5980   19.7120 N.pl3 1591  23D1591    -0.2608
     15  CAZ       48.9270   31.7740   20.2810 C.3   1591  23D1591     0.0951
     16  CBA       49.4470   30.8930   19.1620 C.3   1591  23D1591     0.0233
     17  C4        46.5540   32.4890   19.9960 C.2   1591  23D1591     0.2198
     18  N3        45.8120   31.6760   20.8080 N.2   1591  23D1591    -0.3099
     19  C2        44.4830   31.8800   20.8520 C.1   1591  23D1591     0.2227
     20  N2        43.5270   31.2150   21.5050 N.pl3 1591  23D1591    -0.1520
     21  CAG       43.4810   30.4600   22.7580 C.3   1591  23D1591     0.1231
     22  CAF       44.8250   30.2360   23.4270 C.3   1591  23D1591     0.0240
     23  CAE       44.6620   29.3230   24.6610 C.3   1591  23D1591     0.0019
     24  CAD       43.2180   28.8700   24.8820 C.3   1591  23D1591     0.0016
     25  CAC       42.6390   28.2140   23.6150 C.3   1591  23D1591     0.0208
     26  CAA       42.7520   29.1560   22.4060 C.3   1591  23D1591     0.1125
     27  NAB       41.4060   29.5090   21.9380 N.3   1591  23D1591    -0.1311
@<TRIPOS>BOND
     1     6     5   ar
     2     6     7   ar
     3     5     4   ar
     4    12    13    1
     5    12    11    2
     6     8     7    1
     7     8     9    1
     8    13    14    1
     9     7     1   ar
    10    16    15    1
    11    11     9    1
    12    11    17    1
    13     9    10    2
    14     4     2   ar
    15    14    17    1
    16    14    15    1
    17    17    18    2
    18    10    19    2
    19     1     2   ar
    20     2     3    1
    21    18    19    2
    22    19    20    1
    23    20    21    1
    24    27    26    1
    25    26    21    1
    26    26    25    1
    27    21    22    1
    28    22    23    1
    29    25    24    1
    30    23    24    1
