@<TRIPOS>MOLECULE
2ce0_HEC_A_1.pdb
 43 50 0 0 0
SMALL
GASTEIGER

@<TRIPOS>ATOM
      1 FE         -0.7960   44.3990    5.3980 Fe    1102  HEC1102     0.0000
      2  CHA       -2.9810   41.8160    5.1560 C.2   1102  HEC1102     0.0000
      3  CHB        1.3590   42.7930    3.2900 C.2   1102  HEC1102     0.0000
      4  CHC        1.1790   47.1830    5.3040 C.2   1102  HEC1102     0.0000
      5  CHD       -2.6860   45.8300    7.8490 C.2   1102  HEC1102     0.0000
      6  NA        -0.8120   42.6480    4.3960 N.ar  1102  HEC1102     0.0000
      7  C1A       -1.8050   41.6930    4.4710 C.ar  1102  HEC1102     0.0000
      8  C2A       -1.4020   40.5420    3.7020 C.ar  1102  HEC1102     0.0000
      9  C3A       -0.1990   40.8220    3.1660 C.ar  1102  HEC1102     0.0000
     10  C4A        0.1870   42.1480    3.5980 C.ar  1102  HEC1102     0.0000
     11  CMA        0.6690   39.9230    2.2620 C.3   1102  HEC1102     0.0000
     12  CAA       -2.2440   39.2430    3.5940 C.3   1102  HEC1102     0.0000
     13  CBA       -2.0130   38.4340    4.8900 C.3   1102  HEC1102     0.0000
     14  CGA       -2.9370   37.2440    5.0740 C.2   1102  HEC1102     0.0000
     15  O1A       -3.9650   37.1550    4.3620 O.co2 1102  HEC1102     0.0000
     16  O2A       -2.6700   36.3710    5.9550 O.co2 1102  HEC1102     0.0000
     17  NB         0.9470   44.8830    4.4910 N.2   1102  HEC1102     0.0000
     18  C1B        1.7070   44.0730    3.6730 C.2   1102  HEC1102     0.0000
     19  C2B        2.8880   44.7970    3.2590 C.2   1102  HEC1102     0.0000
     20  C3B        2.8130   46.0150    3.8120 C.2   1102  HEC1102     0.0000
     21  C4B        1.6080   46.0860    4.5920 C.2   1102  HEC1102     0.0000
     22  CMB        3.9780   44.2040    2.3370 C.3   1102  HEC1102     0.0000
     23  CAB        3.8090   47.1800    3.6390 C.2   1102  HEC1102     0.0000
     24  CBB        4.0030   47.7070    2.3970 C.2   1102  HEC1102     0.0000
     25  NC        -0.7730   46.1690    6.3890 N.ar  1102  HEC1102     0.0000
     26  C1C        0.1320   47.1920    6.1890 C.ar  1102  HEC1102     0.0000
     27  C2C       -0.1480   48.2380    7.1310 C.ar  1102  HEC1102     0.0000
     28  C3C       -1.2090   47.8570    7.8470 C.ar  1102  HEC1102     0.0000
     29  C4C       -1.6210   46.5540    7.3920 C.ar  1102  HEC1102     0.0000
     30  CMC        0.6700   49.5460    7.2470 C.3   1102  HEC1102     0.0000
     31  CAC       -1.8910   48.6240    8.9970 C.2   1102  HEC1102     0.0000
     32  CBC       -2.3290   49.8880    8.8580 C.2   1102  HEC1102     0.0000
     33  ND        -2.5320   43.9110    6.3430 N.2   1102  HEC1102     0.0000
     34  C1D       -3.1760   44.6850    7.2880 C.2   1102  HEC1102     0.0000
     35  C2D       -4.4580   44.1210    7.6040 C.2   1102  HEC1102     0.0000
     36  C3D       -4.5420   42.8920    6.7570 C.2   1102  HEC1102     0.0000
     37  C4D       -3.3190   42.8220    6.0160 C.2   1102  HEC1102     0.0000
     38  CMD       -5.5050   44.6560    8.5740 C.3   1102  HEC1102     0.0000
     39  CAD       -5.7330   41.9310    6.7100 C.3   1102  HEC1102     0.0000
     40  CBD       -6.6460   42.3650    5.5600 C.3   1102  HEC1102     0.0000
     41  CGD       -7.8160   41.4240    5.4350 C.2   1102  HEC1102     0.0000
     42  O1D       -8.9410   41.8390    5.7990 O.co2 1102  HEC1102     0.0000
     43  O2D       -7.6050   40.2740    4.9730 O.co2 1102  HEC1102     0.0000
@<TRIPOS>BOND
     1    11     9    1
     2    22    19    1
     3    24    23    2
     4     9    10   ar
     5     9     8   ar
     6    19    18    1
     7    19    20    2
     8     3    10    2
     9     3    18    1
    10    12     8    1
    11    12    13    1
    12    10     6   ar
    13    23    20    1
    14    18    17    2
    15     8     7   ar
    16    20    21    1
    17    15    14   ar
    18     6     7   ar
    19     6     1    1
    20     7     2    2
    21    17    21    1
    22    17     1    1
    23    21     4    2
    24    13    14    1
    25    43    41   ar
    26    14    16   ar
    27     2    37    1
    28     4    26    1
    29     1    33    1
    30     1    25    1
    31    41    40    1
    32    41    42   ar
    33    40    39    1
    34    37    33    2
    35    37    36    1
    36    26    25   ar
    37    26    27   ar
    38    33    34    1
    39    25    29   ar
    40    39    36    1
    41    36    35    2
    42    27    30    1
    43    27    28   ar
    44    34    35    1
    45    34     5    2
    46    29    28   ar
    47    29     5    1
    48    35    38    1
    49    28    31    1
    50    32    31    2
