@<TRIPOS>MOLECULE
2ce1_HEC_A_1.pdb
 43 50 0 0 0
SMALL
GASTEIGER

@<TRIPOS>ATOM
      1 FE         28.2020   -6.0750    5.5310 Fe    1102  HEC1102     0.0000
      2  CHA       25.9840   -8.6740    5.3230 C.2   1102  HEC1102     0.0000
      3  CHB       30.3260   -7.7160    3.4430 C.2   1102  HEC1102     0.0000
      4  CHC       30.2140   -3.3130    5.4090 C.2   1102  HEC1102     0.0000
      5  CHD       26.3470   -4.6020    7.9410 C.2   1102  HEC1102     0.0000
      6  NA        28.1480   -7.8350    4.5610 N.ar  1102  HEC1102     0.0000
      7  C1A       27.1660   -8.8050    4.6500 C.ar  1102  HEC1102     0.0000
      8  C2A       27.5670   -9.9550    3.8670 C.ar  1102  HEC1102     0.0000
      9  C3A       28.7670   -9.6910    3.3440 C.ar  1102  HEC1102     0.0000
     10  C4A       29.1510   -8.3460    3.7530 C.ar  1102  HEC1102     0.0000
     11  CMA       29.5850  -10.6420    2.4460 C.3   1102  HEC1102     0.0000
     12  CAA       26.7400  -11.2490    3.7850 C.3   1102  HEC1102     0.0000
     13  CBA       26.9270  -12.0320    5.0970 C.3   1102  HEC1102     0.0000
     14  CGA       26.0190  -13.2210    5.2670 C.2   1102  HEC1102     0.0000
     15  O1A       25.0400  -13.3570    4.5090 O.co2 1102  HEC1102     0.0000
     16  O2A       26.2650  -14.0570    6.1840 O.co2 1102  HEC1102     0.0000
     17  NB        29.9600   -5.6260    4.6220 N.2   1102  HEC1102     0.0000
     18  C1B       30.6870   -6.4450    3.8040 C.2   1102  HEC1102     0.0000
     19  C2B       31.8650   -5.7350    3.3830 C.2   1102  HEC1102     0.0000
     20  C3B       31.8130   -4.5000    3.9120 C.2   1102  HEC1102     0.0000
     21  C4B       30.6130   -4.4210    4.6950 C.2   1102  HEC1102     0.0000
     22  CMB       32.9350   -6.3480    2.4640 C.3   1102  HEC1102     0.0000
     23  CAB       32.7820   -3.3270    3.7350 C.2   1102  HEC1102     0.0000
     24  CBB       32.9710   -2.9120    2.4420 C.2   1102  HEC1102     0.0000
     25  NC        28.2710   -4.3100    6.4890 N.ar  1102  HEC1102     0.0000
     26  C1C       29.1720   -3.2950    6.2850 C.ar  1102  HEC1102     0.0000
     27  C2C       28.8860   -2.2220    7.1980 C.ar  1102  HEC1102     0.0000
     28  C3C       27.8270   -2.5830    7.9410 C.ar  1102  HEC1102     0.0000
     29  C4C       27.4160   -3.8920    7.4830 C.ar  1102  HEC1102     0.0000
     30  CMC       29.6970   -0.9270    7.2780 C.3   1102  HEC1102     0.0000
     31  CAC       27.1270   -1.8040    9.0860 C.2   1102  HEC1102     0.0000
     32  CBC       26.7160   -0.5240    8.8990 C.2   1102  HEC1102     0.0000
     33  ND        26.4710   -6.5330    6.4480 N.2   1102  HEC1102     0.0000
     34  C1D       25.8570   -5.7580    7.4130 C.2   1102  HEC1102     0.0000
     35  C2D       24.5670   -6.3150    7.7220 C.2   1102  HEC1102     0.0000
     36  C3D       24.4390   -7.5580    6.9120 C.2   1102  HEC1102     0.0000
     37  C4D       25.6690   -7.6350    6.1550 C.2   1102  HEC1102     0.0000
     38  CMD       23.5320   -5.7460    8.6750 C.3   1102  HEC1102     0.0000
     39  CAD       23.2350   -8.5030    6.8680 C.3   1102  HEC1102     0.0000
     40  CBD       22.2450   -7.9830    5.8230 C.3   1102  HEC1102     0.0000
     41  CGD       21.0540   -8.8940    5.6190 C.2   1102  HEC1102     0.0000
     42  O1D       19.9190   -8.3760    5.5800 O.co2 1102  HEC1102     0.0000
     43  O2D       21.2640  -10.1100    5.4820 O.co2 1102  HEC1102     0.0000
@<TRIPOS>BOND
     1    24    23    2
     2    11     9    1
     3    22    19    1
     4     9    10   ar
     5     9     8   ar
     6    19    18    1
     7    19    20    2
     8     3    10    2
     9     3    18    1
    10    23    20    1
    11    10     6   ar
    12    12     8    1
    13    12    13    1
    14    18    17    2
    15     8     7   ar
    16    20    21    1
    17    15    14   ar
    18     6     7   ar
    19     6     1    1
    20    17    21    1
    21    17     1    1
    22     7     2    2
    23    21     4    2
    24    13    14    1
    25    14    16   ar
    26     2    37    1
    27     4    26    1
    28    43    41   ar
    29     1    33    1
    30     1    25    1
    31    42    41   ar
    32    41    40    1
    33    40    39    1
    34    37    33    2
    35    37    36    1
    36    26    25   ar
    37    26    27   ar
    38    33    34    1
    39    25    29   ar
    40    39    36    1
    41    36    35    2
    42    27    30    1
    43    27    28   ar
    44    34    35    1
    45    34     5    2
    46    29     5    1
    47    29    28   ar
    48    35    38    1
    49    28    31    1
    50    32    31    2
