@<TRIPOS>MOLECULE
2ce2_XY2_X_1.pdb
 21 22 0 0 0
SMALL
GASTEIGER

@<TRIPOS>ATOM
      1  C1         7.9580   37.4630   30.9630 C.ar  190  XY2190      0.1653
      2  C2         8.0530   38.2680   29.8270 C.ar  190  XY2190      0.1667
      3  C3         9.1980   39.0810   29.6250 C.ar  190  XY2190      0.1580
      4  C19       15.3780   41.8650   28.0330 C.3   190  XY2190      0.0948
      5  C17       14.7240   41.8180   29.3960 C.2   190  XY2190      0.2262
      6  O18       14.5600   42.8970   29.9490 O.2   190  XY2190     -0.2749
      7  N15       14.3010   40.6720   29.9620 N.am  190  XY2190     -0.2760
      8  C16       14.4450   39.3250   29.3910 C.3   190  XY2190      0.1149
      9  C14       13.6540   40.7490   31.2800 C.3   190  XY2190      0.1148
     10  C13       12.4400   39.8200   31.4440 C.3   190  XY2190      0.1124
     11  N11       11.3810   39.8780   30.4090 N.pl3 190  XY2190     -0.3028
     12  C12       11.4890   40.7310   29.2210 C.3   190  XY2190      0.1123
     13  N5         7.1720   38.4110   28.8000 N.ar  190  XY2190     -0.0465
     14  O6         7.7870   39.3430   27.9290 O.2   190  XY2190     -0.2414
     15  N7         9.0430   39.7540   28.4550 N.ar  190  XY2190     -0.0469
     16  N8         6.8170   36.6580   31.1570 N.pl3 190  XY2190      0.0593
     17  O10        6.0360   36.4770   30.2400 O.2   190  XY2190     -0.1261
     18  O9         6.5820   36.1370   32.2390 O.2   190  XY2190     -0.1261
     19  C21        8.9910   37.4730   31.8960 C.ar  190  XY2190      0.0271
     20  C20       10.1130   38.2710   31.7020 C.ar  190  XY2190      0.0180
     21  C4        10.2480   39.0920   30.5700 C.ar  190  XY2190      0.0708
@<TRIPOS>BOND
     1    14    15   ar
     2    14    13   ar
     3     4     5    1
     4    15     3   ar
     5    13     2   ar
     6    12    11    1
     7     8     7    1
     8     5     6    2
     9     5     7   am
    10     3     2   ar
    11     3    21   ar
    12     2     1   ar
    13     7     9    1
    14    17    16    2
    15    11    21    1
    16    11    10    1
    17    21    20   ar
    18     1    16    1
    19     1    19   ar
    20    16    18    2
    21     9    10    1
    22    20    19   ar
