@<TRIPOS>MOLECULE
2ce2_GDP_X_1.pdb
 28 30 0 0 0
SMALL
GASTEIGER

@<TRIPOS>ATOM
      1  PB        16.9010   42.6210   20.9210 P.3   180  GDP180      0.5373
      2  O1B       16.5810   42.1730   19.5000 O.2   180  GDP180     -0.2221
      3  O2B       16.1320   41.8460   21.9700 O.3   180  GDP180     -0.1143
      4  O3B       18.3980   42.6910   21.2100 O.3   180  GDP180     -0.1143
      5  O3A       16.3380   44.1410   20.9640 O.3   180  GDP180     -0.2261
      6  PA        15.6970   44.9100   22.2100 P.3   180  GDP180      0.2231
      7  O1A       16.7290   44.7330   23.3350 O.3   180  GDP180     -0.4370
      8  O2A       14.2900   44.5150   22.4100 O.2   180  GDP180     -0.5169
      9  O5'       15.7240   46.4230   21.7070 O.3   180  GDP180     -0.3111
     10  C5'       16.9390   47.0140   21.2710 C.3   180  GDP180      0.1813
     11  C4'       16.7790   48.5280   21.2850 C.3   180  GDP180      0.1799
     12  O4'       15.8880   48.8920   20.2300 O.3   180  GDP180     -0.3326
     13  C3'       16.1860   49.1010   22.5740 C.3   180  GDP180      0.2158
     14  O3'       16.7080   50.3840   22.8830 O.3   180  GDP180     -0.2175
     15  C2'       14.7220   49.2710   22.2460 C.3   180  GDP180      0.2310
     16  O2'       14.0610   50.2740   23.0120 O.3   180  GDP180     -0.2158
     17  C1'       14.8120   49.6360   20.7860 C.3   180  GDP180      0.2293
     18  N9        13.6480   49.2170   20.0320 N.pl3 180  GDP180     -0.2354
     19  C8        13.2370   47.9350   19.9140 C.3   180  GDP180      0.2246
     20  N7        12.1730   47.8850   19.1170 N.2   180  GDP180     -0.2322
     21  C5        11.9180   49.1690   18.7430 C.2   180  GDP180      0.2182
     22  C6        10.9410   49.7930   17.8860 C.1   180  GDP180      0.2372
     23  O6        10.0520   49.1530   17.2920 O.2   180  GDP180     -0.2069
     24  N1        11.0510   51.1430   17.7600 N.2   180  GDP180     -0.2485
     25  C2        11.9870   51.9080   18.3700 C.1   180  GDP180      0.2531
     26  N2        11.9740   53.2440   18.1460 N.pl3 180  GDP180     -0.0226
     27  N3        12.9480   51.3980   19.1560 N.2   180  GDP180     -0.3074
     28  C4        12.8940   50.0470   19.3460 C.2   180  GDP180      0.2300
@<TRIPOS>BOND
     1    23    22    2
     2    24    22    2
     3    24    25    2
     4    22    21    1
     5    26    25    1
     6    25    27    2
     7    21    20    2
     8    21    28    1
     9    20    19    1
    10    27    28    2
    11    28    18    1
    12     2     1    2
    13    19    18    1
    14    18    17    1
    15    12    17    1
    16    12    11    1
    17    17    15    1
    18     1     5    1
    19     1     4    1
    20     1     3    1
    21     5     6    1
    22    10    11    1
    23    10     9    1
    24    11    13    1
    25     9     6    1
    26     6     8    2
    27     6     7    1
    28    15    13    1
    29    15    16    1
    30    13    14    1
