@<TRIPOS>MOLECULE
2ce7_ADP_A_1.pdb
 27 29 0 0 0
SMALL
GASTEIGER

@<TRIPOS>ATOM
      1  PB        21.2920   91.0750   32.4050 P.3   1604  ADP1604     0.5373
      2  O1B       22.2710   90.1910   33.1150 O.3   1604  ADP1604    -0.1143
      3  O2B       21.8830   92.2520   31.6690 O.2   1604  ADP1604    -0.2221
      4  O3B       20.0520   91.4310   33.2080 O.3   1604  ADP1604    -0.1143
      5  PA        19.3680   90.2500   30.4880 P.3   1604  ADP1604     0.2231
      6  O1A       18.2940   89.3920   31.1030 O.3   1604  ADP1604    -0.4370
      7  O2A       19.0720   91.7090   30.2560 O.2   1604  ADP1604    -0.5169
      8  O3A       20.7690   90.0720   31.2650 O.3   1604  ADP1604    -0.2261
      9  O5'       19.9220   89.5650   29.1540 O.3   1604  ADP1604    -0.3111
     10  C5'       19.5550   90.0570   27.8650 C.3   1604  ADP1604     0.1813
     11  C4'       18.8220   88.9680   27.0840 C.3   1604  ADP1604     0.1821
     12  O4'       19.7320   87.9420   26.6790 O.3   1604  ADP1604    -0.3135
     13  C3'       17.7500   88.2510   27.8860 C.3   1604  ADP1604     0.2184
     14  O3'       16.4920   88.9210   27.8290 O.3   1604  ADP1604    -0.2174
     15  C2'       17.6930   86.8820   27.2370 C.3   1604  ADP1604     0.2570
     16  O2'       16.7340   86.8620   26.1680 O.3   1604  ADP1604    -0.2130
     17  C1'       19.1200   86.6530   26.7530 C.3   1604  ADP1604     0.3186
     18  N9        19.7700   85.8830   27.8080 N.pl3 1604  ADP1604    -0.1439
     19  C8        20.6750   86.3650   28.7100 C.3   1604  ADP1604     0.3377
     20  N7        21.0370   85.3690   29.5850 N.2   1604  ADP1604    -0.2095
     21  C5        20.3310   84.2630   29.2510 C.2   1604  ADP1604     0.2526
     22  C6        20.2310   82.8920   29.7520 C.2   1604  ADP1604     0.4393
     23  N6        20.9660   82.5210   30.8050 N.pl3 1604  ADP1604     0.2180
     24  N1        19.3940   82.0240   29.1300 N.2   1604  ADP1604     0.0021
     25  C2        18.6490   82.3840   28.0560 C.3   1604  ADP1604     0.5254
     26  N3        18.6880   83.6340   27.5510 N.2   1604  ADP1604    -0.0055
     27  C4        19.4980   84.5990   28.0950 C.2   1604  ADP1604     0.3518
@<TRIPOS>BOND
     1    16    15    1
     2    12    17    1
     3    12    11    1
     4    17    15    1
     5    17    18    1
     6    11    10    1
     7    11    13    1
     8    15    13    1
     9    26    25    1
    10    26    27    2
    11    18    27    1
    12    18    19    1
    13    14    13    1
    14    10     9    1
    15    25    24    1
    16    27    21    1
    17    19    20    1
    18    24    22    2
    19     9     5    1
    20    21    20    2
    21    21    22    1
    22    22    23    1
    23     7     5    2
    24     5     6    1
    25     5     8    1
    26     8     1    1
    27     3     1    2
    28     1     2    1
    29     1     4    1
