@<TRIPOS>MOLECULE
2cea_ADP_A_1.pdb
 27 29 0 0 0
SMALL
GASTEIGER

@<TRIPOS>ATOM
      1  PB        21.2810   91.2550   32.1430 P.3   1604  ADP1604     0.5373
      2  O1B       22.2860   90.4270   32.8960 O.3   1604  ADP1604    -0.1143
      3  O2B       21.8480   92.4500   31.4170 O.2   1604  ADP1604    -0.2221
      4  O3B       20.0150   91.5160   32.9200 O.3   1604  ADP1604    -0.1143
      5  PA        19.3550   90.4660   30.3490 P.3   1604  ADP1604     0.2231
      6  O1A       18.3850   89.7400   31.2470 O.3   1604  ADP1604    -0.4370
      7  O2A       19.0740   91.9050   29.9620 O.2   1604  ADP1604    -0.5169
      8  O3A       20.8250   90.3070   30.9560 O.3   1604  ADP1604    -0.2261
      9  O5'       19.6220   89.6020   29.0370 O.3   1604  ADP1604    -0.3111
     10  C5'       19.4890   90.1610   27.7420 C.3   1604  ADP1604     0.1813
     11  C4'       18.7880   89.1380   26.8500 C.3   1604  ADP1604     0.1821
     12  O4'       19.7070   88.1220   26.3730 O.3   1604  ADP1604    -0.3135
     13  C3'       17.7020   88.4000   27.6160 C.3   1604  ADP1604     0.2184
     14  O3'       16.4410   89.0290   27.4730 O.3   1604  ADP1604    -0.2174
     15  C2'       17.6870   87.0260   27.0010 C.3   1604  ADP1604     0.2570
     16  O2'       16.7410   86.9780   25.9280 O.3   1604  ADP1604    -0.2130
     17  C1'       19.1180   86.8110   26.5200 C.3   1604  ADP1604     0.3186
     18  N9        19.7700   86.0310   27.5980 N.pl3 1604  ADP1604    -0.1439
     19  C8        20.6930   86.4830   28.4800 C.3   1604  ADP1604     0.3377
     20  N7        21.0390   85.4840   29.3540 N.2   1604  ADP1604    -0.2095
     21  C5        20.3090   84.4000   29.0420 C.2   1604  ADP1604     0.2526
     22  C6        20.1800   83.0300   29.5590 C.2   1604  ADP1604     0.4393
     23  N6        20.8940   82.6280   30.6020 N.pl3 1604  ADP1604     0.2180
     24  N1        19.3200   82.1930   28.9520 N.2   1604  ADP1604     0.0021
     25  C2        18.5770   82.5880   27.8850 C.3   1604  ADP1604     0.5254
     26  N3        18.6460   83.8340   27.3680 N.2   1604  ADP1604    -0.0055
     27  C4        19.4780   84.7630   27.8950 C.2   1604  ADP1604     0.3518
@<TRIPOS>BOND
     1    16    15    1
     2    12    17    1
     3    12    11    1
     4    17    15    1
     5    17    18    1
     6    11    13    1
     7    11    10    1
     8    15    13    1
     9    26    25    1
    10    26    27    2
    11    14    13    1
    12    18    27    1
    13    18    19    1
    14    10     9    1
    15    25    24    1
    16    27    21    1
    17    19    20    1
    18    24    22    2
    19     9     5    1
    20    21    20    2
    21    21    22    1
    22    22    23    1
    23     7     5    2
    24     5     8    1
    25     5     6    1
    26     8     1    1
    27     3     1    2
    28     1     2    1
    29     1     4    1
