@<TRIPOS>MOLECULE
2cej_1AH_B_1.pdb
 45 48 0 0 0
SMALL
GASTEIGER

@<TRIPOS>ATOM
      1  C23       14.7990   22.1140    7.9090 C.ar  1200  1AH1200    -0.0192
      2  C24       14.2840   20.9720    8.6230 C.ar  1200  1AH1200    -0.0042
      3  C25       15.1580   20.1610    9.4240 C.ar  1200  1AH1200    -0.0003
      4  C26       16.5570   20.4900    9.5160 C.ar  1200  1AH1200    -0.0000
      5  C27       17.0770   21.6270    8.8100 C.ar  1200  1AH1200    -0.0003
      6  C28       16.2080   22.4410    8.0080 C.ar  1200  1AH1200    -0.0042
      7  C33        9.8270   23.7910    2.8810 C.ar  1200  1AH1200    -0.0044
      8  C34       10.3450   24.5120    1.7690 C.ar  1200  1AH1200    -0.0024
      9  C35        9.4820   25.3570    1.0200 C.ar  1200  1AH1200     0.0064
     10  C36        8.1050   25.4730    1.3930 C.ar  1200  1AH1200     0.0345
     11  C37        7.5870   24.7400    2.5030 C.ar  1200  1AH1200     0.0064
     12  C38        8.4480   23.8980    3.2480 C.ar  1200  1AH1200    -0.0024
     13  C32       10.7490   22.9350    3.6710 C.3   1200  1AH1200     0.1203
     14  C7         5.5460   27.2890    4.6170 C.3   1200  1AH1200     0.2574
     15  C4        12.6900   22.6490    4.6390 C.3   1200  1AH1200     0.1339
     16  O3         8.2660   27.6630    5.1840 O.2   1200  1AH1200    -0.2245
     17  N1         8.2980   25.7790    6.4460 N.am  1200  1AH1200    -0.1610
     18  C22       13.8670   22.9520    7.0240 C.3   1200  1AH1200     0.0672
     19  O6        14.9360   23.5260    4.9140 O.3   1200  1AH1200    -0.2144
     20  O8         6.3440   26.4270    5.4320 O.3   1200  1AH1200    -0.4294
     21  C10       14.4260   21.1560    5.2090 C.2   1200  1AH1200     0.2710
     22  O11       13.5450   20.2820    5.1370 O.2   1200  1AH1200    -0.2706
     23  N12       15.7200   20.8040    5.1140 N.am  1200  1AH1200    -0.1980
     24  C51       16.1280   19.4050    4.9480 C.3   1200  1AH1200     0.1478
     25  C52       16.1050   18.8570    3.5460 C.ar  1200  1AH1200    -0.0040
     26  C57       17.1280   17.9010    3.4230 C.ar  1200  1AH1200    -0.0218
     27  C53       15.2430   19.1780    2.4470 C.ar  1200  1AH1200    -0.0029
     28  C54       15.4520   18.4970    1.2010 C.ar  1200  1AH1200    -0.0003
     29  C55       16.5020   17.5210    1.0810 C.ar  1200  1AH1200    -0.0003
     30  C59       17.5640   19.1040    5.4340 C.3   1200  1AH1200     0.1802
     31  O60       18.4930   20.0600    4.9250 O.3   1200  1AH1200    -0.2206
     32  C30        7.6580   26.6680    5.6650 C.2   1200  1AH1200     0.4216
     33  C56       17.3530   17.2110    2.1980 C.ar  1200  1AH1200    -0.0044
     34  C58       17.8820   17.7640    4.7340 C.3   1200  1AH1200     0.0611
     35  C41        9.7180   25.7970    6.8500 C.3   1200  1AH1200     0.1773
     36  C42        9.8000   26.0620    8.3980 C.3   1200  1AH1200     0.0271
     37  C43        9.1510   27.4140    8.8140 C.3   1200  1AH1200     0.0022
     38  C1        13.9900   22.6400    5.4810 C.3   1200  1AH1200     0.2160
     39  C44       11.2420   26.0950    8.9250 C.3   1200  1AH1200     0.0022
     40  C45       10.3790   24.4880    6.3210 C.2   1200  1AH1200     0.2764
     41  N24       11.7750   23.7090    4.4380 N.3   1200  1AH1200    -0.1769
     42  O46       10.0150   23.3910    6.7380 O.2   1200  1AH1200    -0.2701
     43  N47       11.3600   24.6310    5.3950 N.am  1200  1AH1200    -0.1257
     44 BR          6.9720   26.6170    0.4190 Br    1200  1AH1200    -0.0490
     45  C86        9.0240   24.9560    9.1370 C.3   1200  1AH1200     0.0022
@<TRIPOS>BOND
     1    44    10    1
     2     9    10   ar
     3     9     8   ar
     4    29    28   ar
     5    29    33   ar
     6    28    27   ar
     7    10    11   ar
     8     8     7   ar
     9    33    26   ar
    10    27    25   ar
    11    11    12   ar
    12     7    12   ar
    13     7    13    1
    14    26    25   ar
    15    26    34    1
    16    25    24    1
    17    13    41    1
    18    41    15    1
    19    41    43    1
    20    14    20    1
    21    15    38    1
    22    34    30    1
    23    19    38    1
    24    31    30    1
    25    24    23    1
    26    24    30    1
    27    23    21   am
    28    22    21    2
    29    16    32    2
    30    21    38    1
    31    43    40   am
    32    20    32    1
    33    38    18    1
    34    32    17   am
    35    40    42    2
    36    40    35    1
    37    17    35    1
    38    35    36    1
    39    18     1    1
    40     1     6   ar
    41     1     2   ar
    42     6     5   ar
    43    36    37    1
    44    36    39    1
    45    36    45    1
    46     2     3   ar
    47     5     4   ar
    48     3     4   ar
