@<TRIPOS>MOLECULE
2cek_N8T_A_1.pdb
 38 43 0 0 0
SMALL
GASTEIGER

@<TRIPOS>ATOM
      1  CBD        6.9770   69.9410   66.9150 C.3   600  N8T600      0.0548
      2  CBE        6.6830   69.9000   68.4150 C.3   600  N8T600      0.0071
      3  CAQ        5.2370   70.3170   68.6900 C.3   600  N8T600      0.0012
      4  CAP        4.2820   69.2870   68.0840 C.3   600  N8T600      0.0124
      5  CAO        4.5710   69.0630   66.5980 C.3   600  N8T600      0.0855
      6  CBC        5.8370   69.3450   66.0860 C.2   600  N8T600      0.0916
      7  NBB        6.1030   69.1810   64.7820 N.2   600  N8T600     -0.4101
      8  CBA        5.1750   68.7590   63.9160 C.ar  600  N8T600      0.1315
      9  CAZ        5.5120   68.5550   62.5810 C.ar  600  N8T600      0.0320
     10  CAY        4.5560   68.0710   61.6960 C.ar  600  N8T600      0.0026
     11  CAK        3.2680   67.7960   62.1420 C.ar  600  N8T600      0.0002
     12  CAL        2.9330   68.0040   63.4770 C.ar  600  N8T600      0.0035
     13  CAM        3.8900   68.4800   64.3630 C.ar  600  N8T600      0.0407
     14  CAN        3.5900   68.6170   65.7180 C.2   600  N8T600      0.0514
     15  NAA        2.4840   67.9910   66.1190 N.pl3 600  N8T600     -0.2414
     16  CAB        2.1860   67.6400   67.5150 C.3   600  N8T600      0.1118
     17  CAC        2.8000   66.2550   67.7340 C.3   600  N8T600      0.0233
     18  CAD        2.5690   65.6000   69.0990 C.3   600  N8T600      0.0018
     19  CAE        3.3270   64.2690   69.1070 C.3   600  N8T600      0.0001
     20  CAF        3.2040   63.4110   70.3700 C.3   600  N8T600      0.0000
     21  CAG        1.9370   62.5520   70.4050 C.3   600  N8T600      0.0009
     22  CAH        0.7630   63.3230   71.0100 C.3   600  N8T600      0.0120
     23  CAI       -0.5270   62.5010   71.0260 C.3   600  N8T600      0.0619
     24  SAJ       -0.4240   60.9470   71.9890 S.3   600  N8T600     -0.1175
     25  CAU       -2.1050   60.4590   71.9660 C.2   600  N8T600      0.0114
     26  CAV       -2.7250   60.0670   73.1480 C.3   600  N8T600      0.0762
     27  CAW       -1.9090   59.9050   74.4310 C.3   600  N8T600      0.0116
     28  CAX       -2.8060   59.7590   75.6640 C.3   600  N8T600      0.0012
     29  CBL       -3.9330   58.7610   75.3980 C.3   600  N8T600      0.0071
     30  CBK       -4.8760   59.3260   74.3340 C.3   600  N8T600      0.0548
     31  CBJ       -4.0770   59.7300   73.0940 C.2   600  N8T600      0.0908
     32  NBI       -4.7490   59.7650   71.9360 N.2   600  N8T600     -0.4102
     33  CBH       -4.1630   60.1220   70.7830 C.ar  600  N8T600      0.1307
     34  CAT       -2.8230   60.4800   70.7760 C.ar  600  N8T600      0.0316
     35  CAS       -2.1970   60.8130   69.5790 C.ar  600  N8T600      0.0027
     36  CAR       -2.9200   60.7860   68.3920 C.ar  600  N8T600      0.0002
     37  CBF       -4.2620   60.4290   68.4000 C.ar  600  N8T600      0.0026
     38  CBG       -4.8890   60.0970   69.5980 C.ar  600  N8T600      0.0320
@<TRIPOS>BOND
     1    10    11   ar
     2    10     9   ar
     3    11    12   ar
     4     9     8   ar
     5    12    13   ar
     6     8    13   ar
     7     8     7    2
     8    13    14    2
     9     7     6    2
    10    14    15    1
    11    14     5    1
    12     6     5    1
    13     6     1    1
    14    15    16    1
    15     5     4    1
    16     1     2    1
    17    16    17    1
    18    17    18    1
    19     4     3    1
    20    36    37   ar
    21    36    35   ar
    22    37    38   ar
    23     2     3    1
    24    18    19    1
    25    19    20    1
    26    35    34   ar
    27    38    33   ar
    28    20    21    1
    29    21    22    1
    30    34    33   ar
    31    34    25    2
    32    33    32    2
    33    22    23    1
    34    23    24    1
    35    32    31    2
    36    25    24    1
    37    25    26    1
    38    31    26    1
    39    31    30    1
    40    26    27    1
    41    30    29    1
    42    27    28    1
    43    29    28    1
