@<TRIPOS>MOLECULE
2cem_2AH_B_1.pdb
 50 54 0 0 0
SMALL
GASTEIGER

@<TRIPOS>ATOM
      1  C1        14.1700   23.0120    5.5050 C.3   1200  2AH1200     0.2160
      2  C2        14.5110   21.4910    5.2910 C.2   1200  2AH1200     0.2710
      3  O3        13.5950   20.6500    5.2550 O.2   1200  2AH1200    -0.2706
      4  N4        15.7910   21.0870    5.1640 N.am  1200  2AH1200    -0.1980
      5  C5        16.1520   19.6710    4.9760 C.3   1200  2AH1200     0.1478
      6  C6        16.1360   19.1610    3.5630 C.ar  1200  2AH1200    -0.0040
      7  C7        15.2830   19.5320    2.4720 C.ar  1200  2AH1200    -0.0029
      8  C8        15.4860   18.8810    1.2090 C.ar  1200  2AH1200    -0.0003
      9  C9        16.5120   17.8900    1.0590 C.ar  1200  2AH1200    -0.0003
     10  C10       17.3540   17.5290    2.1640 C.ar  1200  2AH1200    -0.0044
     11  C11       17.1400   18.1880    3.4090 C.ar  1200  2AH1200    -0.0218
     12  C12       17.8920   17.9870    4.7040 C.3   1200  2AH1200     0.0611
     13  C13       17.5680   19.2780    5.4960 C.3   1200  2AH1200     0.1802
     14  O14       18.5520   20.2300    5.1140 O.3   1200  2AH1200    -0.2206
     15  C24       13.9170   23.3220    7.0150 C.3   1200  2AH1200     0.0672
     16  C25       14.8160   22.6240    8.0270 C.ar  1200  2AH1200    -0.0192
     17  C26       14.3030   21.5170    8.7960 C.ar  1200  2AH1200    -0.0042
     18  C27       15.1370   20.8470    9.7380 C.ar  1200  2AH1200    -0.0003
     19  C28       16.4910   21.2770    9.9200 C.ar  1200  2AH1200    -0.0000
     20  C29       17.0070   22.3760    9.1590 C.ar  1200  2AH1200    -0.0003
     21  C30       16.1710   23.0510    8.2130 C.ar  1200  2AH1200    -0.0042
     22  O36       15.2390   23.8640    5.1170 O.3   1200  2AH1200    -0.2144
     23  C41       12.9050   23.0300    4.5760 C.3   1200  2AH1200     0.1339
     24  N42       11.9580   24.0570    4.2140 N.3   1200  2AH1200    -0.1769
     25  N43       11.3060   24.8080    5.1770 N.am  1200  2AH1200    -0.1257
     26  C44       11.3830   23.6150    2.9110 C.3   1200  2AH1200     0.1203
     27  C45       10.4630   24.5590    6.2070 C.2   1200  2AH1200     0.2764
     28  O46       10.3010   23.4280    6.7000 O.2   1200  2AH1200    -0.2701
     29  C47        9.6980   25.7940    6.7430 C.3   1200  2AH1200     0.1773
     30  C48        9.6640   26.0380    8.2970 C.3   1200  2AH1200     0.0271
     31  C49        8.9080   27.3360    8.6760 C.3   1200  2AH1200     0.0022
     32  C50       11.0650   26.1420    8.9260 C.3   1200  2AH1200     0.0022
     33  N51        8.3140   25.7110    6.2350 N.am  1200  2AH1200    -0.1610
     34  C54        7.6990   26.6060    5.4450 C.2   1200  2AH1200     0.4216
     35  O55        8.3060   27.6300    5.0760 O.2   1200  2AH1200    -0.2245
     36  O56        6.4180   26.3340    5.0850 O.3   1200  2AH1200    -0.4294
     37  C78        9.8760   23.4420    2.9570 C.ar  1200  2AH1200    -0.0045
     38  C79        9.0330   24.4590    2.4050 C.ar  1200  2AH1200    -0.0028
     39  C80        7.6070   24.3290    2.4660 C.ar  1200  2AH1200     0.0012
     40  C81        7.0140   23.1780    3.0890 C.ar  1200  2AH1200     0.0176
     41  C82        9.2900   22.2870    3.5650 C.ar  1200  2AH1200    -0.0028
     42  C83        7.8670   22.1590    3.6300 C.ar  1200  2AH1200     0.0012
     43  C91        5.6620   27.2080    4.2510 C.3   1200  2AH1200     0.2574
     44  C92        8.9020   24.9000    8.9810 C.3   1200  2AH1200     0.0022
     45  C93        2.6720   22.8880    3.3260 C.ar  1200  2AH1200     0.0207
     46  C94        3.4910   21.8610    3.8780 C.ar  1200  2AH1200     0.0031
     47  C95        4.9130   21.9390    3.8060 C.ar  1200  2AH1200     0.0191
     48  C96        5.5330   23.0630    3.1720 C.ar  1200  2AH1200     0.0813
     49  N97        4.7030   24.0880    2.6230 N.ar  1200  2AH1200    -0.2438
     50  C98        3.2790   24.0040    2.6960 C.ar  1200  2AH1200     0.0988
@<TRIPOS>BOND
     1     9     8   ar
     2     9    10   ar
     3     8     7   ar
     4    10    11   ar
     5    38    39   ar
     6    38    37   ar
     7    39    40   ar
     8     7     6   ar
     9    49    50   ar
    10    49    48   ar
    11    50    45   ar
    12    26    37    1
    13    26    24    1
    14    37    41   ar
    15    40    48    1
    16    40    42   ar
    17    48    47   ar
    18    45    46   ar
    19    11     6   ar
    20    11    12    1
    21     6     5    1
    22    41    42   ar
    23    47    46   ar
    24    24    23    1
    25    24    25    1
    26    43    36    1
    27    23     1    1
    28    12    13    1
    29     5     4    1
    30     5    13    1
    31    35    34    2
    32    36    34    1
    33    14    13    1
    34    22     1    1
    35     4     2   am
    36    25    27   am
    37     3     2    2
    38     2     1    1
    39    34    33   am
    40     1    15    1
    41    27    28    2
    42    27    29    1
    43    33    29    1
    44    29    30    1
    45    15    16    1
    46    16    21   ar
    47    16    17   ar
    48    21    20   ar
    49    30    31    1
    50    30    32    1
    51    30    44    1
    52    17    18   ar
    53    20    19   ar
    54    18    19   ar
