@<TRIPOS>MOLECULE
2cen_4AH_B_1.pdb
 50 54 0 0 0
SMALL
GASTEIGER

@<TRIPOS>ATOM
      1  C1        14.3070   22.9110    5.6430 C.3   1200  4AH1200     0.2160
      2  C2        14.5790   21.3770    5.3860 C.2   1200  4AH1200     0.2710
      3  O3        13.6330   20.5620    5.4030 O.2   1200  4AH1200    -0.2706
      4  N4        15.8330   20.9260    5.1890 N.am  1200  4AH1200    -0.1980
      5  C5        16.1290   19.4960    4.9900 C.3   1200  4AH1200     0.1478
      6  C6        16.0890   18.9950    3.5740 C.ar  1200  4AH1200    -0.0040
      7  C7        15.2500   19.4110    2.4890 C.ar  1200  4AH1200    -0.0029
      8  C8        15.4250   18.7590    1.2180 C.ar  1200  4AH1200    -0.0003
      9  C9        16.4120   17.7250    1.0620 C.ar  1200  4AH1200    -0.0003
     10  C10       17.2390   17.3220    2.1630 C.ar  1200  4AH1200    -0.0044
     11  C11       17.0540   17.9780    3.4120 C.ar  1200  4AH1200    -0.0218
     12  C12       17.7990   17.7320    4.7040 C.3   1200  4AH1200     0.0611
     13  C13       17.5230   19.0220    5.5170 C.3   1200  4AH1200     0.1802
     14  O14       18.5730   19.9140    5.1680 O.3   1200  4AH1200    -0.2206
     15  C24       14.1110   23.1820    7.1760 C.3   1200  4AH1200     0.0672
     16  C25       14.9730   22.3470    8.1180 C.ar  1200  4AH1200    -0.0192
     17  C26       14.3750   21.2800    8.8770 C.ar  1200  4AH1200    -0.0042
     18  C27       15.1730   20.4770    9.7450 C.ar  1200  4AH1200    -0.0003
     19  C28       16.5770   20.7350    9.8590 C.ar  1200  4AH1200    -0.0000
     20  C29       17.1780   21.7980    9.1060 C.ar  1200  4AH1200    -0.0003
     21  C30       16.3810   22.6040    8.2360 C.ar  1200  4AH1200    -0.0042
     22  O36       15.4120   23.7170    5.2220 O.3   1200  4AH1200    -0.2144
     23  C41       13.0310   22.9480    4.7450 C.3   1200  4AH1200     0.1339
     24  N42       12.0780   23.9550    4.3850 N.3   1200  4AH1200    -0.1769
     25  N43       11.4140   24.7110    5.3210 N.am  1200  4AH1200    -0.1257
     26  C44       11.5480   23.4280    3.1080 C.3   1200  4AH1200     0.1203
     27  C45       10.5400   24.4360    6.3090 C.2   1200  4AH1200     0.2764
     28  O46       10.3620   23.2950    6.7660 O.2   1200  4AH1200    -0.2701
     29  C47        9.7620   25.6600    6.8290 C.3   1200  4AH1200     0.1773
     30  C48        9.6900   25.9050    8.3760 C.3   1200  4AH1200     0.0271
     31  C49        8.9260   27.2100    8.7310 C.3   1200  4AH1200     0.0022
     32  C50       11.0770   26.0020    9.0310 C.3   1200  4AH1200     0.0022
     33  N51        8.3920   25.5860    6.2930 N.am  1200  4AH1200    -0.1610
     34  C54        7.8210   26.4840    5.4740 C.2   1200  4AH1200     0.4216
     35  O55        8.4670   27.4840    5.1070 O.2   1200  4AH1200    -0.2245
     36  O56        6.5440   26.2540    5.0890 O.3   1200  4AH1200    -0.4294
     37  C78       10.0340   23.4700    2.9970 C.ar  1200  4AH1200    -0.0045
     38  C79        9.4220   24.4510    2.1580 C.ar  1200  4AH1200    -0.0029
     39  C80        7.9990   24.5180    2.0510 C.ar  1200  4AH1200    -0.0002
     40  C81        7.1660   23.6030    2.7910 C.ar  1200  4AH1200     0.0015
     41  C82        9.2150   22.5500    3.7300 C.ar  1200  4AH1200    -0.0029
     42  C83        7.7910   22.6170    3.6320 C.ar  1200  4AH1200    -0.0002
     43  C91        5.8550   27.1580    4.2320 C.3   1200  4AH1200     0.2574
     44  C92        8.9130   24.7670    9.0460 C.3   1200  4AH1200     0.0022
     45  C93        3.4210   22.8550    3.3400 C.ar  1200  4AH1200     0.0207
     46  C94        4.8410   22.7860    3.4320 C.ar  1200  4AH1200     0.0031
     47  C95        5.6770   23.6820    2.6840 C.ar  1200  4AH1200     0.0192
     48  C96        5.0560   24.6540    1.8370 C.ar  1200  4AH1200     0.0988
     49  N97        3.6370   24.7180    1.7470 N.ar  1200  4AH1200    -0.2423
     50  C98        2.8160   23.8240    2.4950 C.ar  1200  4AH1200     0.0989
@<TRIPOS>BOND
     1     9     8   ar
     2     9    10   ar
     3     8     7   ar
     4    49    48   ar
     5    49    50   ar
     6    48    47   ar
     7    39    38   ar
     8    39    40   ar
     9    38    37   ar
    10    10    11   ar
    11     7     6   ar
    12    50    45   ar
    13    47    40    1
    14    47    46   ar
    15    40    42   ar
    16    37    26    1
    17    37    41   ar
    18    26    24    1
    19    45    46   ar
    20    11     6   ar
    21    11    12    1
    22     6     5    1
    23    42    41   ar
    24    43    36    1
    25    24    23    1
    26    24    25    1
    27    12    13    1
    28    23     1    1
    29     5     4    1
    30     5    13    1
    31    36    34    1
    32    35    34    2
    33    14    13    1
    34     4     2   am
    35    22     1    1
    36    25    27   am
    37     2     3    2
    38     2     1    1
    39    34    33   am
    40     1    15    1
    41    33    29    1
    42    27    28    2
    43    27    29    1
    44    29    30    1
    45    15    16    1
    46    16    21   ar
    47    16    17   ar
    48    21    20   ar
    49    30    31    1
    50    30    32    1
    51    30    44    1
    52    17    18   ar
    53    20    19   ar
    54    18    19   ar
