@<TRIPOS>MOLECULE
2ceo_T44_A_1.pdb
 24 25 0 0 0
SMALL
GASTEIGER

@<TRIPOS>ATOM
      1  C1        20.3330    1.9610  -20.5440 C.ar  1395  T441395    -0.0191
      2  C2        20.9890    1.3890  -21.6470 C.ar  1395  T441395     0.0047
      3  C3        20.7500    1.8190  -22.9490 C.ar  1395  T441395     0.0647
      4  C4        19.7690    2.9010  -23.1510 C.ar  1395  T441395     0.1558
      5  C5        19.1010    3.4670  -21.9690 C.ar  1395  T441395     0.0647
      6  C6        19.3940    2.9850  -20.6950 C.ar  1395  T441395     0.0047
      7  C7        20.6310    1.4450  -19.1540 C.3   1395  T441395     0.0570
      8  C8        21.8870    2.0740  -18.5500 C.3   1395  T441395     0.1986
      9  C9        23.0810    1.9650  -19.4750 C.2   1395  T441395     0.3822
     10  C1'       20.2890    4.3070  -25.0200 C.ar  1395  T441395     0.1464
     11  C2'       21.1700    5.1000  -24.2770 C.ar  1395  T441395     0.0465
     12  C3'       22.0030    6.0320  -24.8920 C.ar  1395  T441395     0.0724
     13  C4'       21.9570    6.1870  -26.3600 C.ar  1395  T441395     0.2064
     14  C5'       21.0140    5.3290  -27.0940 C.ar  1395  T441395     0.0724
     15  C6'       20.2150    4.4180  -26.4110 C.ar  1395  T441395     0.0465
     16  N8        21.6080    3.4510  -18.1730 N.3   1395  T441395    -0.1205
     17  O4        19.4740    3.3900  -24.3960 O.3   1395  T441395    -0.4526
     18  O4'       22.7470    7.0750  -27.0270 O.3   1395  T441395    -0.2857
     19  O9        23.6410    3.0070  -19.8850 O.co2 1395  T441395    -0.2440
     20  O10       23.4890    0.8260  -19.8030 O.co2 1395  T441395    -0.2440
     21  I3        21.7160    0.9900  -24.6080 I     1395  T441395    -0.0393
     22  I3'       23.3190    7.2120  -23.7890 I     1395  T441395    -0.0391
     23  I5        17.7410    4.9890  -22.3520 I     1395  T441395    -0.0393
     24  I5'       20.9320    5.5350  -29.1550 I     1395  T441395    -0.0391
@<TRIPOS>BOND
     1    24    14    1
     2    14    15   ar
     3    14    13   ar
     4    18    13    1
     5    15    10   ar
     6    13    12   ar
     7    10    17    1
     8    10    11   ar
     9    12    11   ar
    10    12    22    1
    11    21     3    1
    12    17     4    1
    13     4     3   ar
    14     4     5   ar
    15     3     2   ar
    16    23     5    1
    17     5     6   ar
    18     2     1   ar
    19     6     1   ar
    20     1     7    1
    21    19     9   ar
    22    20     9   ar
    23     9     8    1
    24     7     8    1
    25     8    16    1
