@<TRIPOS>MOLECULE
2cep_HEM_A_1.pdb
 43 50 0 0 0
SMALL
GASTEIGER

@<TRIPOS>ATOM
      1 FE         -5.8710   56.8730   20.7750 Fe    296  HEM296      0.0000
      2  CHA       -5.3910   53.8690   22.1620 C.2   296  HEM296      0.0000
      3  CHB       -7.6530   57.9130   23.6310 C.2   296  HEM296      0.0000
      4  CHC       -6.0470   60.0110   19.5750 C.2   296  HEM296      0.0000
      5  CHD       -3.5460   56.0870   18.2820 C.2   296  HEM296      0.0000
      6  NA        -6.3770   56.0870   22.4730 N.2   296  HEM296      0.0000
      7  C1A       -6.1290   54.7590   22.8780 C.2   296  HEM296      0.0000
      8  C2A       -6.7360   54.5150   24.1750 C.2   296  HEM296      0.0000
      9  C3A       -7.3340   55.6500   24.5650 C.2   296  HEM296      0.0000
     10  C4A       -7.1490   56.6250   23.5320 C.2   296  HEM296      0.0000
     11  CMA       -8.1690   55.9070   25.8670 C.3   296  HEM296      0.0000
     12  CAA       -6.6500   53.1260   24.8890 C.2   296  HEM296      0.0000
     13  CBA       -5.4960   52.8880   25.8720 C.2   296  HEM296      0.0000
     14  CGA       -5.4100   51.5070   26.4640 C.2   296  HEM296      0.0000
     15  O1A       -6.2140   51.2080   27.4150 O.co2 296  HEM296      0.0000
     16  O2A       -4.5290   50.7280   26.0060 O.co2 296  HEM296      0.0000
     17  NB        -6.6360   58.6230   21.5010 N.ar  296  HEM296      0.0000
     18  C1B       -7.4270   58.7930   22.6010 C.ar  296  HEM296      0.0000
     19  C2B       -7.9960   60.1590   22.5610 C.ar  296  HEM296      0.0000
     20  C3B       -7.5610   60.7380   21.4590 C.ar  296  HEM296      0.0000
     21  C4B       -6.7030   59.7660   20.7510 C.ar  296  HEM296      0.0000
     22  CMB       -8.9750   60.6520   23.6640 C.3   296  HEM296      0.0000
     23  CAB       -7.8960   62.1130   20.8530 C.2   296  HEM296      0.0000
     24  CBB       -8.8100   62.9050   21.3970 C.2   296  HEM296      0.0000
     25  NC        -5.0400   57.8100   19.2550 N.2   296  HEM296      0.0000
     26  C1C       -5.1230   59.2000   18.9520 C.2   296  HEM296      0.0000
     27  C2C       -4.3370   59.5330   17.8000 C.2   296  HEM296      0.0000
     28  C3C       -3.6450   58.4200   17.5040 C.2   296  HEM296      0.0000
     29  C4C       -4.0410   57.3710   18.4000 C.2   296  HEM296      0.0000
     30  CMC       -4.1110   60.9250   17.1000 C.3   296  HEM296      0.0000
     31  CAC       -2.5350   58.2610   16.3990 C.3   296  HEM296      0.0000
     32  CBC       -2.7960   59.0720   15.3440 C.3   296  HEM296      0.0000
     33  ND        -4.6000   55.3110   20.3510 N.ar  296  HEM296      0.0000
     34  C1D       -3.9400   55.1300   19.1810 C.ar  296  HEM296      0.0000
     35  C2D       -3.6530   53.6890   19.0120 C.ar  296  HEM296      0.0000
     36  C3D       -4.2040   53.0680   20.0680 C.ar  296  HEM296      0.0000
     37  C4D       -4.7570   54.0690   20.9500 C.ar  296  HEM296      0.0000
     38  CMD       -2.9700   53.1570   17.7800 C.3   296  HEM296      0.0000
     39  CAD       -4.2140   51.5550   20.4150 C.3   296  HEM296      0.0000
     40  CBD       -3.0340   51.1350   21.2980 C.3   296  HEM296      0.0000
     41  CGD       -3.0310   49.6800   21.7450 C.2   296  HEM296      0.0000
     42  O1D       -2.2900   49.6350   22.7770 O.co2 296  HEM296      0.0000
     43  O2D       -3.6910   48.8350   21.0630 O.co2 296  HEM296      0.0000
@<TRIPOS>BOND
     1    32    31    1
     2    31    28    1
     3    30    27    1
     4    28    27    2
     5    28    29    1
     6    38    35    1
     7    27    26    1
     8     5    29    1
     9     5    34    2
    10    29    25    2
    11    26    25    1
    12    26     4    2
    13    35    34   ar
    14    35    36   ar
    15    34    33   ar
    16    25     1    1
    17     4    21    1
    18    36    39    1
    19    36    37   ar
    20    33     1    1
    21    33    37   ar
    22    39    40    1
    23    21    20   ar
    24    21    17   ar
    25     1    17    1
    26     1     6    1
    27    23    24    2
    28    23    20    1
    29    37     2    2
    30    43    41   ar
    31    40    41    1
    32    20    19   ar
    33    17    18   ar
    34    41    42   ar
    35     2     7    1
    36     6     7    2
    37     6    10    1
    38    19    18   ar
    39    19    22    1
    40    18     3    1
    41     7     8    1
    42    10     3    2
    43    10     9    1
    44     8     9    2
    45     8    12    1
    46     9    11    1
    47    12    13    2
    48    13    14    1
    49    16    14   ar
    50    14    15   ar
