@<TRIPOS>MOLECULE
2ceq_GIM_A_1.pdb
 14 15 0 0 0
SMALL
GASTEIGER

@<TRIPOS>ATOM
      1  C1       118.9130   38.7800   63.3850 C.ar  1492  GIM1492     0.1538
      2  C2       118.5790   37.6730   62.4380 C.3   1492  GIM1492     0.2405
      3  N10      119.9260   39.6620   63.2380 N.ar  1492  GIM1492    -0.3082
      4  C3       119.5740   37.6740   61.2740 C.3   1492  GIM1492     0.2215
      5  C4       119.9650   39.0960   60.8960 C.3   1492  GIM1492     0.2082
      6  C5       120.8360   39.6450   62.0510 C.3   1492  GIM1492     0.1525
      7  C6       121.4240   41.0210   61.7340 C.3   1492  GIM1492     0.2072
      8  C7       118.8620   40.1580   65.0820 C.ar  1492  GIM1492     0.1189
      9  C8       119.8950   40.5350   64.2560 C.ar  1492  GIM1492     0.0979
     10  N1       118.2650   39.0740   64.5300 N.ar  1492  GIM1492    -0.2266
     11  O3       118.9550   37.0080   60.1680 O.3   1492  GIM1492    -0.2171
     12  O2       118.6610   36.3960   63.0810 O.3   1492  GIM1492    -0.2121
     13  O4       120.6820   39.0350   59.6620 O.3   1492  GIM1492    -0.2182
     14  O6       120.3640   41.9800   61.6180 O.3   1492  GIM1492    -0.2182
@<TRIPOS>BOND
     1    13     5    1
     2    11     4    1
     3     5     4    1
     4     5     6    1
     5     4     2    1
     6    14     7    1
     7     7     6    1
     8     6     3    1
     9     2    12    1
    10     2     1    1
    11     3     1   ar
    12     3     9   ar
    13     1    10   ar
    14     9     8   ar
    15    10     8   ar
