@<TRIPOS>MOLECULE
2cer_PGI_A_1.pdb
 22 24 0 0 0
SMALL
GASTEIGER

@<TRIPOS>ATOM
      1  O6        61.9980  -69.5540    8.8200 O.3   1490  PGI1490    -0.2185
      2  C6        62.3810  -70.9020    9.0160 C.3   1490  PGI1490     0.2044
      3  C5        63.6920  -71.1720    8.3120 C.3   1490  PGI1490     0.1410
      4  C4        64.9100  -70.6240    9.0650 C.3   1490  PGI1490     0.2057
      5  O4        64.9150  -71.0990   10.4180 O.3   1490  PGI1490    -0.2184
      6  C3        66.2050  -71.0060    8.2880 C.3   1490  PGI1490     0.2222
      7  O3        67.4380  -70.6500    8.9610 O.3   1490  PGI1490    -0.2171
      8  C2        66.2060  -70.3660    6.9050 C.3   1490  PGI1490     0.2504
      9  O2        67.0040  -71.1800    6.0520 O.3   1490  PGI1490    -0.2111
     10  N1        63.6890  -70.5460    6.9690 N.pl3 1490  PGI1490    -0.2752
     11  C8        62.6400  -70.2110    6.2020 C.3   1490  PGI1490     0.1477
     12  C7        63.1330  -69.6510    5.0360 C.2   1490  PGI1490     0.1083
     13  N2        64.4810  -69.6560    5.1740 N.2   1490  PGI1490    -0.3957
     14  C1        64.8200  -70.1970    6.3540 C.2   1490  PGI1490     0.1929
     15  C9        62.3150  -69.0980    3.8420 C.3   1490  PGI1490     0.0609
     16  C10       62.5130  -67.5770    3.7060 C.3   1490  PGI1490     0.0335
     17  C14       62.0240  -66.9120    2.4140 C.ar  1490  PGI1490    -0.0218
     18  C13       62.0150  -65.5100    2.3620 C.ar  1490  PGI1490    -0.0043
     19  C12       61.5800  -64.8320    1.2190 C.ar  1490  PGI1490    -0.0003
     20  C15       61.5910  -67.6450    1.2920 C.ar  1490  PGI1490    -0.0043
     21  C16       61.1580  -66.9780    0.1470 C.ar  1490  PGI1490    -0.0003
     22  C11       61.1520  -65.5770    0.1120 C.ar  1490  PGI1490    -0.0000
@<TRIPOS>BOND
     1    22    21   ar
     2    22    19   ar
     3    21    20   ar
     4    19    18   ar
     5    20    17   ar
     6    18    17   ar
     7    17    16    1
     8    16    15    1
     9    15    12    1
    10    12    13    2
    11    12    11    1
    12    13    14    2
    13     9     8    1
    14    11    10    1
    15    14     8    1
    16    14    10    1
    17     8     6    1
    18    10     3    1
    19     6     7    1
    20     6     4    1
    21     3     2    1
    22     3     4    1
    23     1     2    1
    24     4     5    1
