@<TRIPOS>MOLECULE
2ces_GIM_A_1.pdb
 14 15 0 0 0
SMALL
GASTEIGER

@<TRIPOS>ATOM
      1  C1        -0.9700   10.9490   10.6440 C.ar  1447  GIM1447     0.1538
      2  C2         0.0720   11.7060    9.8090 C.3   1447  GIM1447     0.2405
      3  N10       -2.0430   10.3460   10.0900 N.ar  1447  GIM1447    -0.3082
      4  C3        -0.3360   11.8420    8.3180 C.3   1447  GIM1447     0.2215
      5  C4        -1.1040   10.5820    7.7780 C.3   1447  GIM1447     0.2082
      6  C5        -2.3680   10.4650    8.6550 C.3   1447  GIM1447     0.1525
      7  C6        -3.5330    9.5700    8.2970 C.3   1447  GIM1447     0.2072
      8  C7        -1.9560    9.9340   12.2890 C.ar  1447  GIM1447     0.1189
      9  C8        -2.6270    9.6300   11.0880 C.ar  1447  GIM1447     0.0979
     10  N1        -0.9020   10.7300   11.9630 N.ar  1447  GIM1447    -0.2266
     11  O3         0.8770   12.1430    7.5950 O.3   1447  GIM1447    -0.2171
     12  O2         0.6100   12.8660   10.4180 O.3   1447  GIM1447    -0.2121
     13  O4        -1.4750   10.7830    6.4060 O.3   1447  GIM1447    -0.2182
     14  O6        -2.9360    8.2870    8.5940 O.3   1447  GIM1447    -0.2182
@<TRIPOS>BOND
     1    13     5    1
     2    11     4    1
     3     5     4    1
     4     5     6    1
     5     7    14    1
     6     7     6    1
     7     4     2    1
     8     6     3    1
     9     2    12    1
    10     2     1    1
    11     3     1   ar
    12     3     9   ar
    13     1    10   ar
    14     9     8   ar
    15    10     8   ar
