@<TRIPOS>MOLECULE
2cet_PGI_A_1.pdb
 22 24 0 0 0
SMALL
GASTEIGER

@<TRIPOS>ATOM
      1  O6        -2.7750    8.0450    8.4800 O.3   1447  PGI1447    -0.2185
      2  C6        -3.2670    9.3630    8.2000 C.3   1447  PGI1447     0.2044
      3  C5        -2.3130   10.4730    8.6290 C.3   1447  PGI1447     0.1410
      4  C4        -1.1030   10.6420    7.6940 C.3   1447  PGI1447     0.2057
      5  O4        -1.5160   10.8410    6.3370 O.3   1447  PGI1447    -0.2184
      6  C3        -0.2660   11.8380    8.1920 C.3   1447  PGI1447     0.2222
      7  O3         0.8140   12.2110    7.3370 O.3   1447  PGI1447    -0.2171
      8  C2         0.3640   11.5580    9.5490 C.3   1447  PGI1447     0.2504
      9  O2         0.7430   12.7850   10.1550 O.3   1447  PGI1447    -0.2111
     10  N1        -1.7290   10.2150    9.9710 N.pl3 1447  PGI1447    -0.2752
     11  C8        -2.2130    9.4230   10.9420 C.3   1447  PGI1447     0.1477
     12  C7        -1.2870    9.4600   11.9730 C.2   1447  PGI1447     0.1083
     13  N2        -0.2800   10.2540   11.5880 N.2   1447  PGI1447    -0.3957
     14  C1        -0.5520   10.7170   10.3680 C.2   1447  PGI1447     0.1929
     15  C9        -1.3760    8.7660   13.3130 C.3   1447  PGI1447     0.0609
     16  C10       -0.0900    7.9790   13.5770 C.3   1447  PGI1447     0.0335
     17  C14        0.2210    6.8550   12.5880 C.ar  1447  PGI1447    -0.0218
     18  C13        1.1890    7.0310   11.5850 C.ar  1447  PGI1447    -0.0043
     19  C12        1.5000    6.0000   10.6790 C.ar  1447  PGI1447    -0.0003
     20  C15       -0.4210    5.6130   12.6800 C.ar  1447  PGI1447    -0.0043
     21  C16       -0.1050    4.5860   11.7730 C.ar  1447  PGI1447    -0.0003
     22  C11        0.8590    4.7600   10.7710 C.ar  1447  PGI1447    -0.0000
@<TRIPOS>BOND
     1     5     4    1
     2     7     6    1
     3     4     6    1
     4     4     3    1
     5     6     8    1
     6     2     1    1
     7     2     3    1
     8     3    10    1
     9     8     9    1
    10     8    14    1
    11    10    14    1
    12    10    11    1
    13    14    13    2
    14    19    22   ar
    15    19    18   ar
    16    22    21   ar
    17    11    12    1
    18    18    17   ar
    19    13    12    2
    20    21    20   ar
    21    12    15    1
    22    17    20   ar
    23    17    16    1
    24    15    16    1
