@<TRIPOS>MOLECULE
2cex_DAN_B_1.pdb
 20 20 0 0 0
SMALL
GASTEIGER

@<TRIPOS>ATOM
      1  C1        60.0290    5.2250   31.6300 C.2   1307  DAN1307     0.4208
      2  C2        59.9210    5.5850   30.2390 C.2   1307  DAN1307     0.2163
      3  C3        60.4480    6.7200   29.7340 C.2   1307  DAN1307     0.0518
      4  C4        60.1720    7.0940   28.3010 C.3   1307  DAN1307     0.2007
      5  C5        58.7190    6.6320   27.9480 C.3   1307  DAN1307     0.1722
      6  C6        58.5400    5.1230   28.2350 C.3   1307  DAN1307     0.2215
      7  C7        57.0920    4.5900   28.1780 C.3   1307  DAN1307     0.2261
      8  C8        57.0160    3.1590   28.7470 C.3   1307  DAN1307     0.2185
      9  C9        55.6390    2.5340   28.4890 C.3   1307  DAN1307     0.2175
     10  C10       57.4830    7.8430   26.1120 C.2   1307  DAN1307     0.2420
     11  C11       57.4020    7.9760   24.6210 C.3   1307  DAN1307     0.0964
     12  N5        58.3270    6.8870   26.5570 N.am  1307  DAN1307    -0.2004
     13  O1A       60.6640    4.2890   32.0610 O.co2 1307  DAN1307    -0.2371
     14  O1B       59.3500    5.8820   32.4270 O.co2 1307  DAN1307    -0.2371
     15  O4        60.3220    8.5310   28.2080 O.3   1307  DAN1307    -0.2162
     16  O6        59.0830    4.6810   29.4900 O.2   1307  DAN1307    -0.4684
     17  O7        56.1010    5.4730   28.7950 O.3   1307  DAN1307    -0.2164
     18  O8        58.0180    2.3020   28.1700 O.3   1307  DAN1307    -0.2174
     19  O9        55.0310    3.0030   27.2750 O.3   1307  DAN1307    -0.2175
     20  O10       56.8380    8.5810   26.8440 O.2   1307  DAN1307    -0.2733
@<TRIPOS>BOND
     1    11    10    1
     2    10    12   am
     3    10    20    2
     4    12     5    1
     5    19     9    1
     6     5     6    1
     7     5     4    1
     8    18     8    1
     9     7     6    1
    10     7     8    1
    11     7    17    1
    12    15     4    1
    13     6    16    1
    14     4     3    1
    15     9     8    1
    16    16     2    1
    17     3     2    2
    18     2     1    1
    19     1    13   ar
    20     1    14   ar
