@<TRIPOS>MOLECULE
2cf6_NAP_A_1.pdb
 48 52 0 0 0
SMALL
GASTEIGER

@<TRIPOS>ATOM
      1  PA        49.6230   32.9960   87.3780 P.3   450  NAP450      0.2189
      2  O1A       48.4220   32.1280   87.3870 O.3   450  NAP450     -0.4371
      3  O2A       49.7900   34.0050   86.3080 O.2   450  NAP450     -0.5170
      4  O5B       50.9010   31.9800   87.3230 O.3   450  NAP450     -0.3112
      5  C5B       51.1110   31.0830   86.1750 C.3   450  NAP450      0.1813
      6  C4B       50.5640   31.4320   84.7650 C.3   450  NAP450      0.1820
      7  O4B       51.5280   31.8220   83.7500 O.3   450  NAP450     -0.3136
      8  C3B       49.7720   30.2790   84.1500 C.3   450  NAP450      0.2157
      9  O3B       48.4210   30.7010   83.9540 O.3   450  NAP450     -0.2175
     10  C2B       50.4280   29.8670   82.8280 C.3   450  NAP450      0.2314
     11  O2B       49.4320   29.6960   81.7500 O.3   450  NAP450     -0.2630
     12  C1B       51.4460   30.9810   82.5820 C.3   450  NAP450      0.3158
     13  N9A       52.7800   30.4270   82.2270 N.pl3 450  NAP450     -0.1439
     14  C8A       53.6490   29.8110   83.0490 C.3   450  NAP450      0.3377
     15  N7A       54.7830   29.4950   82.4120 N.2   450  NAP450     -0.2095
     16  C5A       54.5800   29.9340   81.1810 C.2   450  NAP450      0.2526
     17  C6A       55.4870   29.8320   80.1320 C.2   450  NAP450      0.4393
     18  N6A       56.6960   29.3030   80.2870 N.pl3 450  NAP450      0.2180
     19  N1A       55.0800   30.3390   78.9470 N.2   450  NAP450      0.0021
     20  C2A       53.8770   30.9010   78.7970 C.3   450  NAP450      0.5254
     21  N3A       53.0170   30.9980   79.8120 N.2   450  NAP450     -0.0055
     22  C4A       53.3480   30.5180   81.0280 C.2   450  NAP450      0.3518
     23  O3        49.6430   33.7900   88.7980 O.3   450  NAP450     -0.2703
     24  PN        49.9840   35.2510   89.4760 P.3   450  NAP450      0.2189
     25  O1N       50.7460   34.9920   90.7210 O.3   450  NAP450     -0.4371
     26  O2N       48.6980   35.9660   89.6300 O.2   450  NAP450     -0.5170
     27  O5D       50.9260   36.1630   88.4930 O.3   450  NAP450     -0.3112
     28  C5D       52.2070   35.7280   87.9550 C.3   450  NAP450      0.1813
     29  C4D       53.5760   36.1460   88.5330 C.3   450  NAP450      0.1799
     30  O4D       53.8990   37.5620   88.5480 O.3   450  NAP450     -0.3327
     31  C3D       53.8170   35.6810   89.9590 C.3   450  NAP450      0.2158
     32  O3D       55.1510   35.1940   90.1690 O.3   450  NAP450     -0.2175
     33  C2D       53.4990   36.9060   90.7950 C.3   450  NAP450      0.2309
     34  O2D       54.1490   36.8720   92.0730 O.3   450  NAP450     -0.2158
     35  C1D       53.9320   38.0620   89.8990 C.3   450  NAP450      0.2263
     36  N1N       53.0500   39.2580   89.9920 N.pl3 450  NAP450     -0.2787
     37  C2N       53.5000   40.5100   89.5220 C.3   450  NAP450      0.1244
     38  C3N       52.6720   41.6330   89.6100 C.2   450  NAP450      0.0544
     39  C7N       53.1210   43.0200   89.1140 C.2   450  NAP450      0.2818
     40  O7N       54.2310   43.2000   88.6160 O.2   450  NAP450     -0.2670
     41  N7N       52.2320   44.0000   89.2590 N.am  450  NAP450     -0.0839
     42  C4N       51.4010   41.4860   90.1660 C.2   450  NAP450      0.0033
     43  C5N       50.9380   40.2590   90.6290 C.2   450  NAP450      0.0157
     44  C6N       51.7590   39.1410   90.5410 C.2   450  NAP450      0.0633
     45  P2B       49.6220   28.7180   80.3780 P.3   450  NAP450      0.5328
     46  O1X       48.2600   28.7690   79.8020 O.3   450  NAP450     -0.1145
     47  O2X       50.6030   29.1440   79.3500 O.2   450  NAP450     -0.2224
     48  O3X       49.8930   27.3450   80.8840 O.3   450  NAP450     -0.1145
@<TRIPOS>BOND
     1    20    19    1
     2    20    21    1
     3    19    17    2
     4    47    45    2
     5    46    45    1
     6    21    22    2
     7    17    18    1
     8    17    16    1
     9    45    48    1
    10    45    11    1
    11    22    16    1
    12    22    13    1
    13    16    15    2
    14    11    10    1
    15    13    12    1
    16    13    14    1
    17    15    14    1
    18    12    10    1
    19    12     7    1
    20    10     8    1
    21     7     6    1
    22     9     8    1
    23     8     6    1
    24     6     5    1
    25     5     4    1
    26     3     1    2
    27     4     1    1
    28     1     2    1
    29     1    23    1
    30    28    27    1
    31    28    29    1
    32    27    24    1
    33    29    30    1
    34    29    31    1
    35    30    35    1
    36    40    39    2
    37    23    24    1
    38    39    41   am
    39    39    38    1
    40    24    26    2
    41    24    25    1
    42    37    38    1
    43    37    36    1
    44    38    42    2
    45    35    36    1
    46    35    33    1
    47    31    32    1
    48    31    33    1
    49    36    44    1
    50    42    43    1
    51    44    43    2
    52    33    34    1
