@<TRIPOS>MOLECULE
2cf9_348_H_1.pdb
 33 37 0 0 0
SMALL
GASTEIGER

@<TRIPOS>ATOM
      1  N1        10.5790  -12.1500   24.1350 N.pl3 1247  3481247     0.2047
      2  C3        11.3620  -11.0830   23.9360 C.2   1247  3481247     0.4766
      3  N2        11.1250   -9.9770   24.6150 N.pl3 1247  3481247     0.2047
      4  C4        12.4910  -11.1410   22.9380 C.ar  1247  3481247     0.0975
      5  C9        12.7220  -12.3240   22.2230 C.ar  1247  3481247     0.0077
      6  C8        13.7750  -12.3820   21.3020 C.ar  1247  3481247    -0.0027
      7  C7        14.6080  -11.2840   21.0810 C.ar  1247  3481247    -0.0073
      8  C6        14.3670  -10.1020   21.7950 C.ar  1247  3481247    -0.0027
      9  C5        13.3120  -10.0380   22.7160 C.ar  1247  3481247     0.0077
     10  C10       15.7330  -11.3330   20.0920 C.3   1247  3481247     0.0888
     11  N11       15.5650  -12.3140   18.9750 N.3   1247  3481247    -0.2712
     12  C12       14.6770  -11.7870   17.9140 C.3   1247  3481247     0.0723
     13  C13       15.4920  -11.7650   16.6130 C.3   1247  3481247     0.0187
     14  C14       16.9550  -11.8290   17.0430 C.3   1247  3481247     0.0175
     15  C15       16.9100  -12.5340   18.3950 C.3   1247  3481247     0.0599
     16  C16       17.9300  -12.0660   19.4320 C.3   1247  3481247     0.0431
     17  C17       18.8760  -13.2080   19.8450 C.3   1247  3481247     0.0774
     18  N19       18.2860  -13.6200   21.1420 N.am  1247  3481247    -0.2770
     19  C20       17.3080  -12.8160   21.5770 C.2   1247  3481247     0.2271
     20  O21       16.6680  -13.0300   22.5990 O.2   1247  3481247    -0.2748
     21  C22       17.1340  -11.6350   20.6620 C.3   1247  3481247     0.0983
     22  C23       18.7650  -14.8600   21.7930 C.3   1247  3481247     0.1201
     23  C24       19.6430  -14.5080   22.9820 C.ar  1247  3481247    -0.0021
     24  C32       21.0250  -14.3920   22.8230 C.ar  1247  3481247     0.0005
     25  C31       21.8500  -14.0390   23.8980 C.ar  1247  3481247     0.0366
     26  C30       21.2810  -13.7970   25.1490 C.ar  1247  3481247     0.1387
     27  O29       22.0800  -13.4510   26.2110 O.3   1247  3481247    -0.4714
     28  C28       21.6130  -12.5490   27.2220 C.3   1247  3481247     0.2525
     29  C26       19.8990  -13.9220   25.3160 C.ar  1247  3481247     0.0366
     30  C25       19.0790  -14.2710   24.2430 C.ar  1247  3481247     0.0005
     31  C18       20.3550  -12.7350   19.9340 C.3   1247  3481247     0.0183
     32  C41       21.0120  -12.4660   18.5790 C.3   1247  3481247     0.0017
     33  C42       20.6080  -11.5310   20.8420 C.3   1247  3481247     0.0017
@<TRIPOS>BOND
     1    13    14    1
     2    13    12    1
     3    14    15    1
     4    12    11    1
     5    15    11    1
     6    15    16    1
     7    32    31    1
     8    11    10    1
     9    16    17    1
    10    16    21    1
    11    17    31    1
    12    17    18    1
    13    31    33    1
    14    10    21    1
    15    10     7    1
    16    21    19    1
    17     7     6   ar
    18     7     8   ar
    19    18    19   am
    20    18    22    1
    21     6     5   ar
    22    19    20    2
    23    22    23    1
    24     8     9   ar
    25     5     4   ar
    26     9     4   ar
    27    24    23   ar
    28    24    25   ar
    29     4     2    1
    30    23    30   ar
    31    25    26   ar
    32     2     1    2
    33     2     3    1
    34    30    29   ar
    35    26    29   ar
    36    26    27    1
    37    27    28    1
