@<TRIPOS>MOLECULE
2cfa_CME_A_1.pdb
 10 9 0 0 0
SMALL
GASTEIGER

@<TRIPOS>ATOM
      1  N         55.4340   -6.0480  108.7220 N.3   1218  CME1218    -0.1235
      2  CA        54.0720   -5.5140  108.6960 C.3   1218  CME1218     0.1677
      3  CB        54.0740   -3.9850  108.5640 C.3   1218  CME1218     0.0956
      4  SG        54.8620   -3.1940  109.9350 S.3   1218  CME1218    -0.0801
      5  SD        53.6410   -3.4770  111.4810 S.3   1218  CME1218    -0.0793
      6  CE        53.7970   -5.0120  112.3440 C.3   1218  CME1218     0.1041
      7  CZ        52.8200   -5.0370  113.5080 C.3   1218  CME1218     0.1946
      8  OH        51.5920   -5.6370  113.0680 O.3   1218  CME1218    -0.2194
      9  C         53.1990   -6.1260  107.6150 C.2   1218  CME1218     0.2270
     10  O         52.0600   -6.5070  107.8870 O.2   1218  CME1218    -0.2867
@<TRIPOS>BOND
     1     9    10    2
     2     9     2    1
     3     3     2    1
     4     3     4    1
     5     2     1    1
     6     4     5    1
     7     5     6    1
     8     6     7    1
     9     8     7    1
