@<TRIPOS>MOLECULE
2cfb_PLR_A_1.pdb
 15 15 0 0 0
SMALL
GASTEIGER

@<TRIPOS>ATOM
      1  N1        24.5280   87.6300   34.8140 N.2   1412  PLR1412    -0.2458
      2  C2        25.6880   87.9250   35.4940 C.2   1412  PLR1412     0.0942
      3  C2A       25.5760   88.1870   36.9820 C.3   1412  PLR1412     0.0552
      4  C3        26.9510   87.9600   34.7920 C.2   1412  PLR1412     0.1899
      5  O3        27.9960   88.2080   35.4070 O.2   1412  PLR1412    -0.2898
      6  C4        27.0460   87.6880   33.3920 C.3   1412  PLR1412     0.0852
      7  C4A       28.3260   87.7600   32.5510 C.3   1412  PLR1412     0.0127
      8  C5        25.8280   87.3960   32.7510 C.2   1412  PLR1412     0.0118
      9  C6        24.6050   87.3580   33.4570 C.2   1412  PLR1412     0.0929
     10  C5A       25.8480   87.1370   31.3010 C.3   1412  PLR1412     0.1779
     11  O4P       26.0340   85.7570   31.0550 O.3   1412  PLR1412    -0.2656
     12  P         26.7550   85.2430   29.7210 P.3   1412  PLR1412     0.5329
     13  O1P       27.0820   83.8430   30.0350 O.3   1412  PLR1412    -0.1145
     14  O2P       27.9040   86.1600   29.5670 O.3   1412  PLR1412    -0.1145
     15  O3P       25.7360   85.3890   28.6820 O.2   1412  PLR1412    -0.2224
@<TRIPOS>BOND
     1    15    12    2
     2    14    12    1
     3    12    13    1
     4    12    11    1
     5    11    10    1
     6    10     8    1
     7     7     6    1
     8     8     6    1
     9     8     9    2
    10     6     4    1
    11     9     1    1
    12     4     5    2
    13     4     2    1
    14     1     2    2
    15     2     3    1
