@<TRIPOS>MOLECULE
2cfc_KPC_A_1.pdb
 11 10 0 0 0
SMALL
GASTEIGER

@<TRIPOS>ATOM
      1  CAK       10.8060 -139.3720  103.6320 C.3   1252  KPC1252     0.0732
      2  CAJ       11.2590 -140.8320  103.5690 C.2   1252  KPC1252     0.1619
      3  OAC       12.0160 -141.2090  102.6730 O.2   1252  KPC1252    -0.2951
      4  CAI       10.7460 -141.8210  104.6180 C.3   1252  KPC1252     0.1218
      5  SAH       11.3260 -141.3820  106.2980 S.3   1252  KPC1252    -0.1306
      6  CAG       10.3010 -142.5030  107.3160 C.3   1252  KPC1252     0.0794
      7  CAF       10.6990 -143.9710  107.1500 C.3   1252  KPC1252     0.1169
      8  SAE        9.6530 -145.1100  108.1280 S.3   1252  KPC1252    -0.1951
      9  OAD        9.9130 -146.5130  107.6640 O.3   1252  KPC1252    -0.3075
     10  OAL        9.9890 -145.0000  109.5860 O.3   1252  KPC1252    -0.3075
     11  OAB        8.2080 -144.7700  107.9120 O.3   1252  KPC1252    -0.3075
@<TRIPOS>BOND
     1     3     2    2
     2     2     1    1
     3     2     4    1
     4     4     5    1
     5     5     6    1
     6     7     6    1
     7     7     8    1
     8     9     8    1
     9    11     8    1
    10     8    10    1
