@<TRIPOS>MOLECULE
2cfc_NAD_A_1.pdb
 44 48 0 0 0
SMALL
GASTEIGER

@<TRIPOS>ATOM
      1  PA        19.9070 -145.7910  112.4370 P.3   1251  NAD1251     0.2189
      2  O1A       20.1030 -147.1990  112.8470 O.3   1251  NAD1251    -0.4371
      3  O2A       18.5200 -145.2870  112.3200 O.2   1251  NAD1251    -0.5170
      4  O5B       20.7420 -144.8370  113.4290 O.3   1251  NAD1251    -0.3112
      5  C5B       20.2940 -143.5250  113.7880 C.3   1251  NAD1251     0.1813
      6  C4B       21.1840 -142.9990  114.9150 C.3   1251  NAD1251     0.1821
      7  O4B       20.7060 -141.7570  115.4660 O.3   1251  NAD1251    -0.3135
      8  C3B       21.1290 -144.0200  116.0540 C.3   1251  NAD1251     0.2184
      9  O3B       22.4650 -144.3770  116.4140 O.3   1251  NAD1251    -0.2174
     10  C2B       20.4300 -143.2460  117.1720 C.3   1251  NAD1251     0.2570
     11  O2B       20.9000 -143.6920  118.4460 O.3   1251  NAD1251    -0.2130
     12  C1B       20.9700 -141.8480  116.8740 C.3   1251  NAD1251     0.3186
     13  N9A       20.2430 -140.7980  117.6280 N.pl3 1251  NAD1251    -0.1439
     14  C8A       18.9210 -140.6380  117.6800 C.3   1251  NAD1251     0.3377
     15  N7A       18.6210 -139.5850  118.4380 N.2   1251  NAD1251    -0.2095
     16  C5A       19.7660 -139.0680  118.8720 C.2   1251  NAD1251     0.2526
     17  C6A       20.0980 -137.9770  119.6690 C.2   1251  NAD1251     0.4393
     18  N6A       19.1370 -137.2060  120.1700 N.pl3 1251  NAD1251     0.2180
     19  N1A       21.3910 -137.7130  119.9120 N.2   1251  NAD1251     0.0021
     20  C2A       22.3520 -138.4710  119.4070 C.3   1251  NAD1251     0.5254
     21  N3A       22.0710 -139.5130  118.6450 N.2   1251  NAD1251    -0.0055
     22  C4A       20.7990 -139.8390  118.3590 C.2   1251  NAD1251     0.3518
     23  O3        20.6540 -145.5560  111.0290 O.3   1251  NAD1251    -0.2703
     24  PN        20.1770 -144.4000  110.0150 P.3   1251  NAD1251     0.2189
     25  O1N       21.1850 -144.2800  108.9390 O.2   1251  NAD1251    -0.5170
     26  O2N       18.7660 -144.6360  109.6310 O.3   1251  NAD1251    -0.4371
     27  O5D       20.2160 -143.0650  110.9170 O.3   1251  NAD1251    -0.3112
     28  C5D       21.0650 -141.9520  110.6110 C.3   1251  NAD1251     0.1813
     29  C4D       20.4000 -140.9360  109.6770 C.3   1251  NAD1251     0.1799
     30  O4D       20.0420 -141.5050  108.4060 O.3   1251  NAD1251    -0.3327
     31  C3D       19.1180 -140.3200  110.2510 C.3   1251  NAD1251     0.2158
     32  O3D       19.2750 -138.9130  110.4580 O.3   1251  NAD1251    -0.2175
     33  C2D       18.0880 -140.5400  109.1420 C.3   1251  NAD1251     0.2309
     34  O2D       17.2050 -139.4220  109.0080 O.3   1251  NAD1251    -0.2158
     35  C1D       19.0150 -140.6210  107.9300 C.3   1251  NAD1251     0.2263
     36  N1N       18.3350 -141.1010  106.7070 N.pl3 1251  NAD1251    -0.2787
     37  C2N       17.8810 -142.4250  106.6230 C.3   1251  NAD1251     0.1244
     38  C3N       17.2010 -142.8470  105.4850 C.2   1251  NAD1251     0.0544
     39  C7N       16.6040 -144.2540  105.4180 C.2   1251  NAD1251     0.2818
     40  O7N       15.6740 -144.5860  104.4820 O.2   1251  NAD1251    -0.2670
     41  N7N       17.0420 -145.1350  106.3130 N.am  1251  NAD1251    -0.0839
     42  C4N       16.9900 -141.9530  104.4400 C.2   1251  NAD1251     0.0033
     43  C5N       17.4410 -140.6390  104.5160 C.2   1251  NAD1251     0.0157
     44  C6N       18.1150 -140.2040  105.6520 C.2   1251  NAD1251     0.0633
@<TRIPOS>BOND
     1    42    43    1
     2    42    38    2
     3    40    39    2
     4    43    44    2
     5    39    38    1
     6    39    41   am
     7    38    37    1
     8    44    36    1
     9    37    36    1
    10    36    35    1
    11    35    30    1
    12    35    33    1
    13    30    29    1
    14    25    24    2
    15    34    33    1
    16    33    31    1
    17    26    24    1
    18    29    31    1
    19    29    28    1
    20    24    27    1
    21    24    23    1
    22    31    32    1
    23    28    27    1
    24    23     1    1
    25     3     1    2
    26     1     2    1
    27     1     4    1
    28     4     5    1
    29     5     6    1
    30     6     7    1
    31     6     8    1
    32     7    12    1
    33     8     9    1
    34     8    10    1
    35    12    10    1
    36    12    13    1
    37    10    11    1
    38    13    14    1
    39    13    22    1
    40    14    15    1
    41    22    21    2
    42    22    16    1
    43    15    16    2
    44    21    20    1
    45    16    17    1
    46    20    19    1
    47    17    19    2
    48    17    18    1
