@<TRIPOS>MOLECULE
2cfi_ZZZ_A_1.pdb
 14 15 0 0 0
SMALL
GASTEIGER

@<TRIPOS>ATOM
      1  C7        31.7880   11.3830   17.4660 C.3   1311  ZZZ1311     0.1696
      2  N8        32.1210   12.6740   18.0640 N.2   1311  ZZZ1311    -0.2050
      3  C9        33.4060   13.0140   18.2590 C.1   1311  ZZZ1311     0.1270
      4  N1        33.7710   14.2890   18.4640 N.2   1311  ZZZ1311    -0.2683
      5  C2        35.0880   14.5950   18.6190 C.1   1311  ZZZ1311     0.2608
      6  N2        35.4450   15.8900   18.8560 N.pl3 1311  ZZZ1311    -0.0220
      7  C10       34.4410   11.9640   18.1430 C.2   1311  ZZZ1311     0.2467
      8  C4        35.8380   12.3870   18.3060 C.1   1311  ZZZ1311     0.2441
      9  N3        36.0660   13.6830   18.5360 N.2   1311  ZZZ1311    -0.2474
     10  O4        36.7950   11.5770   18.2280 O.2   1311  ZZZ1311    -0.2063
     11  N5        34.0550   10.6280   17.8970 N.2   1311  ZZZ1311    -0.2407
     12  C6        32.6410   10.2500   18.0300 C.3   1311  ZZZ1311     0.1940
     13  C6A       32.2140   10.1020   19.4790 C.2   1311  ZZZ1311     0.2335
     14  O6A       31.0550    9.6900   19.7130 O.2   1311  ZZZ1311    -0.2861
@<TRIPOS>BOND
     1     1    12    1
     2     1     2    1
     3    11    12    1
     4    11     7    2
     5    12    13    1
     6     2     3    2
     7     7     3    1
     8     7     8    1
     9    10     8    2
    10     3     4    2
    11     8     9    2
    12     4     5    2
    13     9     5    2
    14     5     6    1
    15    13    14    2
