@<TRIPOS>MOLECULE
2cfm_AMP_A_1.pdb
 23 25 0 0 0
SMALL
GASTEIGER

@<TRIPOS>ATOM
      1  P         44.7140    4.2150   -4.2880 P.3   1563  AMP1563     0.5327
      2  O1P       45.9710    4.8340   -4.7510 O.3   1563  AMP1563    -0.1145
      3  O2P       43.4600    4.7350   -4.9120 O.2   1563  AMP1563    -0.2224
      4  O3P       44.6310    3.9330   -2.8330 O.3   1563  AMP1563    -0.1145
      5  O5'       44.7940    2.7490   -4.9220 O.3   1563  AMP1563    -0.2675
      6  C5'       43.5940    2.0130   -5.2270 C.3   1563  AMP1563     0.1860
      7  C4'       42.8140    1.6890   -3.9590 C.3   1563  AMP1563     0.1823
      8  O4'       41.5700    1.0280   -4.3160 O.3   1563  AMP1563    -0.3135
      9  C3'       43.5070    0.7300   -3.0010 C.3   1563  AMP1563     0.2184
     10  O3'       44.2830    1.4670   -2.0590 O.3   1563  AMP1563    -0.2174
     11  C2'       42.3560   -0.0060   -2.2990 C.3   1563  AMP1563     0.2570
     12  O2'       41.9270    0.6140   -1.1120 O.3   1563  AMP1563    -0.2130
     13  C1'       41.2210    0.0790   -3.3240 C.3   1563  AMP1563     0.3186
     14  N9        40.8310   -1.1550   -3.9990 N.pl3 1563  AMP1563    -0.1439
     15  C8        39.5750   -1.7190   -4.0740 C.3   1563  AMP1563     0.3377
     16  N7        39.5200   -2.7890   -4.8290 N.2   1563  AMP1563    -0.2095
     17  C5        40.8230   -2.9440   -5.2790 C.2   1563  AMP1563     0.2526
     18  C6        41.4230   -3.8850   -6.1310 C.2   1563  AMP1563     0.4393
     19  N6        40.7430   -4.8460   -6.7540 N.pl3 1563  AMP1563     0.2180
     20  N1        42.7590   -3.7920   -6.3330 N.2   1563  AMP1563     0.0021
     21  C2        43.4280   -2.7930   -5.7440 C.3   1563  AMP1563     0.5254
     22  N3        42.9700   -1.8210   -4.9440 N.2   1563  AMP1563    -0.0055
     23  C4        41.6480   -1.9630   -4.7460 C.2   1563  AMP1563     0.3518
@<TRIPOS>BOND
     1    19    18    1
     2    20    18    2
     3    20    21    1
     4    18    17    1
     5    21    22    1
     6    17    16    2
     7    17    23    1
     8     6     5    1
     9     6     7    1
    10    22    23    2
    11     5     1    1
    12     3     1    2
    13    16    15    1
    14     2     1    1
    15    23    14    1
    16     8     7    1
    17     8    13    1
    18     1     4    1
    19    15    14    1
    20    14    13    1
    21     7     9    1
    22    13    11    1
    23     9    11    1
    24     9    10    1
    25    11    12    1
