@<TRIPOS>MOLECULE
2cfo_GLU_A_1.pdb
 10 9 0 0 0
SMALL
GASTEIGER

@<TRIPOS>ATOM
      1  N         -0.1840   -8.7090   37.4280 N.3   1486  GLU1486    -0.1208
      2  CA        -1.4860   -8.8940   36.7500 C.3   1486  GLU1486     0.1949
      3  C         -2.2830  -10.1330   37.2380 C.2   1486  GLU1486     0.3819
      4  O         -3.4820  -10.0510   37.5660 O.co2 1486  GLU1486    -0.2441
      5  CB        -1.3120   -8.9530   35.2350 C.3   1486  GLU1486     0.0424
      6  CG        -0.0750   -9.7240   34.7800 C.3   1486  GLU1486     0.1161
      7  CD        -0.4170  -10.8420   33.8260 C.2   1486  GLU1486     0.3649
      8  OE1       -0.7530  -11.9350   34.3060 O.co2 1486  GLU1486    -0.2457
      9  OE2       -0.3230  -10.6400   32.6060 O.co2 1486  GLU1486    -0.2457
     10  OXT       -1.7550  -11.2520   37.3100 O.co2 1486  GLU1486    -0.2441
@<TRIPOS>BOND
     1     9     7   ar
     2     7     8   ar
     3     7     6    1
     4     6     5    1
     5     5     2    1
     6     2     3    1
     7     2     1    1
     8     3    10   ar
     9     3     4   ar
