@<TRIPOS>MOLECULE
2cft_PLP_A_1.pdb
 16 16 0 0 0
SMALL
GASTEIGER

@<TRIPOS>ATOM
      1  N1        21.8520   19.9350   15.8200 N.ar  1296  PLP1296    -0.2452
      2  C2        21.6130   18.5900   15.6240 C.ar  1296  PLP1296     0.0982
      3  C2A       20.6010   18.1650   14.5910 C.3   1296  PLP1296     0.0555
      4  C3        22.2990   17.6210   16.3580 C.ar  1296  PLP1296     0.2120
      5  O3        21.9250   16.3020   16.3140 O.3   1296  PLP1296    -0.2852
      6  C4        23.2390   18.0140   17.3050 C.ar  1296  PLP1296     0.0822
      7  C4A       23.9530   16.9870   18.1470 C.2   1296  PLP1296     0.2372
      8  O4A       23.3460   15.9500   18.4430 O.2   1296  PLP1296    -0.2830
      9  C5        23.4970   19.3510   17.5130 C.ar  1296  PLP1296     0.0333
     10  C6        22.7930   20.3240   16.7810 C.ar  1296  PLP1296     0.0969
     11  C5A       24.2780   19.6350   18.7950 C.3   1296  PLP1296     0.1819
     12  O4P       24.2900   21.0170   19.0250 O.3   1296  PLP1296    -0.2653
     13  P         25.1980   21.6480   20.1720 P.3   1296  PLP1296     0.5329
     14  O1P       26.6120   21.1710   19.9440 O.3   1296  PLP1296    -0.1145
     15  O2P       24.6570   21.2580   21.5430 O.3   1296  PLP1296    -0.1145
     16  O3P       25.0990   23.1330   19.8690 O.2   1296  PLP1296    -0.2224
@<TRIPOS>BOND
     1     3     2    1
     2     2     1   ar
     3     2     4   ar
     4     1    10   ar
     5     5     4    1
     6     4     6   ar
     7    10     9   ar
     8     6     9   ar
     9     6     7    1
    10     9    11    1
    11     7     8    2
    12    11    12    1
    13    12    13    1
    14    16    13    2
    15    14    13    1
    16    13    15    1
