@<TRIPOS>MOLECULE
2cfu_1DB_A_1.pdb
 14 13 0 0 0
SMALL
GASTEIGER

@<TRIPOS>ATOM
      1  O3        38.4500   26.4580  168.5750 O.3   1655  1DB1655    -0.3075
      2  S         39.2510   26.5490  167.3330 S.3   1655  1DB1655    -0.1960
      3  O1        40.7400   26.6170  167.3200 O.3   1655  1DB1655    -0.3075
      4  O2        39.0840   25.2350  166.6550 O.3   1655  1DB1655    -0.3075
      5  C1        38.7030   27.9170  166.5440 C.3   1655  1DB1655     0.1052
      6  C2        39.7050   29.0700  166.6120 C.3   1655  1DB1655     0.0215
      7  C3        39.0810   30.3590  167.1490 C.3   1655  1DB1655     0.0017
      8  C4        39.1360   30.4020  168.6760 C.3   1655  1DB1655     0.0001
      9  C5        37.7680   30.7290  169.2730 C.3   1655  1DB1655     0.0000
     10  C6        37.7650   32.0430  170.0440 C.3   1655  1DB1655     0.0000
     11  C7        37.2870   33.2120  169.1850 C.3   1655  1DB1655     0.0000
     12  C8        36.5570   34.2530  170.0230 C.3   1655  1DB1655     0.0000
     13  C9        35.8010   35.2770  169.1810 C.3   1655  1DB1655     0.0000
     14  C10       35.3770   36.4610  170.0310 C.3   1655  1DB1655     0.0000
@<TRIPOS>BOND
     1     5     6    1
     2     5     2    1
     3     6     7    1
     4     4     2    1
     5     7     8    1
     6     3     2    1
     7     2     1    1
     8     8     9    1
     9    13    12    1
    10    13    14    1
    11    11    12    1
    12    11    10    1
    13     9    10    1
