@<TRIPOS>MOLECULE
2cfy_FAD_E_1.pdb
 33 35 0 0 0
SMALL
GASTEIGER

@<TRIPOS>ATOM
      1  PA        23.6300   87.5150   26.9640 P.3   600  FAD600      0.2189
      2  O1A       24.3690   88.7980   27.2290 O.2   600  FAD600     -0.5170
      3  O2A       22.3040   87.5140   27.6950 O.3   600  FAD600     -0.4371
      4  O5B       24.5440   86.2800   27.4300 O.3   600  FAD600     -0.3112
      5  C5B       25.9190   86.1980   27.1100 C.3   600  FAD600      0.1813
      6  C4B       26.5260   84.9920   27.8280 C.3   600  FAD600      0.1821
      7  O4B       27.7610   84.6330   27.2380 O.3   600  FAD600     -0.3135
      8  C3B       26.8030   85.2730   29.3020 C.3   600  FAD600      0.2184
      9  O3B       26.2360   84.2630   30.1040 O.3   600  FAD600     -0.2174
     10  C2B       28.3110   85.2620   29.4290 C.3   600  FAD600      0.2570
     11  O2B       28.7370   84.6780   30.6360 O.3   600  FAD600     -0.2130
     12  C1B       28.7300   84.4050   28.2500 C.3   600  FAD600      0.3186
     13  N9A       30.0840   84.6780   27.7350 N.pl3 600  FAD600     -0.1439
     14  C8A       30.6510   85.8930   27.4560 C.3   600  FAD600      0.3377
     15  N7A       31.9010   85.6730   26.9840 N.2   600  FAD600     -0.2095
     16  C5A       32.1310   84.3460   26.9490 C.2   600  FAD600      0.2526
     17  C6A       33.2280   83.5950   26.5550 C.2   600  FAD600      0.4393
     18  N6A       34.3300   84.1820   26.1020 N.pl3 600  FAD600      0.2180
     19  N1A       33.1620   82.2240   26.6460 N.2   600  FAD600      0.0021
     20  C2A       32.0230   81.5990   27.1190 C.3   600  FAD600      0.5254
     21  N3A       30.9380   82.3560   27.5050 N.2   600  FAD600     -0.0055
     22  C4A       30.9940   83.7070   27.4210 C.2   600  FAD600      0.3518
     23  C2'       18.6470   91.8080   27.9770 C.3   600  FAD600      0.0383
     24  C3'       19.5830   91.5770   26.7910 C.3   600  FAD600      0.1848
     25  O3'       19.1150   92.4010   25.7440 O.3   600  FAD600     -0.2203
     26  C4'       19.6490   90.0970   26.3560 C.3   600  FAD600      0.2119
     27  O4'       19.7810   89.2420   27.4820 O.3   600  FAD600     -0.2177
     28  C5'       20.7760   89.7670   25.3600 C.3   600  FAD600      0.1845
     29  O5'       21.1330   88.3870   25.4130 O.3   600  FAD600     -0.3111
     30  P         22.2250   87.6600   24.4460 P.3   600  FAD600      0.2189
     31  O1P       22.6410   88.5600   23.2970 O.2   600  FAD600     -0.5170
     32  O2P       21.6470   86.3450   23.9640 O.3   600  FAD600     -0.4371
     33  O3P       23.5040   87.2900   25.3670 O.3   600  FAD600     -0.2703
@<TRIPOS>BOND
     1    31    30    2
     2    32    30    1
     3    30    33    1
     4    30    29    1
     5    28    29    1
     6    28    26    1
     7    33     1    1
     8    25    24    1
     9    18    17    1
    10    26    24    1
    11    26    27    1
    12    17    19    2
    13    17    16    1
    14    19    20    1
    15    24    23    1
    16    16    15    2
    17    16    22    1
    18     1     2    2
    19     1     4    1
    20     1     3    1
    21    15    14    1
    22     5     4    1
    23     5     6    1
    24    20    21    1
    25     7     6    1
    26     7    12    1
    27    22    21    2
    28    22    13    1
    29    14    13    1
    30    13    12    1
    31     6     8    1
    32    12    10    1
    33     8    10    1
    34     8     9    1
    35    10    11    1
