@<TRIPOS>MOLECULE
2cfz_1DO_A_1.pdb
 13 12 0 0 0
SMALL
GASTEIGER

@<TRIPOS>ATOM
      1  O2S       39.5530   29.9640  169.6360 O.3   1655  1DO1655    -0.2204
      2  C1        39.0430   31.1470  170.2700 C.3   1655  1DO1655     0.1821
      3  C2        37.7010   30.8480  170.9480 C.3   1655  1DO1655     0.0355
      4  C3        36.9300   32.1340  171.2990 C.3   1655  1DO1655     0.0027
      5  C4        36.0680   32.6790  170.1510 C.3   1655  1DO1655     0.0001
      6  C5        34.7580   31.9200  169.9780 C.3   1655  1DO1655     0.0000
      7  C6        33.5520   32.8500  169.9450 C.3   1655  1DO1655     0.0000
      8  C7        32.2690   32.0490  170.1490 C.3   1655  1DO1655     0.0000
      9  C8        31.4400   32.5740  171.3090 C.3   1655  1DO1655     0.0000
     10  C9        29.9910   32.1320  171.1650 C.3   1655  1DO1655     0.0000
     11  C10       29.0360   33.3130  171.1510 C.3   1655  1DO1655     0.0000
     12  C11       28.3120   33.4480  169.8170 C.3   1655  1DO1655     0.0000
     13  C12       28.0440   34.9070  169.5100 C.3   1655  1DO1655     0.0000
@<TRIPOS>BOND
     1    13    12    1
     2     1     2    1
     3    12    11    1
     4     7     6    1
     5     7     8    1
     6     6     5    1
     7     8     9    1
     8     5     4    1
     9     2     3    1
    10     3     4    1
    11    11    10    1
    12    10     9    1
