@<TRIPOS>MOLECULE
2cg5_COA_A_1.pdb
 38 40 0 0 0
SMALL
GASTEIGER

@<TRIPOS>ATOM
      1  N1A      -30.0320   14.6910   19.0350 N.2   1300  COA1300     0.0021
      2  C2A      -30.4540   15.1330   17.7970 C.3   1300  COA1300     0.5254
      3  N3A      -29.8340   14.6660   16.6570 N.2   1300  COA1300    -0.0055
      4  C4A      -28.8350   13.7850   16.7960 C.2   1300  COA1300     0.3518
      5  C5A      -28.3750   13.3490   18.0230 C.2   1300  COA1300     0.2526
      6  C6A      -28.9820   13.8050   19.1600 C.2   1300  COA1300     0.4393
      7  N6A      -28.4440   13.5500   20.3500 N.pl3 1300  COA1300     0.2180
      8  N7A      -27.3570   12.4890   17.8200 N.2   1300  COA1300    -0.2095
      9  C8A      -27.1700   12.3680   16.4820 C.3   1300  COA1300     0.3377
     10  N9A      -28.0940   13.1810   15.8550 N.pl3 1300  COA1300    -0.1439
     11  C1B      -28.3510   13.4110   14.4420 C.3   1300  COA1300     0.3185
     12  C2B      -27.1080   13.1010   13.6240 C.3   1300  COA1300     0.2543
     13  O2B      -26.9810   14.0080   12.5380 O.3   1300  COA1300    -0.2131
     14  C3B      -27.4430   11.7040   13.2160 C.3   1300  COA1300     0.1928
     15  O3B      -26.9250   11.4440   11.9920 O.3   1300  COA1300    -0.2673
     16  P3B      -25.6940   10.5120   11.9240 P.3   1300  COA1300     0.5327
     17  O7A      -25.8910    9.4240   12.9500 O.3   1300  COA1300    -0.1145
     18  O8A      -25.6860    9.9700   10.5020 O.2   1300  COA1300    -0.2224
     19  O9A      -24.4160   11.2570   12.1050 O.3   1300  COA1300    -0.1145
     20  C4B      -28.9360   11.7170   13.0460 C.3   1300  COA1300     0.1795
     21  O4B      -29.4030   12.5460   14.0820 O.3   1300  COA1300    -0.3136
     22  C5B      -29.5180   10.3100   13.0750 C.3   1300  COA1300     0.1812
     23  O5B      -30.9010   10.4770   13.3070 O.3   1300  COA1300    -0.3112
     24  P1A      -31.9650    9.4600   12.6540 P.3   1300  COA1300     0.2189
     25  O1A      -31.5610    9.0200   11.2720 O.2   1300  COA1300    -0.5170
     26  O2A      -33.3250   10.1150   12.7330 O.3   1300  COA1300    -0.4371
     27  O3A      -31.5800    8.2090   13.6290 O.3   1300  COA1300    -0.2703
     28  P2A      -32.4770    7.7430   14.8890 P.3   1300  COA1300     0.2188
     29  O4A      -33.8610    8.3990   15.0210 O.3   1300  COA1300    -0.4371
     30  O5A      -32.6740    6.2620   14.7450 O.2   1300  COA1300    -0.5170
     31  O6A      -31.4290    8.0670   16.0770 O.3   1300  COA1300    -0.3138
     32  CBP      -30.0420    9.4310   17.4560 C.3   1300  COA1300     0.0559
     33  CCP      -31.4600    9.2120   16.9120 C.3   1300  COA1300     0.1514
     34  CDP      -28.9650    9.4760   16.3600 C.3   1300  COA1300     0.0051
     35  CEP      -30.1040   10.6510   18.3770 C.3   1300  COA1300     0.0051
     36  CAP      -29.6200    8.2690   18.3170 C.3   1300  COA1300     0.1543
     37  OAP      -28.2660    8.4750   18.7110 O.3   1300  COA1300    -0.2231
     38  C9P      -30.6070    8.2420   19.4500 C.3   1300  COA1300     0.0356
@<TRIPOS>BOND
     1    18    16    2
     2    25    24    2
     3    16    15    1
     4    16    19    1
     5    16    17    1
     6    15    14    1
     7    13    12    1
     8    24    26    1
     9    24    23    1
    10    24    27    1
    11    20    22    1
    12    20    14    1
    13    20    21    1
    14    22    23    1
    15    14    12    1
    16    12    11    1
    17    27    28    1
    18    21    11    1
    19    11    10    1
    20    30    28    2
    21    28    29    1
    22    28    31    1
    23    10     9    1
    24    10     4    1
    25    31    33    1
    26    34    32    1
    27     9     8    1
    28     3     4    2
    29     3     2    1
    30     4     5    1
    31    33    32    1
    32    32    36    1
    33    32    35    1
    34     2     1    1
    35     8     5    2
    36     5     6    1
    37    36    37    1
    38    36    38    1
    39     1     6    2
    40     6     7    1
