@<TRIPOS>MOLECULE
2cg9_ATP_A_1.pdb
 31 33 0 0 0
SMALL
GASTEIGER

@<TRIPOS>ATOM
      1  PG      -148.4420  -57.2510   30.5100 P.3   1678  ATP1678     0.5373
      2  O1G     -148.5470  -55.8740   29.8730 O.2   1678  ATP1678    -0.2221
      3  O2G     -148.9120  -57.3970   31.9400 O.3   1678  ATP1678    -0.1143
      4  O3G     -147.1520  -57.9600   30.2460 O.3   1678  ATP1678    -0.1143
      5  PB      -150.8260  -57.4520   29.3130 P.3   1678  ATP1678     0.2277
      6  O1B     -150.4480  -56.1890   28.5700 O.2   1678  ATP1678    -0.5168
      7  O2B     -151.7760  -58.4650   28.7410 O.3   1678  ATP1678    -0.4368
      8  O3B     -149.4670  -58.1610   29.7070 O.3   1678  ATP1678    -0.2258
      9  PA      -152.0540  -55.6110   30.8080 P.3   1678  ATP1678     0.2189
     10  O1A     -150.9000  -54.6710   30.5950 O.2   1678  ATP1678    -0.5170
     11  O2A     -152.9070  -55.4580   32.0460 O.3   1678  ATP1678    -0.4371
     12  O3A     -151.4040  -57.0560   30.7370 O.3   1678  ATP1678    -0.2700
     13  O5'     -152.9770  -55.7320   29.4960 O.3   1678  ATP1678    -0.3112
     14  C5'     -154.0290  -56.6860   29.3670 C.3   1678  ATP1678     0.1813
     15  C4'     -155.2470  -55.9560   28.8160 C.3   1678  ATP1678     0.1821
     16  O4'     -155.0530  -54.5410   28.7990 O.3   1678  ATP1678    -0.3135
     17  C3'     -155.5890  -56.2960   27.3810 C.3   1678  ATP1678     0.2184
     18  O3'     -156.4870  -57.4130   27.3730 O.3   1678  ATP1678    -0.2174
     19  C2'     -156.2500  -55.0330   26.8460 C.3   1678  ATP1678     0.2570
     20  O2'     -157.6740  -55.1320   26.9300 O.3   1678  ATP1678    -0.2130
     21  C1'     -155.8580  -53.9170   27.7910 C.3   1678  ATP1678     0.3186
     22  N9      -155.0990  -52.8140   27.1430 N.pl3 1678  ATP1678    -0.1439
     23  C8      -153.9370  -52.2990   27.6080 C.3   1678  ATP1678     0.3377
     24  N7      -153.4660  -51.2910   26.8280 N.2   1678  ATP1678    -0.2095
     25  C5      -154.3470  -51.1430   25.8220 C.2   1678  ATP1678     0.2526
     26  C6      -154.4620  -50.2600   24.6320 C.2   1678  ATP1678     0.4393
     27  N6      -153.5240  -49.3240   24.3600 N.pl3 1678  ATP1678     0.2180
     28  N1      -155.5410  -50.4200   23.8320 N.2   1678  ATP1678     0.0021
     29  C2      -156.4830  -51.3520   24.0880 C.3   1678  ATP1678     0.5254
     30  N3      -156.4420  -52.1910   25.1460 N.2   1678  ATP1678    -0.0055
     31  C4      -155.4250  -52.1370   26.0390 C.2   1678  ATP1678     0.3518
@<TRIPOS>BOND
     1    28    29    1
     2    28    26    2
     3    29    30    1
     4    27    26    1
     5    26    25    1
     6    30    31    2
     7    25    31    1
     8    25    24    2
     9    31    22    1
    10    24    23    1
    11    19    20    1
    12    19    17    1
    13    19    21    1
    14    22    23    1
    15    22    21    1
    16    18    17    1
    17    17    15    1
    18    21    16    1
    19     6     5    2
    20     7     5    1
    21    16    15    1
    22    15    14    1
    23     5     8    1
    24     5    12    1
    25    14    13    1
    26    13     9    1
    27     8     1    1
    28     2     1    2
    29     4     1    1
    30     1     3    1
    31    10     9    2
    32    12     9    1
    33     9    11    1
