@<TRIPOS>MOLECULE
2cgf_P2N_A_1.pdb
 23 24 0 0 0
SMALL
GASTEIGER

@<TRIPOS>ATOM
      1  C1       -18.2190   34.3800   -6.0990 C.2   1214  P2N1214     0.3441
      2  C2       -18.1900   33.4980   -4.8780 C.ar  1214  P2N1214     0.1119
      3  C3       -17.2660   32.4460   -4.8280 C.ar  1214  P2N1214     0.2048
      4  C4       -17.2280   31.5870   -3.7330 C.ar  1214  P2N1214     0.0851
      5  C5       -18.1340   31.7990   -2.7030 C.ar  1214  P2N1214     0.2090
      6  C6       -19.0290   32.8350   -2.7570 C.ar  1214  P2N1214     0.0933
      7  C7       -19.0900   33.6870   -3.8500 C.ar  1214  P2N1214     0.0083
      8  C8       -20.1050   34.8210   -3.8800 C.3   1214  P2N1214     0.0920
      9  C9       -21.5320   34.4120   -4.3000 C.2   1214  P2N1214     0.1554
     10  C10      -21.9440   32.9920   -4.7090 C.3   1214  P2N1214     0.0695
     11  C11      -23.3330   32.8690   -5.3490 C.3   1214  P2N1214     0.0335
     12  C12      -23.4590   31.7980   -6.4340 C.2   1214  P2N1214    -0.0303
     13  C13      -22.9590   32.1430   -7.8560 C.2   1214  P2N1214    -0.0307
     14  C14      -22.4020   33.5330   -8.1750 C.3   1214  P2N1214     0.0258
     15  C15      -21.1360   33.5520   -8.5580 C.3   1214  P2N1214     0.0085
     16  C16      -20.2980   34.7510   -8.9350 C.3   1214  P2N1214     0.0478
     17  C17      -19.6770   35.5220   -7.7640 C.3   1214  P2N1214     0.2088
     18  O1       -19.5220   34.7070   -6.5990 O.3   1214  P2N1214    -0.4454
     19  O2       -17.2250   34.7300   -6.7120 O.2   1214  P2N1214    -0.2448
     20  O3       -16.3960   32.2760   -5.8640 O.3   1214  P2N1214    -0.2862
     21  O4       -18.1560   30.9810   -1.6260 O.3   1214  P2N1214    -0.2856
     22 CL1       -20.1290   33.0530   -1.3780 Cl    1214  P2N1214    -0.0792
     23  O5       -22.3390   35.3080   -4.2800 O.2   1214  P2N1214    -0.2957
@<TRIPOS>BOND
     1    16    15    1
     2    16    17    1
     3    15    14    1
     4    14    13    1
     5    13    12    2
     6    17    18    1
     7    19     1    2
     8    18     1    1
     9    12    11    1
    10     1     2    1
    11    20     3    1
    12    11    10    1
    13     2     3   ar
    14     2     7   ar
    15     3     4   ar
    16    10     9    1
    17     9    23    2
    18     9     8    1
    19     8     7    1
    20     7     6   ar
    21     4     5   ar
    22     6     5   ar
    23     6    22    1
    24     5    21    1
