@<TRIPOS>MOLECULE
2cgj_LFR_A_1.pdb
 12 12 0 0 0
SMALL
GASTEIGER

@<TRIPOS>ATOM
      1  C1        63.4650   70.8280   19.7480 C.3   1481  LFR1481     0.2434
      2  C2        63.3420   71.3270   21.1900 C.3   1481  LFR1481     0.2807
      3  C3        61.8790   71.3820   21.6510 C.3   1481  LFR1481     0.2409
      4  C4        62.0920   71.4020   23.1570 C.3   1481  LFR1481     0.2168
      5  C5        63.1040   70.2550   23.2650 C.3   1481  LFR1481     0.1836
      6  C6        63.9580   70.2350   24.5580 C.3   1481  LFR1481     0.2142
      7  O1        64.8260   70.5000   19.4530 O.3   1481  LFR1481    -0.2148
      8  O2        63.9460   72.6080   21.3060 O.3   1481  LFR1481    -0.1896
      9  O3        61.2530   72.5830   21.1920 O.3   1481  LFR1481    -0.2149
     10  O4        60.8940   71.0730   23.8510 O.3   1481  LFR1481    -0.2175
     11  O5        63.9940   70.4380   22.1130 O.3   1481  LFR1481    -0.3253
     12  O6        64.5480   71.5170   24.7970 O.3   1481  LFR1481    -0.2176
@<TRIPOS>BOND
     1     7     1    1
     2     1     2    1
     3     2     8    1
     4     2     3    1
     5     2    11    1
     6     9     3    1
     7     3     4    1
     8    11     5    1
     9     4     5    1
    10     4    10    1
    11     5     6    1
    12     6    12    1
