@<TRIPOS>MOLECULE
2cgj_ADP_A_1.pdb
 27 29 0 0 0
SMALL
GASTEIGER

@<TRIPOS>ATOM
      1  PB        67.5650   67.9140   15.3010 P.3   1482  ADP1482     0.5373
      2  O1B       66.7250   67.5120   16.4870 O.3   1482  ADP1482    -0.1143
      3  O2B       68.9580   67.3190   15.2650 O.3   1482  ADP1482    -0.1143
      4  O3B       67.5740   69.3960   15.0090 O.2   1482  ADP1482    -0.2221
      5  PA        66.9070   67.4570   12.5270 P.3   1482  ADP1482     0.2231
      6  O1A       68.3350   67.7400   12.1270 O.2   1482  ADP1482    -0.5169
      7  O2A       65.8440   68.4770   12.1670 O.3   1482  ADP1482    -0.4370
      8  O3A       66.7970   67.1520   14.1070 O.3   1482  ADP1482    -0.2261
      9  O5'       66.4700   66.0370   11.9040 O.3   1482  ADP1482    -0.3111
     10  C5'       67.0930   64.8120   12.2850 C.3   1482  ADP1482     0.1813
     11  C4'       66.1810   63.6710   11.8490 C.3   1482  ADP1482     0.1821
     12  O4'       65.8790   63.8000   10.4600 O.3   1482  ADP1482    -0.3135
     13  C3'       66.8000   62.2880   11.9960 C.3   1482  ADP1482     0.2184
     14  O3'       66.4240   61.6800   13.2280 O.3   1482  ADP1482    -0.2174
     15  C2'       66.2070   61.4890   10.8580 C.3   1482  ADP1482     0.2570
     16  O2'       65.1450   60.6560   11.3260 O.3   1482  ADP1482    -0.2130
     17  C1'       65.6440   62.5160    9.8910 C.3   1482  ADP1482     0.3186
     18  N9        66.3610   62.3970    8.6020 N.pl3 1482  ADP1482    -0.1439
     19  C8        67.5910   62.8810    8.3320 C.3   1482  ADP1482     0.3377
     20  N7        67.9600   62.5940    7.0550 N.2   1482  ADP1482    -0.2095
     21  C5        66.9490   61.9020    6.4920 C.2   1482  ADP1482     0.2526
     22  C6        66.6730   61.3030    5.1680 C.2   1482  ADP1482     0.4393
     23  N6        67.5800   61.3750    4.1650 N.pl3 1482  ADP1482     0.2180
     24  N1        65.4870   60.6810    4.9920 N.2   1482  ADP1482     0.0021
     25  C2        64.5660   60.6000    5.9740 C.3   1482  ADP1482     0.5254
     26  N3        64.7500   61.1230    7.2000 N.2   1482  ADP1482    -0.0055
     27  C4        65.8970   61.7750    7.5150 C.2   1482  ADP1482     0.3518
@<TRIPOS>BOND
     1    23    22    1
     2    24    22    2
     3    24    25    1
     4    22    21    1
     5    25    26    1
     6    21    20    2
     7    21    27    1
     8    20    19    1
     9    26    27    2
    10    27    18    1
    11    19    18    1
    12    18    17    1
    13    17    12    1
    14    17    15    1
    15    12    11    1
    16    15    16    1
    17    15    13    1
    18    11    13    1
    19    11    10    1
    20     9    10    1
    21     9     5    1
    22    13    14    1
    23     6     5    2
    24     7     5    1
    25     5     8    1
    26     8     1    1
    27     4     1    2
    28     3     1    1
    29     1     2    1
