@<TRIPOS>MOLECULE
2cgl_LFR_A_1.pdb
 12 12 0 0 0
SMALL
GASTEIGER

@<TRIPOS>ATOM
      1  C1        62.1660   70.3100   19.7360 C.3   1481  LFR1481     0.2434
      2  C2        61.9680   70.8930   21.1750 C.3   1481  LFR1481     0.2807
      3  C3        60.4970   70.9780   21.6410 C.3   1481  LFR1481     0.2409
      4  C4        60.6740   70.9990   23.1410 C.3   1481  LFR1481     0.2168
      5  C5        61.7760   69.8950   23.2890 C.3   1481  LFR1481     0.1836
      6  C6        62.6380   69.9830   24.5310 C.3   1481  LFR1481     0.2142
      7  O1        63.5940   70.3270   19.4660 O.3   1481  LFR1481    -0.2148
      8  O2        62.5510   72.2120   21.2800 O.3   1481  LFR1481    -0.1896
      9  O3        59.8190   72.1620   21.1160 O.3   1481  LFR1481    -0.2149
     10  O4        59.4560   70.6420   23.8260 O.3   1481  LFR1481    -0.2175
     11  O5        62.6720   70.0390   22.0860 O.3   1481  LFR1481    -0.3253
     12  O6        63.1530   71.2960   24.7070 O.3   1481  LFR1481    -0.2176
@<TRIPOS>BOND
     1     7     1    1
     2     1     2    1
     3     9     3    1
     4     2     8    1
     5     2     3    1
     6     2    11    1
     7     3     4    1
     8    11     5    1
     9     4     5    1
    10     4    10    1
    11     5     6    1
    12     6    12    1
