@<TRIPOS>MOLECULE
2cgl_ADP_A_1.pdb
 27 29 0 0 0
SMALL
GASTEIGER

@<TRIPOS>ATOM
      1  PB        66.3090   67.5990   15.2510 P.3   1482  ADP1482     0.5373
      2  O1B       65.4200   67.2230   16.3760 O.3   1482  ADP1482    -0.1143
      3  O2B       67.7230   66.9810   15.3030 O.3   1482  ADP1482    -0.1143
      4  O3B       66.4320   69.0640   14.8810 O.2   1482  ADP1482    -0.2221
      5  PA        65.5470   67.1600   12.4370 P.3   1482  ADP1482     0.2231
      6  O1A       66.9700   67.4610   11.9620 O.2   1482  ADP1482    -0.5169
      7  O2A       64.4310   68.1550   12.0770 O.3   1482  ADP1482    -0.4370
      8  O3A       65.5740   66.8270   14.0180 O.3   1482  ADP1482    -0.2261
      9  O5'       64.9520   65.7390   11.9510 O.3   1482  ADP1482    -0.3111
     10  C5'       65.7120   64.5730   12.2630 C.3   1482  ADP1482     0.1813
     11  C4'       64.8810   63.3860   11.8070 C.3   1482  ADP1482     0.1821
     12  O4'       64.6100   63.5030   10.4450 O.3   1482  ADP1482    -0.3135
     13  C3'       65.6400   62.0640   11.8700 C.3   1482  ADP1482     0.2184
     14  O3'       65.4290   61.4730   13.1280 O.3   1482  ADP1482    -0.2174
     15  C2'       64.8820   61.2100   10.8500 C.3   1482  ADP1482     0.2570
     16  O2'       63.7910   60.5230   11.4820 O.3   1482  ADP1482    -0.2130
     17  C1'       64.3420   62.2130    9.8540 C.3   1482  ADP1482     0.3186
     18  N9        65.0950   62.0600    8.5720 N.pl3 1482  ADP1482    -0.1439
     19  C8        66.3520   62.4670    8.3350 C.3   1482  ADP1482     0.3377
     20  N7        66.7630   62.1730    7.0600 N.2   1482  ADP1482    -0.2095
     21  C5        65.7260   61.5480    6.4770 C.2   1482  ADP1482     0.2526
     22  C6        65.4680   60.9720    5.1470 C.2   1482  ADP1482     0.4393
     23  N6        66.4240   61.0200    4.1890 N.pl3 1482  ADP1482     0.2180
     24  N1        64.2690   60.4310    4.9320 N.2   1482  ADP1482     0.0021
     25  C2        63.3130   60.3600    5.8800 C.3   1482  ADP1482     0.5254
     26  N3        63.4670   60.8760    7.1180 N.2   1482  ADP1482    -0.0055
     27  C4        64.6350   61.4640    7.4640 C.2   1482  ADP1482     0.3518
@<TRIPOS>BOND
     1    23    22    1
     2    24    22    2
     3    24    25    1
     4    22    21    1
     5    25    26    1
     6    21    20    2
     7    21    27    1
     8    20    19    1
     9    26    27    2
    10    27    18    1
    11    19    18    1
    12    18    17    1
    13    17    12    1
    14    17    15    1
    15    12    11    1
    16    15    16    1
    17    15    13    1
    18    11    13    1
    19    11    10    1
    20    13    14    1
    21     9    10    1
    22     9     5    1
    23     6     5    2
    24     7     5    1
    25     5     8    1
    26     8     1    1
    27     4     1    2
    28     1     3    1
    29     1     2    1
