@<TRIPOS>MOLECULE
2cgp_CMP_A_1.pdb
 22 25 0 0 0
SMALL
GASTEIGER

@<TRIPOS>ATOM
      1  P        -17.7680   48.1810   16.1850 P.3   621  CMP621      0.2141
      2  O1P      -17.2310   47.6410   17.4400 O.3   621  CMP621     -0.4373
      3  O2P      -17.7480   49.6380   15.9420 O.2   621  CMP621     -0.5172
      4  O5'      -17.0040   47.4070   15.0200 O.3   621  CMP621     -0.3114
      5  C5'      -17.2790   46.0240   14.7500 C.3   621  CMP621      0.1812
      6  C4'      -18.7580   45.8490   14.6230 C.3   621  CMP621      0.1793
      7  O4'      -19.1680   44.4750   14.4390 O.3   621  CMP621     -0.3136
      8  C3'      -19.4330   46.2200   15.9170 C.3   621  CMP621      0.1884
      9  O3'      -19.2690   47.6190   16.0410 O.3   621  CMP621     -0.3111
     10  C2'      -20.8090   45.6430   15.6960 C.3   621  CMP621      0.2541
     11  O2'      -21.5220   46.3960   14.7450 O.3   621  CMP621     -0.2131
     12  C1'      -20.4330   44.2950   15.0730 C.3   621  CMP621      0.3185
     13  N9       -20.3050   43.2380   16.0760 N.pl3 621  CMP621     -0.1439
     14  C8       -19.3120   43.0220   17.0040 C.3   621  CMP621      0.3377
     15  N7       -19.5130   41.9590   17.7500 N.2   621  CMP621     -0.2095
     16  C5       -20.7170   41.4450   17.2770 C.2   621  CMP621      0.2526
     17  C6       -21.4820   40.3180   17.6400 C.2   621  CMP621      0.4393
     18  N6       -21.1560   39.4740   18.6250 N.pl3 621  CMP621      0.2180
     19  N1       -22.6180   40.0930   16.9540 N.2   621  CMP621      0.0021
     20  C2       -22.9680   40.9470   15.9970 C.3   621  CMP621      0.5254
     21  N3       -22.3500   42.0340   15.5720 N.2   621  CMP621     -0.0055
     22  C4       -21.2140   42.2270   16.2570 C.2   621  CMP621      0.3518
@<TRIPOS>BOND
     1     7     6    1
     2     7    12    1
     3     6     5    1
     4     6     8    1
     5    11    10    1
     6     5     4    1
     7     4     1    1
     8    12    10    1
     9    12    13    1
    10    21    20    1
    11    21    22    2
    12    10     8    1
    13     8     9    1
    14     3     1    2
    15    20    19    1
    16     9     1    1
    17    13    22    1
    18    13    14    1
    19     1     2    1
    20    22    16    1
    21    19    17    2
    22    14    15    1
    23    16    17    1
    24    16    15    2
    25    17    18    1
