@<TRIPOS>MOLECULE
2cgr_GAS_H_1.pdb
 29 31 0 0 0
SMALL
GASTEIGER

@<TRIPOS>ATOM
      1  C1       -13.2130   38.0430   17.6180 C.ar  215  GAS215     -0.0026
      2  C2       -13.5670   36.7070   17.7870 C.ar  215  GAS215     -0.0003
      3  C3       -12.6920   35.8270   18.3990 C.ar  215  GAS215     -0.0000
      4  C4       -11.4720   36.2840   18.8470 C.ar  215  GAS215     -0.0003
      5  C5       -11.1260   37.6090   18.6800 C.ar  215  GAS215     -0.0026
      6  C6       -11.9820   38.5000   18.0620 C.ar  215  GAS215     -0.0023
      7  C7       -11.5100   39.7830   17.7770 C.3   215  GAS215      0.1203
      8  N7       -10.1870   39.7640   17.1580 N.3   215  GAS215     -0.1756
      9  C1A      -12.4370   40.6120   17.1420 C.ar  215  GAS215     -0.0023
     10  C2A      -12.7060   40.4490   15.7790 C.ar  215  GAS215     -0.0026
     11  C3A      -13.4270   41.4020   15.1020 C.ar  215  GAS215     -0.0003
     12  C4A      -13.8940   42.5270   15.7650 C.ar  215  GAS215     -0.0000
     13  C5A      -13.6540   42.7010   17.1140 C.ar  215  GAS215     -0.0003
     14  C6A      -12.9320   41.7480   17.8050 C.ar  215  GAS215     -0.0026
     15  C8        -9.2360   40.6660   17.3360 C.3   215  GAS215      0.2450
     16  N8        -9.5480   41.8890   17.7320 N.3   215  GAS215     -0.1711
     17  C9        -8.7980   42.6710   18.7040 C.3   215  GAS215      0.2055
     18  C10       -9.5590   43.6100   19.6140 C.2   215  GAS215      0.3823
     19  O1        -8.9230   44.4930   20.2310 O.co2 215  GAS215     -0.2440
     20  O2       -10.8020   43.6590   19.4680 O.co2 215  GAS215     -0.2440
     21  N11       -8.1020   40.4520   16.7530 N.pl3 215  GAS215     -0.2056
     22  C1B       -7.2430   39.2550   16.5650 C.ar  215  GAS215      0.0683
     23  C2B       -7.2560   38.2220   17.4790 C.ar  215  GAS215      0.0169
     24  C3B       -6.4310   37.1250   17.2950 C.ar  215  GAS215      0.0116
     25  C4B       -5.5980   37.0630   16.1940 C.ar  215  GAS215      0.0685
     26  C7B       -4.6970   35.8720   15.9680 C.1   215  GAS215      0.1004
     27  N7B       -4.0060   34.9580   15.8000 N.1   215  GAS215     -0.1908
     28  C5B       -5.5960   38.0830   15.2910 C.ar  215  GAS215      0.0116
     29  C6B       -6.4200   39.1790   15.4720 C.ar  215  GAS215      0.0169
@<TRIPOS>BOND
     1    11    12   ar
     2    11    10   ar
     3    28    29   ar
     4    28    25   ar
     5    29    22   ar
     6    12    13   ar
     7    10     9   ar
     8    27    26    3
     9    26    25    1
    10    25    24   ar
    11    22    21    1
    12    22    23   ar
    13    21    15    1
    14    13    14   ar
    15     9     7    1
    16     9    14   ar
    17     8    15    1
    18     8     7    1
    19    24    23   ar
    20    15    16    1
    21     1     2   ar
    22     1     6   ar
    23    16    17    1
    24     7     6    1
    25     2     3   ar
    26     6     5   ar
    27     3     4   ar
    28     5     4   ar
    29    17    18    1
    30    20    18   ar
    31    18    19   ar
