@<TRIPOS>MOLECULE
2cgu_3A3_A_1.pdb
 25 27 0 0 0
SMALL
GASTEIGER

@<TRIPOS>ATOM
      1  O24       -3.3680   -1.9540   21.9200 O.co2 1272  3A31272    -0.2415
      2  C11       -3.3780   -3.1910   21.6220 C.2   1272  3A31272     0.4084
      3  O14       -4.4110   -3.9000   21.4150 O.co2 1272  3A31272    -0.2415
      4  C19       -2.0060   -3.8760   21.4890 C.3   1272  3A31272     0.3186
      5  O17       -1.0300   -2.8420   21.0860 O.3   1272  3A31272    -0.4637
      6  C15        0.0240   -3.3490   20.3630 C.ar  1272  3A31272     0.1394
      7  C10        1.2810   -2.7170   20.4040 C.ar  1272  3A31272     0.0385
      8  C22       -0.1650   -4.5070   19.5810 C.ar  1272  3A31272     0.0369
      9  C8         0.8690   -5.0540   18.8410 C.ar  1272  3A31272     0.0032
     10  C4         2.1080   -4.4510   18.9040 C.ar  1272  3A31272     0.0015
     11  C3         2.3180   -3.2910   19.6700 C.ar  1272  3A31272     0.0226
     12  C1         3.6440   -2.9340   19.4740 C.2   1272  3A31272     0.1072
     13  N6         4.2350   -1.8370   19.9770 N.4   1272  3A31272    -0.0967
     14  O23        5.5570   -1.5710   19.6830 O.3   1272  3A31272    -0.0605
     15  C2         4.2430   -3.8460   18.6050 C.2   1272  3A31272     0.0053
     16  C9         5.5150   -3.9250   18.0640 C.3   1272  3A31272     0.0917
     17  C5         3.2800   -4.7880   18.2540 C.2   1272  3A31272    -0.0019
     18  C7         3.5780   -5.8390   17.3750 C.2   1272  3A31272     0.0025
     19  C21        4.8720   -5.9330   16.8480 C.2   1272  3A31272     0.0327
     20  C16        5.8300   -4.9620   17.1920 C.2   1272  3A31272     0.1213
     21  O18        7.1020   -4.9720   16.7000 O.2   1272  3A31272    -0.4678
     22  C20        7.3670   -5.9790   15.8070 C.3   1272  3A31272     0.3183
     23  C12        8.7820   -6.0440   15.1760 C.2   1272  3A31272     0.4084
     24  O25        9.6300   -5.1360   15.5110 O.co2 1272  3A31272    -0.2415
     25  O13        8.9700   -7.0130   14.3740 O.co2 1272  3A31272    -0.2415
@<TRIPOS>BOND
     1    25    23   ar
     2    23    24   ar
     3    23    22    1
     4    22    21    1
     5    21    20    1
     6    19    20    2
     7    19    18    1
     8    20    16    1
     9    18    17    2
    10    16    15    1
    11    17    15    1
    12    17    10    1
    13    15    12    2
    14     9    10   ar
    15     9     8   ar
    16    10    11   ar
    17    12    11    1
    18    12    13    1
    19     8     6   ar
    20    11     7   ar
    21    14    13    1
    22     6     7   ar
    23     6     5    1
    24     5     4    1
    25     3     2   ar
    26     4     2    1
    27     2     1   ar
