@<TRIPOS>MOLECULE
2cgv_3B3_A_1.pdb
 19 20 0 0 0
SMALL
GASTEIGER

@<TRIPOS>ATOM
      1  C1         4.0520   -3.9790   19.2120 C.3   1273  3B31273     0.0572
      2  C2         5.3520   -4.1850   18.7640 C.2   1273  3B31273    -0.0007
      3  C3         5.5700   -5.1520   17.7020 C.2   1273  3B31273     0.0946
      4  N4         4.5730   -5.9000   17.1010 N.2   1273  3B31273    -0.2429
      5  C4A        3.2670   -5.7210   17.5170 C.2   1273  3B31273     0.0964
      6  C4B        2.1900   -6.3990   16.9340 C.2   1273  3B31273     0.0935
      7  N5         2.4050   -7.2840   15.9450 N.2   1273  3B31273    -0.2661
      8  C6         3.7440   -7.5310   15.2580 C.3   1273  3B31273     0.1598
      9  C8A        0.8670   -6.2040   17.3500 C.2   1273  3B31273     0.0219
     10  C9         0.6620   -5.2840   18.3780 C.2   1273  3B31273     0.0254
     11  C10        1.7870   -4.6150   18.9340 C.2   1273  3B31273     0.1407
     12  C1A        3.0490   -4.7740   18.5390 C.2   1273  3B31273     0.0238
     13  CB         3.9250   -6.6630   13.8950 C.3   1273  3B31273     0.1951
     14  CA         5.3990   -6.0900   13.7580 C.3   1273  3B31273     0.1441
     15  N          5.9690   -5.9010   12.4290 N.3   1273  3B31273    -0.1285
     16  O          2.7980   -2.7170   20.3090 O.2   1273  3B31273    -0.1261
     17  OXT        0.2400   -3.6690   20.2270 O.2   1273  3B31273    -0.1261
     18  N1         1.6520   -3.6890   19.8610 N.pl3 1273  3B31273     0.0574
     19  O16        3.2750   -5.3690   14.0480 O.3   1273  3B31273    -0.2194
@<TRIPOS>BOND
     1    15    14    1
     2    14    13    1
     3    13    19    1
     4    13     8    1
     5     8     7    1
     6     7     6    2
     7     6     9    1
     8     6     5    1
     9     4     5    2
    10     4     3    1
    11     9    10    2
    12     5    12    1
    13     3     2    2
    14    10    11    1
    15    12    11    2
    16    12     1    1
    17     2     1    1
    18    11    18    1
    19    18    17    2
    20    18    16    2
