@<TRIPOS>MOLECULE
2cgw_3C3_A_1.pdb
 20 22 0 0 0
SMALL
GASTEIGER

@<TRIPOS>ATOM
      1  N16        6.5310   -2.4460   19.0170 N.pl3 1272  3C31272    -0.1018
      2  C8         5.3330   -2.8320   19.4920 C.ar  1272  3C31272     0.2350
      3  N10        4.6110   -2.1360   20.3730 N.ar  1272  3C31272    -0.0297
      4  O14        3.4240   -2.8870   20.6130 O.2   1272  3C31272    -0.2400
      5  N12        3.4930   -4.0720   19.8000 N.ar  1272  3C31272    -0.0427
      6  C4         4.6640   -4.0160   19.1500 C.ar  1272  3C31272     0.2064
      7  C1         5.1980   -4.8920   18.2190 C.2   1272  3C31272     0.2382
      8  N3         6.4380   -4.8340   17.7390 N.2   1272  3C31272    -0.3290
      9  N7         4.5970   -5.9070   17.5840 N.pl3 1272  3C31272    -0.1737
     10  C18        3.1820   -6.3240   17.7910 C.3   1272  3C31272     0.1198
     11  C19        2.9410   -7.7260   17.2180 C.3   1272  3C31272     0.0237
     12  C20        1.4580   -7.9650   16.8980 C.3   1272  3C31272     0.0019
     13  N5         5.3820   -6.4670   16.7980 N.2   1272  3C31272    -0.1081
     14  C2         6.5500   -5.8200   16.8530 C.1   1272  3C31272     0.1288
     15  C6         7.7140   -6.1070   16.1520 C.ar  1272  3C31272     0.2346
     16  N13        8.8150   -5.3470   16.0940 N.ar  1272  3C31272    -0.0354
     17  O15        9.7570   -6.0430   15.2880 O.2   1272  3C31272    -0.2395
     18  N11        9.1500   -7.2510   14.8760 N.ar  1272  3C31272    -0.0290
     19  C9         7.9300   -7.2700   15.4030 C.ar  1272  3C31272     0.2417
     20  N17        7.0720   -8.2780   15.2160 N.pl3 1272  3C31272    -0.1011
@<TRIPOS>BOND
     1    18    17   ar
     2    18    19   ar
     3    20    19    1
     4    17    16   ar
     5    19    15   ar
     6    16    15   ar
     7    15    14    1
     8    13    14    2
     9    13     9    1
    10    14     8    2
    11    12    11    1
    12    11    10    1
    13     9    10    1
    14     9     7    1
    15     8     7    2
    16     7     6    1
    17     1     2    1
    18     6     2   ar
    19     6     5   ar
    20     2     3   ar
    21     5     4   ar
    22     3     4   ar
