@<TRIPOS>MOLECULE
2cgx_3D3_A_1.pdb
 15 16 0 0 0
SMALL
GASTEIGER

@<TRIPOS>ATOM
      1  N1         5.6220   -4.8390   18.0260 N.2   1274  3D31274    -0.2778
      2  C3         5.1840   -3.8030   18.7490 C.1   1274  3D31274     0.1389
      3  N7         5.7790   -2.6630   19.2010 N.2   1274  3D31274    -0.1519
      4  C9         5.0290   -1.7970   19.8790 C.3   1274  3D31274     0.4016
      5  N8         3.7210   -2.0090   20.1620 N.2   1274  3D31274    -0.0255
      6  C6         3.1060   -3.1320   19.7230 C.2   1274  3D31274     0.4537
      7  N13        1.8070   -3.3790   19.9350 N.pl3 1274  3D31274     0.2198
      8  C2         3.8370   -4.0540   18.9920 C.2   1274  3D31274     0.3071
      9  N4         3.4840   -5.2160   18.4510 N.2   1274  3D31274    -0.3150
     10  C5         4.5900   -5.6630   17.8580 C.1   1274  3D31274     0.1790
     11  S10        4.6800   -7.1740   17.0120 S.3   1274  3D31274    -0.0075
     12  C14        6.2710   -7.0330   16.0730 C.3   1274  3D31274     0.1625
     13  C11        6.8200   -8.3470   15.4180 C.2   1274  3D31274     0.2728
     14  O12        7.8450   -8.3150   14.7210 O.2   1274  3D31274    -0.2707
     15  N15        6.1390   -9.4860   15.6480 N.am  1274  3D31274    -0.0870
@<TRIPOS>BOND
     1    14    13    2
     2    13    15   am
     3    13    12    1
     4    12    11    1
     5    11    10    1
     6    10     1    2
     7    10     9    2
     8     1     2    2
     9     9     8    2
    10     2     8    1
    11     2     3    2
    12     8     6    1
    13     3     4    1
    14     6     7    1
    15     6     5    2
    16     4     5    1
