@<TRIPOS>MOLECULE
2cgy_FSM_A_1.pdb
 29 30 0 0 0
SMALL
GASTEIGER

@<TRIPOS>ATOM
      1  C2A      -15.0890   32.5880   15.2010 C.3   1102  FSM1102     0.1842
      2  C3A      -14.8220   31.4310   14.2300 C.3   1102  FSM1102     0.2094
      3  C4A      -13.3360   31.1090   14.1170 C.3   1102  FSM1102     0.2136
      4  C5A      -12.7260   30.9440   15.4980 C.3   1102  FSM1102     0.1834
      5  C6A      -11.2680   30.5720   15.2610 C.3   1102  FSM1102     0.2142
      6  C7A      -17.2190   33.8450   15.3080 C.2   1102  FSM1102     0.2420
      7  C8A      -18.7240   33.7520   15.6250 C.3   1102  FSM1102     0.0964
      8  N2A      -16.5370   32.7010   15.4550 N.am  1102  FSM1102    -0.1992
      9  O1A      -17.0410   31.5210   19.3050 O.3   1102  FSM1102    -0.2178
     10  O3A      -15.3030   31.7770   12.9240 O.3   1102  FSM1102    -0.2183
     11  O4A      -12.6780   32.1630   13.4070 O.3   1102  FSM1102    -0.2176
     12  O5A      -12.9210   32.1650   16.2470 O.3   1102  FSM1102    -0.3262
     13  C1       -14.3350   32.4070   16.5270 C.3   1102  FSM1102     0.2586
     14  O6A      -10.4460   31.4400   16.0240 O.3   1102  FSM1102    -0.2176
     15  O7A      -16.7160   34.9140   14.9600 O.2   1102  FSM1102    -0.2733
     16  C1B      -14.1960   30.8660   21.0480 C.3   1102  FSM1102     0.2916
     17  C2B      -14.4670   30.3630   19.6180 C.3   1102  FSM1102     0.1839
     18  C3B      -14.6760   31.6120   18.7400 C.3   1102  FSM1102     0.1755
     19  C4B      -15.8760   32.3480   19.3600 C.3   1102  FSM1102     0.2104
     20  C5B      -15.6110   32.6850   20.8300 C.3   1102  FSM1102     0.1834
     21  C6B      -16.8030   33.4290   21.4560 C.3   1102  FSM1102     0.2142
     22  C7B      -13.4390   28.5680   18.2350 C.2   1102  FSM1102     0.2420
     23  C8B      -12.1340   27.8240   17.9230 C.3   1102  FSM1102     0.0964
     24  N2B      -13.3340   29.5290   19.1630 N.am  1102  FSM1102    -0.1993
     25  O1B      -13.7390   29.8760   21.9760 O.3   1102  FSM1102    -0.1879
     26  O3B      -14.9420   31.3670   17.3430 O.3   1102  FSM1102    -0.3270
     27  O5B      -15.4110   31.4400   21.5350 O.3   1102  FSM1102    -0.3242
     28  O6B      -17.8490   32.4850   21.7330 O.3   1102  FSM1102    -0.2176
     29  O7B      -14.4810   28.2760   17.6450 O.2   1102  FSM1102    -0.2733
@<TRIPOS>BOND
     1    10     2    1
     2    11     3    1
     3     3     2    1
     4     3     4    1
     5     2     1    1
     6    15     6    2
     7     1     8    1
     8     1    13    1
     9     5     4    1
    10     5    14    1
    11     6     8   am
    12     6     7    1
    13     4    12    1
    14    12    13    1
    15    13    26    1
    16    26    18    1
    17    29    22    2
    18    23    22    1
    19    22    24   am
    20    18    19    1
    21    18    17    1
    22    24    17    1
    23     9    19    1
    24    19    20    1
    25    17    16    1
    26    20    21    1
    27    20    27    1
    28    16    27    1
    29    16    25    1
    30    21    28    1
