@<TRIPOS>MOLECULE
2cgz_TNR_A_1.pdb
 21 21 0 0 0
SMALL
GASTEIGER

@<TRIPOS>ATOM
      1  OXT      -17.3230   31.5370   19.7970 O.co2 1102  TNR1102    -0.2440
      2  C        -16.4200   30.7640   19.4060 C.2   1102  TNR1102     0.3844
      3  O        -16.5650   29.7810   18.6450 O.co2 1102  TNR1102    -0.2440
      4  CA       -15.0000   31.0590   19.8910 C.3   1102  TNR1102     0.2237
      5  N        -14.2330   29.8050   19.9390 N.3   1102  TNR1102    -0.1181
      6  CB       -14.3340   32.0250   18.9050 C.3   1102  TNR1102     0.1753
      7  O1       -14.5930   31.5880   17.5550 O.3   1102  TNR1102    -0.3270
      8  C1       -14.0270   32.5110   16.6220 C.3   1102  TNR1102     0.2586
      9  C2       -14.8940   32.6650   15.3580 C.3   1102  TNR1102     0.1842
     10  N2       -16.3100   32.8590   15.7170 N.am  1102  TNR1102    -0.1992
     11  C7       -16.9770   33.9510   15.3550 C.2   1102  TNR1102     0.2420
     12  C8       -18.4400   34.0010   15.8020 C.3   1102  TNR1102     0.0964
     13  O7       -16.4790   34.8730   14.7140 O.2   1102  TNR1102    -0.2733
     14  C3       -14.7580   31.4800   14.4000 C.3   1102  TNR1102     0.2094
     15  O3       -15.3170   31.8450   13.1370 O.3   1102  TNR1102    -0.2183
     16  C4       -13.2950   31.1030   14.2020 C.3   1102  TNR1102     0.2136
     17  O4       -12.6320   32.1570   13.5040 O.3   1102  TNR1102    -0.2176
     18  C5       -12.6170   30.8880   15.5480 C.3   1102  TNR1102     0.1834
     19  O5       -12.6820   32.1120   16.2920 O.3   1102  TNR1102    -0.3262
     20  C6       -11.1610   30.4920   15.3080 C.3   1102  TNR1102     0.2142
     21  O6       -10.3010   31.5990   15.5920 O.3   1102  TNR1102    -0.2176
@<TRIPOS>BOND
     1    15    14    1
     2    17    16    1
     3    16    14    1
     4    16    18    1
     5    14     9    1
     6    13    11    2
     7    20    18    1
     8    20    21    1
     9    11    10   am
    10    11    12    1
    11     9    10    1
    12     9     8    1
    13    18    19    1
    14    19     8    1
    15     8     7    1
    16     7     6    1
    17     3     2   ar
    18     6     4    1
    19     2     1   ar
    20     2     4    1
    21     4     5    1
