@<TRIPOS>MOLECULE
2ch1_LLP_A_1.pdb
 24 24 0 0 0
SMALL
GASTEIGER

@<TRIPOS>ATOM
      1  N1       -24.0880   38.7150  -34.8300 N.2   1390  LLP1390    -0.2458
      2  C2       -24.1280   39.9790  -35.4030 C.2   1390  LLP1390     0.0942
      3  C2'      -25.3820   40.7940  -35.2900 C.3   1390  LLP1390     0.0552
      4  C3       -23.0120   40.5030  -36.0730 C.2   1390  LLP1390     0.1913
      5  O3       -23.0210   41.6390  -36.5850 O.2   1390  LLP1390    -0.2897
      6  C4       -21.8450   39.7230  -36.1550 C.3   1390  LLP1390     0.1026
      7  C4'      -20.6470   40.2910  -36.9010 C.3   1390  LLP1390     0.1006
      8  C5       -21.8300   38.4370  -35.5700 C.2   1390  LLP1390     0.0132
      9  C6       -22.9470   37.9350  -34.8990 C.2   1390  LLP1390     0.0929
     10  C5'      -20.6090   37.5860  -35.6720 C.3   1390  LLP1390     0.1780
     11  OP4      -19.6450   37.6510  -34.6200 O.3   1390  LLP1390    -0.2656
     12  P        -18.1750   37.0600  -34.7630 P.3   1390  LLP1390     0.5329
     13  OP1      -17.8710   37.2520  -36.1930 O.2   1390  LLP1390    -0.2224
     14  OP2      -17.3800   37.9480  -33.8810 O.3   1390  LLP1390    -0.1145
     15  OP3      -18.2440   35.6390  -34.3120 O.3   1390  LLP1390    -0.1145
     16  N        -17.1840   45.2400  -32.8890 N.3   1390  LLP1390    -0.1245
     17  CA       -18.1570   46.0440  -33.6070 C.3   1390  LLP1390     0.1561
     18  CB       -19.5360   45.3680  -33.6180 C.3   1390  LLP1390     0.0271
     19  CG       -19.8410   44.5800  -34.9080 C.3   1390  LLP1390     0.0034
     20  CD       -19.3070   43.1720  -34.9810 C.3   1390  LLP1390     0.0189
     21  CE       -19.8240   42.4720  -36.2590 C.3   1390  LLP1390     0.0887
     22  NZ       -19.7730   40.9690  -36.1390 N.3   1390  LLP1390    -0.2173
     23  C        -18.1370   47.4820  -33.0460 C.2   1390  LLP1390     0.2260
     24  O        -17.0810   48.0890  -33.0190 O.2   1390  LLP1390    -0.2867
@<TRIPOS>BOND
     1     7     6    1
     2     7    22    1
     3     5     4    2
     4    21    22    1
     5    21    20    1
     6    13    12    2
     7     6     4    1
     8     6     8    1
     9     4     2    1
    10    10     8    1
    11    10    11    1
    12     8     9    2
    13     2     3    1
    14     2     1    2
    15    20    19    1
    16    19    18    1
    17     9     1    1
    18    12    11    1
    19    12    15    1
    20    12    14    1
    21    18    17    1
    22    17    23    1
    23    17    16    1
    24    23    24    2
