@<TRIPOS>MOLECULE
2ch2_KY1_B_1.pdb
 14 14 0 0 0
SMALL
GASTEIGER

@<TRIPOS>ATOM
      1  CA       -30.6270   14.0410   16.4220 C.3   1391  KY11391     0.1222
      2  CB       -31.0150   13.6650   17.8240 C.3   1391  KY11391     0.0810
      3  CG       -30.4950    9.9330   18.8940 C.ar  1391  KY11391     0.0918
      4  CD1      -31.2810    8.8220   19.2570 C.ar  1391  KY11391     0.0181
      5  CE1      -32.6810    8.9080   19.2730 C.ar  1391  KY11391     0.0014
      6  CZ       -33.3290   10.0910   18.9470 C.ar  1391  KY11391     0.0002
      7  CE2      -32.5540   11.1910   18.5880 C.ar  1391  KY11391     0.0042
      8  CD2      -31.1520   11.1410   18.5590 C.ar  1391  KY11391     0.0514
      9  C        -31.0000   12.9120   15.4920 C.2   1391  KY11391     0.3653
     10  O        -30.3490   11.8460   15.5390 O.co2 1391  KY11391    -0.2456
     11  OXT      -31.9400   13.0570   14.6880 O.co2 1391  KY11391    -0.2456
     12  C1       -30.3510   12.3690   18.1840 C.2   1391  KY11391     0.1749
     13  O2       -29.1250   12.2960   18.1570 O.2   1391  KY11391    -0.2913
     14  N1       -29.1300    9.8310   18.8890 N.pl3 1391  KY11391    -0.1280
@<TRIPOS>BOND
     1    11     9   ar
     2     9    10   ar
     3     9     1    1
     4     1     2    1
     5     2    12    1
     6    13    12    2
     7    12     8    1
     8     8     7   ar
     9     8     3   ar
    10     7     6   ar
    11    14     3    1
    12     3     4   ar
    13     6     5   ar
    14     4     5   ar
