@<TRIPOS>MOLECULE
2ch2_LLP_A_1.pdb
 24 24 0 0 0
SMALL
GASTEIGER

@<TRIPOS>ATOM
      1  N1       -23.6150   38.3550  -34.7280 N.2   1390  LLP1390    -0.2458
      2  C2       -23.9170   39.6020  -35.2410 C.2   1390  LLP1390     0.0942
      3  C2'      -25.2770   40.1830  -35.0500 C.3   1390  LLP1390     0.0552
      4  C3       -22.9750   40.3670  -35.9240 C.2   1390  LLP1390     0.1913
      5  O3       -23.2460   41.4970  -36.3720 O.2   1390  LLP1390    -0.2897
      6  C4       -21.6900   39.8490  -36.1060 C.3   1390  LLP1390     0.1026
      7  C4'      -20.7170   40.6990  -36.8750 C.3   1390  LLP1390     0.1006
      8  C5       -21.4000   38.5720  -35.5900 C.2   1390  LLP1390     0.0132
      9  C6       -22.3640   37.8340  -34.9020 C.2   1390  LLP1390     0.0929
     10  C5'      -20.0620   37.9690  -35.7860 C.3   1390  LLP1390     0.1780
     11  OP4      -19.5810   37.0000  -34.8590 O.3   1390  LLP1390    -0.2656
     12  P        -18.0130   36.7790  -34.7680 P.3   1390  LLP1390     0.5329
     13  OP1      -17.5690   36.8240  -36.1370 O.2   1390  LLP1390    -0.2224
     14  OP2      -17.5270   37.8530  -33.8910 O.3   1390  LLP1390    -0.1145
     15  OP3      -17.9330   35.4110  -34.1970 O.3   1390  LLP1390    -0.1145
     16  N        -16.9450   44.9900  -32.9360 N.3   1390  LLP1390    -0.1245
     17  CA       -17.8870   45.7840  -33.6490 C.3   1390  LLP1390     0.1561
     18  CB       -19.2170   45.1140  -33.5690 C.3   1390  LLP1390     0.0271
     19  CG       -19.5740   44.3540  -34.8060 C.3   1390  LLP1390     0.0034
     20  CD       -18.8490   43.0910  -35.0130 C.3   1390  LLP1390     0.0189
     21  CE       -19.2940   42.4890  -36.3290 C.3   1390  LLP1390     0.0887
     22  NZ       -19.6040   41.0130  -36.1980 N.3   1390  LLP1390    -0.2173
     23  C        -17.8920   47.1730  -33.0220 C.2   1390  LLP1390     0.2260
     24  O        -16.8590   47.8090  -32.9620 O.2   1390  LLP1390    -0.2867
@<TRIPOS>BOND
     1     7    22    1
     2     7     6    1
     3     5     4    2
     4    21    22    1
     5    21    20    1
     6    13    12    2
     7     6     4    1
     8     6     8    1
     9     4     2    1
    10    10     8    1
    11    10    11    1
    12     8     9    2
    13     2     3    1
    14     2     1    2
    15    20    19    1
    16     9     1    1
    17    11    12    1
    18    19    18    1
    19    12    15    1
    20    12    14    1
    21    17    18    1
    22    17    23    1
    23    17    16    1
    24    23    24    2
