@<TRIPOS>MOLECULE
2ch4_ANP_A_1.pdb
 31 33 0 0 0
SMALL
GASTEIGER

@<TRIPOS>ATOM
      1  PG        23.9260   52.7980    9.0180 P.3   1672  ANP1672     0.4884
      2  O1G       23.1010   53.8040    8.1410 O.2   1672  ANP1672    -0.2331
      3  O2G       24.8540   51.9820    8.2020 O.3   1672  ANP1672    -0.1240
      4  O3G       24.3570   53.3090   10.3690 O.3   1672  ANP1672    -0.1240
      5  PB        23.3290   50.3920   10.5580 P.3   1672  ANP1672     0.4669
      6  O1B       22.2280   50.2370   11.6330 O.3   1672  ANP1672    -0.1253
      7  O2B       24.6280   50.4020   11.0990 O.2   1672  ANP1672    -0.2351
      8  N3B       22.8830   51.6540    9.7280 N.3   1672  ANP1672    -0.0163
      9  PA        22.8970   47.4990   10.0100 P.3   1672  ANP1672     0.2220
     10  O1A       22.8670   46.8830    8.6390 O.2   1672  ANP1672    -0.5170
     11  O2A       21.6410   47.4440   10.7820 O.3   1672  ANP1672    -0.4370
     12  O3A       23.2940   48.9710    9.8070 O.3   1672  ANP1672    -0.2360
     13  O5'       24.2770   46.9740   10.6280 O.3   1672  ANP1672    -0.3111
     14  C5'       24.5000   47.4640   11.9630 C.3   1672  ANP1672     0.1813
     15  C4'       25.6590   47.1450   12.9420 C.3   1672  ANP1672     0.1821
     16  O4'       26.4570   46.1140   12.4630 O.3   1672  ANP1672    -0.3135
     17  C3'       26.3890   48.3950   12.5770 C.3   1672  ANP1672     0.2184
     18  O3'       25.9500   49.4360   13.4260 O.3   1672  ANP1672    -0.2174
     19  C2'       27.8760   48.0270   12.6290 C.3   1672  ANP1672     0.2570
     20  O2'       28.3820   48.3100   13.9220 O.3   1672  ANP1672    -0.2130
     21  C1'       27.7810   46.5950   12.2910 C.3   1672  ANP1672     0.3186
     22  N9        28.2680   46.1280   10.9220 N.pl3 1672  ANP1672    -0.1439
     23  C8        27.6280   45.5490    9.8920 C.3   1672  ANP1672     0.3377
     24  N7        28.3740   45.2600    8.8320 N.2   1672  ANP1672    -0.2095
     25  C5        29.5770   45.6730    9.2290 C.2   1672  ANP1672     0.2526
     26  C6        30.8750   45.6840    8.6350 C.2   1672  ANP1672     0.4393
     27  N6        31.0880   45.1940    7.3930 N.pl3 1672  ANP1672     0.2180
     28  N1        31.9480   46.1990    9.3010 N.2   1672  ANP1672     0.0021
     29  C2        31.7800   46.6990   10.5450 C.3   1672  ANP1672     0.5254
     30  N3        30.5920   46.7230   11.1900 N.2   1672  ANP1672    -0.0055
     31  C4        29.5510   46.2210   10.5060 C.2   1672  ANP1672     0.3518
@<TRIPOS>BOND
     1    27    26    1
     2     2     1    2
     3     3     1    1
     4    26    25    1
     5    26    28    2
     6    10     9    2
     7    24    25    2
     8    24    23    1
     9     1     8    1
    10     1     4    1
    11    25    31    1
    12    28    29    1
    13     8     5    1
    14    12     9    1
    15    12     5    1
    16    23    22    1
    17     9    13    1
    18     9    11    1
    19    31    22    1
    20    31    30    2
    21    29    30    1
    22     5     7    2
    23     5     6    1
    24    13    14    1
    25    22    21    1
    26    14    15    1
    27    21    16    1
    28    21    19    1
    29    16    15    1
    30    17    19    1
    31    17    15    1
    32    17    18    1
    33    19    20    1
