@<TRIPOS>MOLECULE
2ch5_NDG_D_1.pdb
 14 14 0 0 0
SMALL
GASTEIGER

@<TRIPOS>ATOM
      1  C1        43.7690  144.8700   95.8940 C.3   500  NDG500      0.2877
      2  C2        42.6000  145.7420   96.2410 C.3   500  NDG500      0.1649
      3  C3        41.6250  145.9520   95.0790 C.3   500  NDG500      0.2055
      4  C4        42.4340  146.4610   93.8940 C.3   500  NDG500      0.2132
      5  C5        43.6500  145.5650   93.5490 C.3   500  NDG500      0.1835
      6  C6        44.3700  146.2310   92.3650 C.3   500  NDG500      0.2142
      7  C7        42.3150  145.6850   98.6870 C.3   500  NDG500      0.0890
      8  C8        41.2680  144.9460   99.5830 C.3   500  NDG500      0.0203
      9  O         44.4600  145.5230   94.7620 O.3   500  NDG500     -0.3245
     10  O3        40.6970  146.9570   95.5170 O.3   500  NDG500     -0.2186
     11  O4        41.5910  146.6180   92.7340 O.3   500  NDG500     -0.2176
     12  O6        45.0840  147.3770   92.8650 O.3   500  NDG500     -0.2176
     13  N2        41.9130  145.2800   97.4420 N.3   500  NDG500     -0.2117
     14  O1L       43.2710  143.5090   95.5320 O.3   500  NDG500     -0.1882
@<TRIPOS>BOND
     1     6    12    1
     2     6     5    1
     3    11     4    1
     4     5     4    1
     5     5     9    1
     6     4     3    1
     7     9     1    1
     8     3    10    1
     9     3     2    1
    10    14     1    1
    11     1     2    1
    12     2    13    1
    13    13     7    1
    14     7     8    1
