@<TRIPOS>MOLECULE
2ch5_NAG_A_1.pdb
 15 15 0 0 0
SMALL
GASTEIGER

@<TRIPOS>ATOM
      1  C1        47.3380   89.6030   85.1470 C.3   500  NAG500      0.2917
      2  C2        46.1620   88.7180   84.7070 C.3   500  NAG500      0.1871
      3  C3        45.1810   88.4700   85.8600 C.3   500  NAG500      0.2095
      4  C4        45.9330   87.9120   87.0540 C.3   500  NAG500      0.2136
      5  C5        47.1270   88.7880   87.4180 C.3   500  NAG500      0.1835
      6  C6        47.8750   88.1280   88.5660 C.3   500  NAG500      0.2142
      7  C7        45.5930   89.0560   82.3330 C.2   500  NAG500      0.2421
      8  C8        44.6930   89.8160   81.3640 C.3   500  NAG500      0.0964
      9  N2        45.3910   89.3480   83.6140 N.am  500  NAG500     -0.1991
     10  O1        46.7820   90.9120   85.5050 O.3   500  NAG500     -0.1879
     11  O3        44.1690   87.5380   85.4650 O.3   500  NAG500     -0.2183
     12  O4        45.0240   87.7470   88.1330 O.3   500  NAG500     -0.2176
     13  O5        48.0060   88.9520   86.2580 O.3   500  NAG500     -0.3242
     14  O6        48.6310   87.0060   88.1090 O.3   500  NAG500     -0.2176
     15  O7        46.4460   88.2670   81.9280 O.2   500  NAG500     -0.2733
@<TRIPOS>BOND
     1     8     7    1
     2    15     7    2
     3     7     9   am
     4     9     2    1
     5     2     1    1
     6     2     3    1
     7     1    10    1
     8     1    13    1
     9    11     3    1
    10     3     4    1
    11    13     5    1
    12     4     5    1
    13     4    12    1
    14     5     6    1
    15    14     6    1
