@<TRIPOS>MOLECULE
2ch6_ADP_A_1.pdb
 27 29 0 0 0
SMALL
GASTEIGER

@<TRIPOS>ATOM
      1  PB        44.6380   85.5470   66.2660 P.3   470  ADP470      0.5373
      2  O1B       45.3860   84.4620   67.0060 O.3   470  ADP470     -0.1143
      3  O2B       43.5650   86.2740   67.0490 O.3   470  ADP470     -0.1143
      4  O3B       45.5700   86.4940   65.5590 O.2   470  ADP470     -0.2221
      5  PA        43.5720   83.1790   64.9660 P.3   470  ADP470      0.2231
      6  O1A       42.6840   82.9670   63.7510 O.2   470  ADP470     -0.5169
      7  O2A       43.2000   82.4770   66.2230 O.3   470  ADP470     -0.4370
      8  O3A       43.7860   84.7760   65.1340 O.3   470  ADP470     -0.2261
      9  O5'       45.0510   82.7340   64.5470 O.3   470  ADP470     -0.3111
     10  C5'       45.4810   83.1100   63.2440 C.3   470  ADP470      0.1813
     11  C4'       46.3840   82.0080   62.7700 C.3   470  ADP470      0.1821
     12  O4'       45.6050   80.8340   62.5860 O.3   470  ADP470     -0.3135
     13  C3'       47.0410   82.3000   61.4400 C.3   470  ADP470      0.2184
     14  O3'       48.4130   82.6410   61.6760 O.3   470  ADP470     -0.2174
     15  C2'       46.8610   81.0030   60.6620 C.3   470  ADP470      0.2570
     16  O2'       48.0690   80.4750   60.1260 O.3   470  ADP470     -0.2130
     17  C1'       46.3400   80.0350   61.6890 C.3   470  ADP470      0.3186
     18  N9        45.3720   79.1000   61.1130 N.pl3 470  ADP470     -0.1439
     19  C8        44.2110   79.4130   60.5130 C.3   470  ADP470      0.3377
     20  N7        43.5790   78.2830   60.1100 N.2   470  ADP470     -0.2095
     21  C5        44.3230   77.2290   60.4720 C.2   470  ADP470      0.2526
     22  C6        44.2360   75.7580   60.3730 C.2   470  ADP470      0.4393
     23  N6        43.1970   75.1440   59.7970 N.pl3 470  ADP470      0.2180
     24  N1        45.2530   75.0270   60.8830 N.2   470  ADP470      0.0021
     25  C2        46.3130   75.6150   61.4750 C.3   470  ADP470      0.5254
     26  N3        46.4470   76.9450   61.6020 N.2   470  ADP470     -0.0055
     27  C4        45.5080   77.7780   61.1360 C.2   470  ADP470      0.3518
@<TRIPOS>BOND
     1    23    22    1
     2    20    21    2
     3    20    19    1
     4    16    15    1
     5    22    21    1
     6    22    24    2
     7    21    27    1
     8    19    18    1
     9    15    13    1
    10    15    17    1
    11    24    25    1
    12    18    27    1
    13    18    17    1
    14    27    26    2
    15    13    14    1
    16    13    11    1
    17    25    26    1
    18    17    12    1
    19    12    11    1
    20    11    10    1
    21    10     9    1
    22     6     5    2
    23     9     5    1
    24     5     8    1
    25     5     7    1
    26     8     1    1
    27     4     1    2
    28     1     2    1
    29     1     3    1
