@<TRIPOS>MOLECULE
2ch6_GLC_A_1.pdb
 12 12 0 0 0
SMALL
GASTEIGER

@<TRIPOS>ATOM
      1  C1        50.8530   86.1700   72.5030 C.3   1001  GLC1001     0.3024
      2  C2        50.4950   87.2610   73.5240 C.3   1001  GLC1001     0.2434
      3  C3        49.5260   86.7000   74.5870 C.3   1001  GLC1001     0.2199
      4  C4        48.3660   86.0180   73.9040 C.3   1001  GLC1001     0.2144
      5  C5        48.9120   84.8670   73.0640 C.3   1001  GLC1001     0.1836
      6  C6        47.7630   84.0610   72.5070 C.3   1001  GLC1001     0.2142
      7  O1        51.7560   85.2270   73.1180 O.3   1001  GLC1001    -0.1869
      8  O2        51.6940   87.7800   74.1470 O.3   1001  GLC1001    -0.2148
      9  O3        48.9900   87.7390   75.4060 O.3   1001  GLC1001    -0.2174
     10  O4        47.4290   85.5560   74.8840 O.3   1001  GLC1001    -0.2176
     11  O5        49.6750   85.4780   72.0010 O.3   1001  GLC1001    -0.3236
     12  O6        46.8640   84.9370   71.8510 O.3   1001  GLC1001    -0.2176
@<TRIPOS>BOND
     1    12     6    1
     2    11     1    1
     3    11     5    1
     4     1     7    1
     5     1     2    1
     6     6     5    1
     7     5     4    1
     8     2     8    1
     9     2     3    1
    10     4     3    1
    11     4    10    1
    12     3     9    1
