@<TRIPOS>MOLECULE
2ch9_FUL_A_1.pdb
 10 10 0 0 0
SMALL
GASTEIGER

@<TRIPOS>ATOM
      1  C1       -14.6280   10.6950   60.1740 C.3   1152  FUL1152     0.1776
      2  C2       -14.5810   10.1330   61.5950 C.3   1152  FUL1152     0.2141
      3  O2       -14.3380    8.7400   61.6370 O.3   1152  FUL1152    -0.2176
      4  C3       -13.4310   10.9540   62.1870 C.3   1152  FUL1152     0.2172
      5  O3       -13.0690   10.5100   63.4800 O.3   1152  FUL1152    -0.2175
      6  C4       -13.8200   12.4460   62.1420 C.3   1152  FUL1152     0.2116
      7  O4       -14.8260   12.6840   63.1070 O.3   1152  FUL1152    -0.2177
      8  C5       -14.2920   12.8680   60.7280 C.3   1152  FUL1152     0.1483
      9  C6       -14.8650   14.2760   60.6390 C.3   1152  FUL1152     0.0349
     10  O5       -15.2540   11.9600   60.2070 O.3   1152  FUL1152    -0.3508
@<TRIPOS>BOND
     1     1    10    1
     2     1     2    1
     3    10     8    1
     4     9     8    1
     5     8     6    1
     6     2     3    1
     7     2     4    1
     8     6     4    1
     9     6     7    1
    10     4     5    1
