@<TRIPOS>MOLECULE
2cha_TSU_C_1.pdb
 10 10 0 0 0
SMALL
GASTEIGER

@<TRIPOS>ATOM
      1  S         15.8330   -0.0330    5.5620 S.3    51  TSU51       0.0045
      2  O2        14.6020   -0.7720    5.2860 O.3    51  TSU51      -0.0734
      3  O3        15.8970    1.1670    4.7370 O.3    51  TSU51      -0.0734
      4  C1        17.2290   -1.0520    5.2580 C.ar   51  TSU51       0.1034
      5  C2        17.7640   -1.1760    3.9800 C.ar   51  TSU51       0.0178
      6  C3        18.8660   -1.9950    3.7570 C.ar   51  TSU51      -0.0029
      7  C4        19.4510   -2.7100    4.7940 C.ar   51  TSU51      -0.0218
      8  C5        18.9190   -2.5880    6.0720 C.ar   51  TSU51      -0.0029
      9  C6        17.8180   -1.7690    6.2980 C.ar   51  TSU51       0.0178
     10  C7        20.2560   -3.9600    4.4390 C.3    51  TSU51       0.0310
@<TRIPOS>BOND
     1     6     5   ar
     2     6     7   ar
     3     5     4   ar
     4    10     7    1
     5     3     1    1
     6     7     8   ar
     7     4     1    1
     8     4     9   ar
     9     2     1    1
    10     8     9   ar
