@<TRIPOS>MOLECULE
2chb_GAL_D_1.pdb
 11 11 0 0 0
SMALL
GASTEIGER

@<TRIPOS>ATOM
      1  C1       -10.8840   19.0340    3.5910 C.3   104  GAL104      0.1777
      2  C2       -10.6820   17.7990    4.3970 C.3   104  GAL104      0.2141
      3  C3       -10.9970   18.0490    5.8920 C.3   104  GAL104      0.2173
      4  C4       -10.1760   19.2590    6.3590 C.3   104  GAL104      0.2142
      5  C5       -10.3820   20.4680    5.4760 C.3   104  GAL104      0.1810
      6  C6        -9.5720   21.6760    5.7680 C.3   104  GAL104      0.2141
      7  O2       -11.5600   16.8500    3.8760 O.3   104  GAL104     -0.2176
      8  O3       -10.6810   16.8710    6.6290 O.3   104  GAL104     -0.2175
      9  O4        -8.8280   18.9320    6.2640 O.3   104  GAL104     -0.2176
     10  O5       -10.1000   20.0880    4.1430 O.3   104  GAL104     -0.3481
     11  O6        -9.8100   22.6170    4.7700 O.3   104  GAL104     -0.2176
@<TRIPOS>BOND
     1     1    10    1
     2     1     2    1
     3     7     2    1
     4    10     5    1
     5     2     3    1
     6    11     6    1
     7     5     6    1
     8     5     4    1
     9     3     4    1
    10     3     8    1
    11     9     4    1
