@<TRIPOS>MOLECULE
2chb_SIA_D_1.pdb
 20 20 0 0 0
SMALL
GASTEIGER

@<TRIPOS>ATOM
      1  C1       -16.0150   20.4740    0.3550 C.2   108  SIA108      0.3914
      2  C2       -15.7770   21.0790   -1.1040 C.3   108  SIA108      0.2203
      3  C3       -17.1300   21.4110   -1.8300 C.3   108  SIA108      0.0760
      4  C4       -17.9350   22.4440   -0.9570 C.3   108  SIA108      0.1773
      5  C5       -17.0620   23.7600   -0.7930 C.3   108  SIA108      0.1552
      6  C6       -15.6410   23.3960   -0.2420 C.3   108  SIA108      0.1710
      7  C7       -14.6460   24.5820   -0.2490 C.3   108  SIA108      0.2134
      8  C8       -13.1940   24.1330    0.0220 C.3   108  SIA108      0.2173
      9  C9       -12.3860   25.4100    0.0320 C.3   108  SIA108      0.2175
     10  C10      -17.6850   26.0290   -0.0020 C.2   108  SIA108      0.2420
     11  C11      -18.4490   26.7870    1.0980 C.3   108  SIA108      0.0964
     12  N5       -17.7160   24.7040    0.1280 N.am  108  SIA108     -0.2020
     13  O1A      -15.1450   20.5630    1.2580 O.co2 108  SIA108     -0.2430
     14  O1B      -17.0880   19.8850    0.6130 O.co2 108  SIA108     -0.2430
     15  O4       -19.2550   22.7520   -1.4980 O.3   108  SIA108     -0.2211
     16  O6       -15.0540   22.3360   -1.0380 O.3   108  SIA108     -0.3429
     17  O7       -14.6370   25.3030   -1.4910 O.3   108  SIA108     -0.2176
     18  O8       -13.0090   23.3650    1.2000 O.3   108  SIA108     -0.2175
     19  O9       -11.1430   25.1610    0.5880 O.3   108  SIA108     -0.2175
     20  O10      -17.1140   26.6270   -0.9140 O.2   108  SIA108     -0.2733
@<TRIPOS>BOND
     1     3     2    1
     2     3     4    1
     3    15     4    1
     4    17     7    1
     5     2    16    1
     6     2     1    1
     7    16     6    1
     8     4     5    1
     9    20    10    2
    10     5     6    1
    11     5    12    1
    12     7     6    1
    13     7     8    1
    14    10    12   am
    15    10    11    1
    16     8     9    1
    17     8    18    1
    18     9    19    1
    19     1    14   ar
    20     1    13   ar
