@<TRIPOS>MOLECULE
2chg_ANP_A_1.pdb
 31 33 0 0 0
SMALL
GASTEIGER

@<TRIPOS>ATOM
      1  PG        -9.7140  -11.8620   38.4730 P.3   1227  ANP1227     0.4884
      2  O1G       -9.9720  -11.2200   39.8180 O.3   1227  ANP1227    -0.1240
      3  O2G      -10.9800  -12.1320   37.7120 O.2   1227  ANP1227    -0.2331
      4  O3G       -8.8230  -13.0800   38.5770 O.3   1227  ANP1227    -0.1240
      5  PB        -9.3030   -9.2100   37.4520 P.3   1227  ANP1227     0.4669
      6  O1B       -8.0590   -8.3960   37.6670 O.2   1227  ANP1227    -0.2351
      7  O2B      -10.4970   -8.8480   38.2830 O.3   1227  ANP1227    -0.1253
      8  N3B       -8.9130  -10.7850   37.6010 N.3   1227  ANP1227    -0.0163
      9  PA        -9.0270   -9.3270   34.5640 P.3   1227  ANP1227     0.2220
     10  O1A       -9.9680   -8.9340   33.4310 O.2   1227  ANP1227    -0.5170
     11  O2A       -8.5700  -10.7610   34.7340 O.3   1227  ANP1227    -0.4370
     12  O3A       -9.8150   -8.9330   35.9270 O.3   1227  ANP1227    -0.2360
     13  O5'       -7.7320   -8.3860   34.5260 O.3   1227  ANP1227    -0.3111
     14  C5'       -7.8770   -6.9770   34.3850 C.3   1227  ANP1227     0.1813
     15  C4'       -6.5970   -6.3470   33.8270 C.3   1227  ANP1227     0.1821
     16  O4'       -5.3950   -6.9120   34.3570 O.3   1227  ANP1227    -0.3135
     17  C3'       -6.4630   -6.5320   32.3310 C.3   1227  ANP1227     0.2184
     18  O3'       -5.6630   -5.4350   31.8680 O.3   1227  ANP1227    -0.2174
     19  C2'       -5.5530   -7.6990   32.1250 C.3   1227  ANP1227     0.2570
     20  O2'       -4.6800   -7.4210   31.0340 O.3   1227  ANP1227    -0.2130
     21  C1'       -4.6860   -7.6510   33.3530 C.3   1227  ANP1227     0.3186
     22  N9        -4.3760   -9.0130   33.8380 N.pl3 1227  ANP1227    -0.1439
     23  C8        -4.9000   -9.5760   34.9490 C.3   1227  ANP1227     0.3377
     24  N7        -4.3960  -10.8140   35.1220 N.2   1227  ANP1227    -0.2095
     25  C5        -3.5430  -11.0460   34.1170 C.2   1227  ANP1227     0.2526
     26  C6        -2.6810  -12.1670   33.7250 C.2   1227  ANP1227     0.4393
     27  N6        -2.6390  -13.3100   34.4610 N.pl3 1227  ANP1227     0.2180
     28  N1        -1.9560  -12.0040   32.6190 N.2   1227  ANP1227     0.0021
     29  C2        -1.9660  -10.8820   31.8620 C.3   1227  ANP1227     0.5254
     30  N3        -2.7270   -9.8330   32.1570 N.2   1227  ANP1227    -0.0055
     31  C4        -3.5300   -9.8640   33.2640 C.2   1227  ANP1227     0.3518
@<TRIPOS>BOND
     1    20    19    1
     2    29    30    1
     3    29    28    1
     4    18    17    1
     5    19    17    1
     6    19    21    1
     7    30    31    2
     8    17    15    1
     9    28    26    2
    10    31    22    1
    11    31    25    1
    12    21    22    1
    13    21    16    1
    14    10     9    2
    15    26    25    1
    16    26    27    1
    17    15    16    1
    18    15    14    1
    19    22    23    1
    20    25    24    2
    21    14    13    1
    22    13     9    1
    23     9    11    1
    24     9    12    1
    25    23    24    1
    26    12     5    1
    27     5     8    1
    28     5     6    2
    29     5     7    1
    30     8     1    1
    31     3     1    2
    32     1     4    1
    33     1     2    1
