@<TRIPOS>MOLECULE
2chh_BMA_A_1.pdb
 12 12 0 0 0
SMALL
GASTEIGER

@<TRIPOS>ATOM
      1  C1       -12.9250   16.7350   15.8080 C.3   1118  BMA1118     0.3024
      2  C2       -12.7040   15.5180   14.9380 C.3   1118  BMA1118     0.2434
      3  C3       -12.0620   14.4080   15.7360 C.3   1118  BMA1118     0.2199
      4  C4       -10.8380   14.8670   16.5030 C.3   1118  BMA1118     0.2144
      5  C5       -11.2400   16.0360   17.4080 C.3   1118  BMA1118     0.1836
      6  C6       -10.1480   16.6330   18.2200 C.3   1118  BMA1118     0.2142
      7  O1       -13.1970   17.8710   15.1790 O.3   1118  BMA1118    -0.1869
      8  O2       -11.7920   15.8540   13.8820 O.3   1118  BMA1118    -0.2148
      9  O3       -11.6970   13.3380   14.8480 O.3   1118  BMA1118    -0.2174
     10  O4       -10.3560   13.7480   17.2270 O.3   1118  BMA1118    -0.2176
     11  O5       -11.7680   17.0910   16.5630 O.3   1118  BMA1118    -0.3236
     12  O6        -9.1190   17.1830   17.4080 O.3   1118  BMA1118    -0.2176
@<TRIPOS>BOND
     1     8     2    1
     2     9     3    1
     3     2     3    1
     4     2     1    1
     5     7     1    1
     6     3     4    1
     7     1    11    1
     8     4    10    1
     9     4     5    1
    10    11     5    1
    11     5     6    1
    12    12     6    1
