@<TRIPOS>MOLECULE
2chl_DKI_A_1.pdb
 28 30 0 0 0
SMALL
GASTEIGER

@<TRIPOS>ATOM
      1  FAF        6.6750   34.9900   22.9910 F     1323  DKI1323    -0.2027
      2  CAU        7.8690   34.7960   22.3830 C.ar  1323  DKI1323     0.1575
      3  CAI        8.0700   35.1610   21.0490 C.ar  1323  DKI1323     0.0311
      4  CAH        9.3290   34.9960   20.4670 C.ar  1323  DKI1323     0.0047
      5  CAJ       10.3840   34.4380   21.1970 C.ar  1323  DKI1323     0.0311
      6  CAV       10.1700   34.0680   22.5310 C.ar  1323  DKI1323     0.1575
      7  FAG       11.2170   33.5670   23.2080 F     1323  DKI1323    -0.2027
      8  CAZ        8.9070   34.2490   23.1310 C.ar  1323  DKI1323     0.1271
      9  NAQ        8.5810   33.8940   24.3980 N.am  1323  DKI1323    -0.1854
     10  CAS        8.9720   34.5010   25.5050 C.2   1323  DKI1323     0.1862
     11  SAE        9.9800   35.8750   25.4340 S.2   1323  DKI1323    -0.0145
     12  NBA        8.5350   34.0420   26.7010 N.am  1323  DKI1323    -0.1152
     13  NAP        7.9710   32.9550   26.8040 N.2   1323  DKI1323    -0.0877
     14  CAT        8.5440   34.6740   27.9030 C.2   1323  DKI1323     0.3142
     15  NAA        9.0360   35.8750   28.2820 N.pl3 1323  DKI1323    -0.0755
     16  NAO        7.9570   33.8900   28.7770 N.2   1323  DKI1323    -0.2988
     17  CAX        7.6120   32.8240   28.0840 C.1   1323  DKI1323     0.1878
     18  NAR        6.9650   31.8410   28.6520 N.pl3 1323  DKI1323    -0.1347
     19  CAW        6.8120   30.5990   28.1930 C.ar  1323  DKI1323     0.0827
     20  CAL        7.6270   30.0340   27.2380 C.ar  1323  DKI1323     0.0187
     21  CAN        7.4120   28.7060   26.8750 C.ar  1323  DKI1323     0.0214
     22  CAK        5.7860   29.8560   28.7810 C.ar  1323  DKI1323     0.0187
     23  CAM        5.5600   28.5470   28.4190 C.ar  1323  DKI1323     0.0214
     24  CAY        6.3740   27.9750   27.4510 C.ar  1323  DKI1323     0.1251
     25  SBB        6.1630   26.2860   26.9680 S.O2  1323  DKI1323     0.0935
     26  OAC        5.3880   25.5820   28.0460 O.2   1323  DKI1323    -0.1503
     27  OAD        5.5020   26.2040   25.6130 O.2   1323  DKI1323    -0.1503
     28  NAB        7.7420   25.6540   26.9750 N.3   1323  DKI1323     0.0392
@<TRIPOS>BOND
     1     4     3   ar
     2     4     5   ar
     3     3     2   ar
     4     5     6   ar
     5     2     1    1
     6     2     8   ar
     7     6     8   ar
     8     6     7    1
     9     8     9    1
    10     9    10    1
    11    11    10    2
    12    10    12    1
    13    27    25    2
    14    12    13    1
    15    12    14    1
    16    13    17    2
    17    21    20   ar
    18    21    24   ar
    19    25    28    1
    20    25    24    1
    21    25    26    2
    22    20    19   ar
    23    24    23   ar
    24    14    15    1
    25    14    16    2
    26    17    18    1
    27    17    16    2
    28    19    18    1
    29    19    22   ar
    30    23    22   ar
