@<TRIPOS>MOLECULE
2chm_3P4_A_1.pdb
 32 35 0 0 0
SMALL
GASTEIGER

@<TRIPOS>ATOM
      1  C1        19.9440   -6.1620   14.2150 C.2   1861  3P41861     0.1719
      2  C2        20.2460   -6.4990   15.5140 C.3   1861  3P41861     0.1465
      3  C3        20.6980   -7.1660   13.3930 C.2   1861  3P41861     0.2206
      4  N1        19.1670   -5.1940   13.5830 N.2   1861  3P41861    -0.3394
      5  N2        21.0900   -7.5880   15.4450 N.pl3 1861  3P41861    -0.2258
      6  C4        19.7310   -5.7850   16.7620 C.3   1861  3P41861     0.0287
      7  N3        21.3230   -7.9350   14.2150 N.2   1861  3P41861    -0.1664
      8  C5        20.5630   -7.0550   11.9310 C.1   1861  3P41861     0.2363
      9  C6        19.0940   -5.1590   12.2580 C.1   1861  3P41861     0.1544
     10  C7        21.6770   -8.3000   16.6060 C.3   1861  3P41861     0.1236
     11  C8        18.3220   -6.2620   17.1350 C.3   1861  3P41861     0.0023
     12  N4        19.7660   -6.0570   11.4390 N.2   1861  3P41861    -0.2646
     13  O1        21.1320   -7.8210   11.1930 O.2   1861  3P41861    -0.2069
     14  C9        18.2660   -4.1740   11.5770 C.ar  1861  3P41861     0.1391
     15  C10       20.7410   -9.4880   17.0400 C.3   1861  3P41861     0.0952
     16  C11       22.6090   -9.4810   16.1640 C.3   1861  3P41861     0.0952
     17  C12       18.7590   -3.3160   10.5380 C.ar  1861  3P41861     0.2367
     18  C13       16.8980   -4.0660   11.9480 C.ar  1861  3P41861     0.0165
     19  N5        21.5600  -10.5160   16.3310 N.3   1861  3P41861    -0.2697
     20  N6        17.9030   -2.4240    9.9370 N.ar  1861  3P41861    -0.2098
     21  O2        20.0470   -3.3970   10.1710 O.3   1861  3P41861    -0.4548
     22  C14       16.0610   -3.1370   11.3030 C.ar  1861  3P41861     0.0278
     23  C15       21.9860  -11.6670   17.1690 C.3   1861  3P41861     0.0722
     24  C16       16.5880   -2.3110   10.2810 C.ar  1861  3P41861     0.1002
     25  C17       20.5600   -2.6740    9.0200 C.3   1861  3P41861     0.2332
     26  C20       14.4120   -3.0400   11.7710 C.3   1861  3P41861     0.1758
     27  C18       20.8800  -12.7270   17.3200 C.3   1861  3P41861     0.0188
     28  C19       22.0320   -2.9600    8.9220 C.2   1861  3P41861     0.0162
     29  O3        13.6860   -2.5770   10.6770 O.3   1861  3P41861    -0.2182
     30  C21       22.8570   -2.5320    9.9750 C.2   1861  3P41861    -0.0267
     31  C22       24.2280   -2.7620    9.9320 C.3   1861  3P41861     0.0305
     32  C23       13.7440   -3.3610   13.0240 C.3   1861  3P41861     0.0405
@<TRIPOS>BOND
     1    28    25    1
     2    28    30    2
     3    25    21    1
     4    31    30    1
     5    20    24   ar
     6    20    17   ar
     7    21    17    1
     8    24    22   ar
     9    17    14   ar
    10    29    26    1
    11    13     8    2
    12    22    26    1
    13    22    18   ar
    14    12     8    2
    15    12     9    2
    16    14    18   ar
    17    14     9    1
    18    26    32    1
    19     8     3    1
    20     9     4    2
    21     3     7    2
    22     3     1    1
    23     4     1    2
    24     7     5    1
    25     1     2    1
    26     5     2    1
    27     5    10    1
    28     2     6    1
    29    16    19    1
    30    16    10    1
    31    19    15    1
    32    19    23    1
    33    10    15    1
    34     6    11    1
    35    23    27    1
