@<TRIPOS>MOLECULE
2chn_III_C_1.pdb
 20 19 0 0 0
SMALL
GASTEIGER

@<TRIPOS>ATOM
      1  N         13.7990  -38.9230   17.8550 N.3   888  UNK888     -0.1231
      2  CA        14.0380  -37.9130   18.9330 C.3   888  UNK888      0.1694
      3  C         13.4460  -38.3720   20.2670 C.2   888  UNK888      0.2592
      4  O         12.3110  -38.8480   20.3020 O.2   888  UNK888     -0.2718
      5  CB        13.4610  -36.5340   18.5220 C.3   888  UNK888      0.0304
      6  N         14.2270  -38.2410   21.3470 N.am  889  UNK889     -0.1966
      7  CA        13.7520  -38.4510   22.7250 C.3   889  UNK889      0.1728
      8  C         13.9000  -37.1370   23.5530 C.2   889  UNK889      0.2616
      9  O         14.6940  -36.2690   23.1930 O.2   889  UNK889     -0.2715
     10  CB        14.5150  -39.6200   23.3780 C.3   889  UNK889      0.0334
     11  N         13.1310  -36.9950   24.6380 N.am  890  UNK890     -0.1963
     12  CA        13.1290  -35.7740   25.4660 C.3   890  UNK890      0.1728
     13  C         13.4190  -36.0640   26.9500 C.2   890  UNK890      0.2616
     14  O         13.1390  -37.1580   27.4360 O.2   890  UNK890     -0.2715
     15  CB        11.7870  -35.0340   25.3170 C.3   890  UNK890      0.0334
     16  N         13.9680  -35.0620   27.6480 N.am  891  UNK891     -0.1977
     17  CA        14.3120  -35.1130   29.0830 C.3   891  UNK891      0.1597
     18  C         15.1640  -36.3100   29.4640 C.2   891  UNK891      0.2287
     19  O         15.6500  -36.3750   30.5920 O.2   891  UNK891     -0.2864
     20  CB        13.0610  -35.0560   29.9540 C.3   891  UNK891      0.0319
@<TRIPOS>BOND
     1     1     2    1
     2     5     2    1
     3     2     3    1
     4     3     4    2
     5     3     6   am
     6     6     7    1
     7     7    10    1
     8     7     8    1
     9     9     8    2
    10     8    11   am
    11    11    12    1
    12    15    12    1
    13    12    13    1
    14    13    14    2
    15    13    16   am
    16    16    17    1
    17    17    18    1
    18    17    20    1
    19    18    19    2
