@<TRIPOS>MOLECULE
2chn_NGT_A_1.pdb
 14 15 0 0 0
SMALL
GASTEIGER

@<TRIPOS>ATOM
      1  C1        15.7770   -5.4670   -2.5150 C.3   1718  NGT1718     0.1925
      2  C2        14.4470   -4.8100   -2.1150 C.3   1718  NGT1718     0.1740
      3  C3        14.6220   -3.7570   -1.0300 C.3   1718  NGT1718     0.2101
      4  C4        15.5280   -4.2990    0.0890 C.3   1718  NGT1718     0.2137
      5  C5        16.8920   -4.7090   -0.4650 C.3   1718  NGT1718     0.1820
      6  C6        17.8690   -5.1890    0.6030 C.3   1718  NGT1718     0.2142
      7  C7        14.9160   -3.8860   -4.2090 C.2   1718  NGT1718     0.0815
      8  C8        14.6050   -3.1110   -5.4550 C.3   1718  NGT1718     0.0587
      9  N2        13.9910   -4.2020   -3.3840 N.2   1718  NGT1718    -0.2643
     10  S1        16.4340   -4.4010   -3.7670 S.3   1718  NGT1718    -0.0689
     11  O3        13.3810   -3.3850   -0.4300 O.3   1718  NGT1718    -0.2181
     12  O4        15.6380   -3.3520    1.1650 O.3   1718  NGT1718    -0.2176
     13  O5        16.6460   -5.7880   -1.4080 O.3   1718  NGT1718    -0.3400
     14  O6        17.3250   -6.3720    1.2300 O.3   1718  NGT1718    -0.2176
@<TRIPOS>BOND
     1     8     7    1
     2     7    10    1
     3     7     9    2
     4    10     1    1
     5     9     2    1
     6     1     2    1
     7     1    13    1
     8     2     3    1
     9    13     5    1
    10     3    11    1
    11     3     4    1
    12     5     4    1
    13     5     6    1
    14     4    12    1
    15     6    14    1
