@<TRIPOS>MOLECULE
2cho_III_C_1.pdb
 20 19 0 0 0
SMALL
GASTEIGER

@<TRIPOS>ATOM
      1  N         13.5760  -38.4660   17.8900 N.3   888  UNK888     -0.1231
      2  CA        13.8040  -37.4950   18.9630 C.3   888  UNK888      0.1694
      3  C         13.2240  -37.9710   20.3000 C.2   888  UNK888      0.2592
      4  O         12.1760  -38.6210   20.3340 O.2   888  UNK888     -0.2718
      5  CB        13.2170  -36.1330   18.5850 C.3   888  UNK888      0.0304
      6  N         13.9230  -37.6460   21.3870 N.am  889  UNK889     -0.1966
      7  CA        13.4600  -37.9180   22.7510 C.3   889  UNK889      0.1728
      8  C         13.7120  -36.6870   23.6340 C.2   889  UNK889      0.2616
      9  O         14.7050  -35.9930   23.4550 O.2   889  UNK889     -0.2715
     10  CB        14.1600  -39.1530   23.3280 C.3   889  UNK889      0.0334
     11  N         12.8100  -36.4380   24.5830 N.am  890  UNK890     -0.1963
     12  CA        12.8470  -35.2340   25.4200 C.3   890  UNK890      0.1728
     13  C         13.0520  -35.5820   26.8970 C.2   890  UNK890      0.2616
     14  O         12.5690  -36.6080   27.3750 O.2   890  UNK890     -0.2715
     15  CB        11.5590  -34.4150   25.2370 C.3   890  UNK890      0.0334
     16  N         13.7690  -34.7040   27.5990 N.am  891  UNK891     -0.1977
     17  CA        14.0970  -34.8470   29.0240 C.3   891  UNK891      0.1597
     18  C         14.8800  -36.1250   29.3150 C.2   891  UNK891      0.2287
     19  O         15.6680  -36.1740   30.2610 O.2   891  UNK891     -0.2864
     20  CB        12.8420  -34.7700   29.8880 C.3   891  UNK891      0.0319
@<TRIPOS>BOND
     1     1     2    1
     2     5     2    1
     3     2     3    1
     4     3     4    2
     5     3     6   am
     6     6     7    1
     7     7    10    1
     8     7     8    1
     9     9     8    2
    10     8    11   am
    11    11    12    1
    12    15    12    1
    13    12    13    1
    14    13    14    2
    15    13    16   am
    16    16    17    1
    17    17    18    1
    18    17    20    1
    19    18    19    2
