@<TRIPOS>MOLECULE
2chq_ANP_A_1.pdb
 31 33 0 0 0
SMALL
GASTEIGER

@<TRIPOS>ATOM
      1  PG        91.0830   34.9800   72.4220 P.3   700  ANP700      0.4884
      2  O1G       90.0370   34.4560   71.3310 O.2   700  ANP700     -0.2331
      3  O2G       91.2070   33.9380   73.6100 O.3   700  ANP700     -0.1240
      4  O3G       90.6670   36.3630   73.0790 O.3   700  ANP700     -0.1240
      5  PB        94.1280   34.2980   71.9970 P.3   700  ANP700      0.4669
      6  O1B       95.2930   35.3730   71.8050 O.3   700  ANP700     -0.1253
      7  O2B       94.4240   33.0900   70.9800 O.2   700  ANP700     -0.2351
      8  N3B       92.6250   35.1670   71.6200 N.3   700  ANP700     -0.0163
      9  PA        94.1030   34.6930   74.7340 P.3   700  ANP700      0.2220
     10  O1A       93.0130   35.8320   74.4970 O.2   700  ANP700     -0.5170
     11  O2A       93.6790   33.8140   75.9590 O.3   700  ANP700     -0.4370
     12  O3A       94.1960   33.6960   73.4920 O.3   700  ANP700     -0.2360
     13  O5'       95.5860   35.2830   74.9930 O.3   700  ANP700     -0.3111
     14  C5'       96.6870   35.3020   74.0720 C.3   700  ANP700      0.1813
     15  C4'       97.9670   34.9790   74.8200 C.3   700  ANP700      0.1821
     16  O4'       98.3280   36.0950   75.6350 O.3   700  ANP700     -0.3135
     17  C3'       97.5870   33.8270   75.7210 C.3   700  ANP700      0.2184
     18  O3'       98.2100   32.5990   75.3580 O.3   700  ANP700     -0.2174
     19  C2'       97.7780   34.3520   77.1370 C.3   700  ANP700      0.2570
     20  O2'       98.7920   33.6690   77.8380 O.3   700  ANP700     -0.2130
     21  C1'       98.1830   35.8070   77.0120 C.3   700  ANP700      0.3186
     22  N9        96.9300   36.4700   77.3980 N.pl3 700  ANP700     -0.1439
     23  C8        96.0000   36.9640   76.5630 C.3   700  ANP700      0.3377
     24  N7        94.9120   37.5050   77.1830 N.2   700  ANP700     -0.2095
     25  C5        95.1330   37.3530   78.4820 C.2   700  ANP700      0.2526
     26  C6        94.4660   37.6770   79.7500 C.2   700  ANP700      0.4393
     27  N6        93.2670   38.2950   79.7450 N.pl3 700  ANP700      0.2180
     28  N1        95.0730   37.3360   80.9080 N.2   700  ANP700      0.0021
     29  C2        96.2710   36.7140   80.9710 C.3   700  ANP700      0.5254
     30  N3        96.9800   36.3770   79.8810 N.2   700  ANP700     -0.0055
     31  C4        96.4190   36.6900   78.5940 C.2   700  ANP700      0.3518
@<TRIPOS>BOND
     1     7     5    2
     2     2     1    2
     3     8     5    1
     4     8     1    1
     5     6     5    1
     6     5    12    1
     7     1     4    1
     8     1     3    1
     9    12     9    1
    10    14    15    1
    11    14    13    1
    12    10     9    2
    13     9    13    1
    14     9    11    1
    15    15    16    1
    16    15    17    1
    17    18    17    1
    18    16    21    1
    19    17    19    1
    20    23    24    1
    21    23    22    1
    22    21    19    1
    23    21    22    1
    24    19    20    1
    25    24    25    2
    26    22    31    1
    27    25    31    1
    28    25    26    1
    29    31    30    2
    30    27    26    1
    31    26    28    2
    32    30    29    1
    33    28    29    1
