@<TRIPOS>MOLECULE
2cht_TSA_A_1.pdb
 17 18 0 0 0
SMALL
GASTEIGER

@<TRIPOS>ATOM
      1  C1        37.4600   18.0580   28.1020 C.3   203  TSA203      0.1173
      2  C2        38.0790   19.4080   28.4190 C.2   203  TSA203     -0.0180
      3  C3        38.7820   19.6540   29.5470 C.2   203  TSA203      0.0009
      4  C4        39.2290   18.5490   30.4780 C.3   203  TSA203      0.1592
      5  O5        38.8690   18.9650   31.7680 O.3   203  TSA203     -0.3776
      6  C5        38.6700   17.1640   30.0790 C.3   203  TSA203      0.1475
      7  C6        37.2960   17.2980   29.4300 C.3   203  TSA203      0.0473
      8  O7        39.4770   16.3770   29.1960 O.3   203  TSA203     -0.3447
      9  C8        39.6570   16.7130   27.8230 C.3   203  TSA203      0.2185
     10  C9        38.3530   17.2140   27.1710 C.3   203  TSA203      0.0562
     11  C10       36.0970   18.2590   27.4120 C.2   203  TSA203      0.3677
     12  O1        36.0150   19.0270   26.4550 O.co2 203  TSA203     -0.2453
     13  O2        35.0970   17.6600   27.8200 O.co2 203  TSA203     -0.2453
     14  C11       40.9030   17.6210   27.6480 C.2   203  TSA203      0.3913
     15  O3        41.7380   17.6760   28.5720 O.co2 203  TSA203     -0.2430
     16  O4        41.0360   18.2680   26.5930 O.co2 203  TSA203     -0.2430
     17  HO5       39.4070   19.7340   31.9170 H     203  TSA203      0.2109
@<TRIPOS>BOND
     1    12    11   ar
     2    16    14   ar
     3    10     9    1
     4    10     1    1
     5    11    13   ar
     6    11     1    1
     7    14     9    1
     8    14    15   ar
     9     9     8    1
    10     1     2    1
    11     1     7    1
    12     2     3    2
    13     8     6    1
    14     7     6    1
    15     3     4    1
    16     6     4    1
    17     4     5    1
    18     5    17    1
