@<TRIPOS>MOLECULE
2chu_ECA_B_1.pdb
 42 45 0 0 0
SMALL
GASTEIGER

@<TRIPOS>ATOM
      1  O20       10.1220    2.3330   -2.6410 O.3   1311  ECA1311    -0.2831
      2  C17       10.8020    2.7510   -1.5860 C.ar  1311  ECA1311     0.2344
      3  C18       11.6090    3.8750   -1.7050 C.ar  1311  ECA1311     0.2386
      4  O19       11.6430    4.5300   -2.8380 O.3   1311  ECA1311    -0.2830
      5  C16       10.7290    2.0760   -0.3650 C.ar  1311  ECA1311     0.0454
      6  C15       11.4640    2.5610    0.7220 C.ar  1311  ECA1311     0.0036
      7  C14       12.2240    3.7050    0.5900 C.ar  1311  ECA1311     0.0080
      8  C13       12.3290    4.3620   -0.6310 C.ar  1311  ECA1311     0.0971
      9  C11       13.2090    5.5910   -0.7920 C.2   1311  ECA1311     0.2683
     10  O12       13.5750    6.1700    0.2400 O.2   1311  ECA1311    -0.2682
     11  N10       13.5590    6.0420   -2.0260 N.am  1311  ECA1311    -0.1967
     12  C9        14.2920    7.2940   -2.2010 C.3   1311  ECA1311     0.1418
     13  C2        15.7060    7.1650   -1.7000 C.ar  1311  ECA1311    -0.0011
     14  C1        16.3530    5.9490   -1.7640 C.ar  1311  ECA1311    -0.0051
     15  C3        16.3570    8.2440   -1.1430 C.ar  1311  ECA1311    -0.0051
     16  C4        17.6500    8.1210   -0.6670 C.ar  1311  ECA1311    -0.0011
     17  C8        18.2710    9.3410   -0.0480 C.3   1311  ECA1311     0.1418
     18  N21       19.7300    9.4460   -0.2360 N.am  1311  ECA1311    -0.1967
     19  C22       20.3460   10.6280   -0.0690 C.2   1311  ECA1311     0.2683
     20  O23       19.7120   11.5790    0.4490 O.2   1311  ECA1311    -0.2682
     21  C24       21.7030   10.8340   -0.7020 C.ar  1311  ECA1311     0.0971
     22  C25       22.2620   12.1230   -0.7000 C.ar  1311  ECA1311     0.0080
     23  C26       23.4850   12.4170   -1.3280 C.ar  1311  ECA1311     0.0036
     24  C27       24.1810   11.4140   -1.9780 C.ar  1311  ECA1311     0.0454
     25  C28       23.6130   10.1620   -1.9910 C.ar  1311  ECA1311     0.2344
     26  O31       24.2280    9.2190   -2.6030 O.3   1311  ECA1311    -0.2831
     27  C29       22.3990    9.8350   -1.3840 C.ar  1311  ECA1311     0.2386
     28  O30       21.9970    8.5670   -1.4580 O.3   1311  ECA1311    -0.2830
     29  C5        18.3100    6.9030   -0.7480 C.ar  1311  ECA1311    -0.0051
     30  C6        17.6410    5.8190   -1.2960 C.ar  1311  ECA1311    -0.0011
     31  C7        18.2480    4.4780   -1.4380 C.3   1311  ECA1311     0.1418
     32  N32       19.6870    4.5070   -1.3600 N.am  1311  ECA1311    -0.1967
     33  C33       20.3600    4.1370   -0.2840 C.2   1311  ECA1311     0.2683
     34  O34       19.6970    3.7380    0.6710 O.2   1311  ECA1311    -0.2682
     35  C35       21.8700    4.3890   -0.1190 C.ar  1311  ECA1311     0.0971
     36  C36       22.6220    3.8100    0.9290 C.ar  1311  ECA1311     0.0080
     37  C37       23.9890    4.1250    1.1090 C.ar  1311  ECA1311     0.0036
     38  C38       24.6580    5.0300    0.2910 C.ar  1311  ECA1311     0.0454
     39  C39       23.9010    5.6280   -0.6980 C.ar  1311  ECA1311     0.2344
     40  O42       24.3960    6.5240   -1.5410 O.3   1311  ECA1311    -0.2831
     41  C40       22.5630    5.3030   -0.8940 C.ar  1311  ECA1311     0.2386
     42  O41       21.9980    5.9540   -1.8670 O.3   1311  ECA1311    -0.2830
@<TRIPOS>BOND
     1     4     3    1
     2     1     2    1
     3    26    25    1
     4    12    11    1
     5    12    13    1
     6    11     9   am
     7    25    24   ar
     8    25    27   ar
     9    24    23   ar
    10    42    41    1
    11    14    13   ar
    12    14    30   ar
    13     3     2   ar
    14     3     8   ar
    15    13    15   ar
    16     2     5   ar
    17    40    39    1
    18    28    27    1
    19    31    32    1
    20    31    30    1
    21    27    21   ar
    22    32    33   am
    23    23    22   ar
    24    30    29   ar
    25    15    16   ar
    26    41    39   ar
    27    41    35   ar
    28     9     8    1
    29     9    10    2
    30    29    16   ar
    31    21    22   ar
    32    21    19    1
    33    39    38   ar
    34    16    17    1
    35     8     7   ar
    36     5     6   ar
    37    33    35    1
    38    33    34    2
    39    18    19   am
    40    18    17    1
    41    35    36   ar
    42    19    20    2
    43    38    37   ar
    44     7     6   ar
    45    36    37   ar
