@<TRIPOS>MOLECULE
2chw_039_A_1.pdb
 31 35 0 0 0
SMALL
GASTEIGER

@<TRIPOS>ATOM
      1  CAU       50.8990   16.3190   31.0490 C.3   2093  0392093     0.2525
      2  OAT       49.8180   16.4300   31.9910 O.3   2093  0392093    -0.4702
      3  CAP       49.0900   17.5720   31.8950 C.ar  2093  0392093     0.1526
      4  CAQ       49.4830   18.6530   31.1140 C.ar  2093  0392093     0.0382
      5  CAR       48.6960   19.8030   31.0690 C.ar  2093  0392093     0.0032
      6  CAJ       47.5060   19.8780   31.8010 C.ar  2093  0392093     0.0015
      7  CAI       47.1210   18.7960   32.5900 C.ar  2093  0392093     0.0184
      8  CAH       47.9120   17.6500   32.6170 C.ar  2093  0392093     0.0942
      9  NAG       47.4980   16.5900   33.4170 N.am  2093  0392093    -0.2085
     10  CAF       48.0760   16.4810   34.6750 C.2   2093  0392093     0.2612
     11  OAB       48.9180   17.3100   34.9960 O.2   2093  0392093    -0.2691
     12  CAE       47.6950   15.4550   35.5310 C.2   2093  0392093     0.0905
     13  CAD       48.2370   15.2870   36.8230 C.2   2093  0392093     0.0639
     14 CL         49.4490   16.3440   37.5170 Cl    2093  0392093    -0.0820
     15  CAC       47.7970   14.2260   37.6120 C.2   2093  0392093     0.0075
     16  CAK       46.8480   13.3370   37.1520 C.2   2093  0392093    -0.0178
     17  CAL       46.3170   13.5250   35.8880 C.3   2093  0392093     0.0852
     18  CAM       46.7300   14.5650   35.0630 C.2   2093  0392093     0.1198
     19  NAN       46.1850   14.6820   33.8300 N.2   2093  0392093    -0.3937
     20  CAO       46.5280   15.6630   32.9870 C.2   2093  0392093     0.1808
     21  CAS       45.9320   15.7890   31.5640 C.3   2093  0392093     0.1388
     22  S6        44.6330   14.5990   31.0330 S.3   2093  0392093    -0.0840
     23  C6        45.2080   13.0480   30.3300 C.2   2093  0392093     0.1308
     24  C5        46.5170   12.6520   30.2720 C.2   2093  0392093     0.1625
     25  N7        47.6430   13.2240   30.6340 N.2   2093  0392093    -0.2314
     26  C8        48.6300   12.3630   30.3220 C.3   2093  0392093     0.2617
     27  N9        48.1340   11.2520   29.7580 N.2   2093  0392093    -0.1916
     28  C4        46.8160   11.3990   29.7150 C.1   2093  0392093     0.0501
     29  N3        45.8470   10.5960   29.2640 N.2   2093  0392093    -0.1916
     30  C2        44.5940   11.0010   29.3190 C.3   2093  0392093     0.2615
     31  N1        44.2880   12.1810   29.8280 N.2   2093  0392093    -0.2351
@<TRIPOS>BOND
     1    29    30    1
     2    29    28    2
     3    30    31    1
     4    28    27    2
     5    28    24    1
     6    27    26    1
     7    31    23    2
     8    24    23    1
     9    24    25    2
    10    26    25    1
    11    23    22    1
    12    22    21    1
    13     1     2    1
    14     5     4   ar
    15     5     6   ar
    16     4     3   ar
    17    21    20    1
    18     6     7   ar
    19     3     2    1
    20     3     8   ar
    21     7     8   ar
    22     8     9    1
    23    20     9    1
    24    20    19    2
    25     9    10   am
    26    19    18    2
    27    10    11    2
    28    10    12    1
    29    18    12    1
    30    18    17    1
    31    12    13    2
    32    17    16    1
    33    13    14    1
    34    13    15    1
    35    16    15    2
