@<TRIPOS>MOLECULE
2chx_090_A_1.pdb
 26 29 0 0 0
SMALL
GASTEIGER

@<TRIPOS>ATOM
      1  OAU       43.9370   13.1730   32.7120 O.2   2093  0902093    -0.2678
      2  CAO       43.4190   12.3190   32.0050 C.2   2093  0902093     0.2738
      3  CAP       42.0440   11.8030   32.3370 C.ar  2093  0902093     0.0746
      4  CAQ       41.4530   10.8220   31.5430 C.ar  2093  0902093     0.1034
      5  NAR       40.2450   10.3360   31.8800 N.ar  2093  0902093    -0.2422
      6  CAX       39.5970   10.7580   32.9850 C.ar  2093  0902093     0.0989
      7  CAW       40.1490   11.7060   33.8320 C.ar  2093  0902093     0.0208
      8  CAV       41.3890   12.2250   33.5040 C.ar  2093  0902093     0.0077
      9  NAN       44.1030   11.6770   31.0610 N.am  2093  0902093    -0.1292
     10  CAM       45.3760   11.9880   30.7450 C.2   2093  0902093     0.2822
     11  NAL       46.0670   12.9780   31.3930 N.2   2093  0902093    -0.3696
     12  CAK       47.3740   13.2620   31.1040 C.2   2093  0902093     0.1597
     13  CAJ       48.0250   14.2850   31.7910 C.2   2093  0902093     0.1983
     14  OAT       47.3320   15.0180   32.7090 O.2   2093  0902093    -0.4661
     15  CAZ       46.5530   16.1210   32.2100 C.3   2093  0902093     0.2527
     16  CAE       48.0570   12.5260   30.1190 C.3   2093  0902093     0.1347
     17  CAF       47.3610   11.4980   29.4700 C.ar  2093  0902093     0.1376
     18  NAG       46.0380   11.2310   29.7700 N.ar  2093  0902093    -0.2529
     19  CAH       45.4950   10.1250   28.9960 C.ar  2093  0902093     0.1054
     20  CAB       46.7150    9.7690   28.1480 C.ar  2093  0902093     0.1193
     21  NAA       47.7870   10.6690   28.5230 N.ar  2093  0902093    -0.2281
     22  CAD       49.3980   12.8300   29.8200 C.2   2093  0902093    -0.0086
     23  CAC       50.0470   13.8570   30.5070 C.2   2093  0902093     0.0364
     24  CAI       49.3570   14.6060   31.4920 C.2   2093  0902093     0.1743
     25  OAS       49.9880   15.6380   32.1650 O.2   2093  0902093    -0.4683
     26  CAY       51.3320   16.0090   31.8240 C.3   2093  0902093     0.2526
@<TRIPOS>BOND
     1    20    21   ar
     2    20    19   ar
     3    21    17   ar
     4    19    18   ar
     5    17    18   ar
     6    17    16    1
     7    18    10    1
     8    22    16    1
     9    22    23    2
    10    16    12    1
    11    23    24    1
    12    10     9    1
    13    10    11    2
    14     9     2   am
    15    12    11    2
    16    12    13    1
    17    24    13    2
    18    24    25    1
    19     4     5   ar
    20     4     3   ar
    21    13    14    1
    22    26    25    1
    23     5     6   ar
    24     2     3    1
    25     2     1    2
    26    15    14    1
    27     3     8   ar
    28     6     7   ar
    29     8     7   ar
