@<TRIPOS>MOLECULE
2chz_093_A_1.pdb
 24 25 0 0 0
SMALL
GASTEIGER

@<TRIPOS>ATOM
      1  OAM       44.3600   14.0700   34.5390 O.2   2093  0932093    -0.1516
      2  SAN       43.1120   13.3650   34.1170 S.O2  2093  0932093     0.0777
      3  OAO       42.7760   12.3580   35.1680 O.2   2093  0932093    -0.1516
      4  NAU       41.9560   14.3530   34.0230 N.3   2093  0932093    -0.0750
      5  CAV       42.2120   15.7750   33.8090 C.3   2093  0932093     0.1509
      6  CAW       40.8750   16.3870   33.3920 C.3   2093  0932093     0.2028
      7  OAX       40.9830   16.9600   32.0940 O.3   2093  0932093    -0.2187
      8  CAF       43.4250   12.5360   32.5900 C.ar  2093  0932093     0.1338
      9  CAB       42.4200   11.8410   31.9140 C.ar  2093  0932093     0.0763
     10 CL         40.8130   11.7790   32.5390 Cl    2093  0932093    -0.0809
     11  CAC       42.6890   11.1820   30.7180 C.ar  2093  0932093     0.0125
     12  CAD       43.9670   11.1960   30.1730 C.ar  2093  0932093    -0.0021
     13  CAG       44.7030   12.5410   32.0240 C.ar  2093  0932093     0.0178
     14  CAH       44.9890   11.8790   30.8220 C.ar  2093  0932093    -0.0044
     15  CAI       46.2860   11.9110   30.2930 C.3   2093  0932093     0.1256
     16  CAJ       46.7240   11.2980   29.1190 C.2   2093  0932093     0.1035
     17  CAE       45.8850   10.4650   28.1490 C.3   2093  0932093     0.0628
     18  NAK       48.0130   11.5100   28.8790 N.2   2093  0932093    -0.3864
     19  SAP       47.5390   12.7680   31.0890 S.3   2093  0932093    -0.0548
     20  CAQ       48.5840   12.2600   29.8180 C.2   2093  0932093     0.2328
     21  NAR       49.8860   12.5750   29.7820 N.am  2093  0932093    -0.1437
     22  CAS       50.4440   13.7270   30.1800 C.2   2093  0932093     0.2486
     23  OAL       49.8210   14.6770   30.6220 O.2   2093  0932093    -0.2729
     24  CAT       51.9360   13.7990   30.0350 C.3   2093  0932093     0.0969
@<TRIPOS>BOND
     1    17    16    1
     2    18    16    2
     3    18    20    2
     4    16    15    1
     5    21    20    1
     6    21    22   am
     7    20    19    1
     8    24    22    1
     9    12    11   ar
    10    12    14   ar
    11    22    23    2
    12    15    14    1
    13    15    19    1
    14    11     9   ar
    15    14    13   ar
    16     9    10    1
    17     9     8   ar
    18    13     8   ar
    19     7     6    1
    20     8     2    1
    21     6     5    1
    22     5     4    1
    23     4     2    1
    24     2     1    2
    25     2     3    2
