@<TRIPOS>MOLECULE
2ci0_1CM_A_1.pdb
 18 19 0 0 0
SMALL
GASTEIGER

@<TRIPOS>ATOM
      1  O23      -16.9180   -2.7230   69.7420 O.2   1450  1CM1450    -0.2726
      2  C22      -16.1220   -1.9140   69.3080 C.2   1450  1CM1450     0.2492
      3  C31      -15.6730   -0.7940   70.1960 C.3   1450  1CM1450     0.1007
      4  C36      -15.9750    0.5730   69.5270 C.3   1450  1CM1450     0.0136
      5  C35      -17.4920    0.7700   69.3510 C.3   1450  1CM1450     0.0009
      6  C33      -13.7970   -1.9780   71.4230 C.ar  1450  1CM1450    -0.0038
      7  C32      -14.1810   -0.9930   70.4840 C.ar  1450  1CM1450    -0.0138
      8  C41      -11.8250   -0.4360   70.1360 C.ar  1450  1CM1450    -0.0003
      9  C42      -11.4550   -1.4210   71.0770 C.ar  1450  1CM1450    -0.0000
     10  N21      -15.6120   -1.9800   68.0410 N.am  1450  1CM1450    -0.1788
     11  C14      -15.9220   -2.9490   67.0860 C.ar  1450  1CM1450     0.0765
     12  C15      -16.8510   -4.0000   67.3350 C.ar  1450  1CM1450     0.0373
     13  C11      -12.4430   -2.1910   71.7180 C.ar  1450  1CM1450    -0.0003
     14  C16      -17.1040   -4.9030   66.3450 C.ar  1450  1CM1450     0.1002
     15  N11      -16.4760   -4.7860   65.1570 N.ar  1450  1CM1450    -0.2422
     16  C12      -15.5980   -3.8230   64.8740 C.ar  1450  1CM1450     0.1002
     17  C10      -13.1810   -0.2200   69.8370 C.ar  1450  1CM1450    -0.0038
     18  C13      -15.2920   -2.8740   65.8240 C.ar  1450  1CM1450     0.0373
@<TRIPOS>BOND
     1    16    15   ar
     2    16    18   ar
     3    15    14   ar
     4    18    11   ar
     5    14    12   ar
     6    11    12   ar
     7    11    10    1
     8    10     2   am
     9     2     1    2
    10     2     3    1
    11     5     4    1
    12     4     3    1
    13    17     8   ar
    14    17     7   ar
    15     8     9   ar
    16     3     7    1
    17     7     6   ar
    18     9    13   ar
    19     6    13   ar
