@<TRIPOS>MOLECULE
2ci0_HEM_A_1.pdb
 43 50 0 0 0
SMALL
GASTEIGER

@<TRIPOS>ATOM
      1 FE        -17.0410   -6.9190   63.6350 Fe    1449  HEM1449     0.0000
      2  CHA      -18.5000   -8.5910   66.2540 C.2   1449  HEM1449     0.0000
      3  CHB      -13.9420   -8.1060   64.6080 C.2   1449  HEM1449     0.0000
      4  CHC      -15.6820   -5.5820   60.7930 C.2   1449  HEM1449     0.0000
      5  CHD      -20.0820   -5.4900   62.8520 C.2   1449  HEM1449     0.0000
      6  NA       -16.3730   -8.0570   65.1220 N.2   1449  HEM1449     0.0000
      7  C1A      -17.1110   -8.6790   66.1270 C.2   1449  HEM1449     0.0000
      8  C2A      -16.2310   -9.3390   67.0940 C.2   1449  HEM1449     0.0000
      9  C3A      -14.9650   -9.1480   66.6420 C.2   1449  HEM1449     0.0000
     10  C4A      -15.0510   -8.4000   65.4170 C.2   1449  HEM1449     0.0000
     11  CMA      -13.6900   -9.5990   67.3330 C.3   1449  HEM1449     0.0000
     12  CAA      -16.6030   -9.9720   68.4310 C.3   1449  HEM1449     0.0000
     13  CBA      -16.8330   -8.8590   69.4380 C.3   1449  HEM1449     0.0000
     14  CGA      -17.1200   -9.3640   70.8430 C.2   1449  HEM1449     0.0000
     15  O1A      -17.3230  -10.5810   71.0220 O.co2 1449  HEM1449     0.0000
     16  O2A      -17.1440   -8.5280   71.7690 O.co2 1449  HEM1449     0.0000
     17  NB       -15.2160   -6.8300   62.8870 N.ar  1449  HEM1449     0.0000
     18  C1B      -14.0290   -7.3940   63.4010 C.ar  1449  HEM1449     0.0000
     19  C2B      -12.9510   -7.1850   62.4910 C.ar  1449  HEM1449     0.0000
     20  C3B      -13.4320   -6.4980   61.4020 C.ar  1449  HEM1449     0.0000
     21  C4B      -14.8410   -6.2660   61.6670 C.ar  1449  HEM1449     0.0000
     22  CMB      -11.5280   -7.6810   62.7200 C.3   1449  HEM1449     0.0000
     23  CAB      -12.7790   -6.0970   60.2240 C.3   1449  HEM1449     0.0000
     24  CBB      -11.6120   -6.6860   59.6400 C.3   1449  HEM1449     0.0000
     25  NC       -17.7180   -5.7870   62.1460 N.2   1449  HEM1449     0.0000
     26  C1C      -17.0320   -5.3470   61.0290 C.2   1449  HEM1449     0.0000
     27  C2C      -17.8890   -4.5470   60.1570 C.2   1449  HEM1449     0.0000
     28  C3C      -19.0860   -4.4400   60.7790 C.2   1449  HEM1449     0.0000
     29  C4C      -19.0050   -5.2330   61.9900 C.2   1449  HEM1449     0.0000
     30  CMC      -17.5440   -4.0100   58.7840 C.3   1449  HEM1449     0.0000
     31  CAC      -20.1550   -3.6430   60.3700 C.3   1449  HEM1449     0.0000
     32  CBC      -21.0500   -3.9970   59.2910 C.3   1449  HEM1449     0.0000
     33  ND       -18.9000   -7.0460   64.3750 N.ar  1449  HEM1449     0.0000
     34  C1D      -20.0280   -6.3300   63.9720 C.ar  1449  HEM1449     0.0000
     35  C2D      -21.1480   -6.6420   64.8370 C.ar  1449  HEM1449     0.0000
     36  C3D      -20.7330   -7.5710   65.7260 C.ar  1449  HEM1449     0.0000
     37  C4D      -19.3310   -7.8170   65.4490 C.ar  1449  HEM1449     0.0000
     38  CMD      -22.5560   -6.0540   64.7300 C.3   1449  HEM1449     0.0000
     39  CAD      -21.5660   -8.2430   66.8130 C.3   1449  HEM1449     0.0000
     40  CBD      -21.4810   -7.5540   68.1640 C.3   1449  HEM1449     0.0000
     41  CGD      -22.1580   -8.3460   69.2660 C.2   1449  HEM1449     0.0000
     42  O1D      -22.6150   -9.4780   68.9980 O.co2 1449  HEM1449     0.0000
     43  O2D      -22.2290   -7.8380   70.4050 O.co2 1449  HEM1449     0.0000
@<TRIPOS>BOND
     1    30    27    1
     2    32    31    1
     3    24    23    1
     4    27    28    2
     5    27    26    1
     6    23    20    1
     7    31    28    1
     8    28    29    1
     9     4    26    2
    10     4    21    1
    11    26    25    1
    12    20    21   ar
    13    20    19   ar
    14    21    17   ar
    15    29    25    2
    16    29     5    1
    17    25     1    1
    18    19    22    1
    19    19    18   ar
    20     5    34    2
    21    17    18   ar
    22    17     1    1
    23    18     3    1
    24     1    33    1
    25     1     6    1
    26    34    33   ar
    27    34    35   ar
    28    33    37   ar
    29     3    10    2
    30    38    35    1
    31    35    36   ar
    32     6    10    1
    33     6     7    2
    34    10     9    1
    35    37    36   ar
    36    37     2    2
    37    36    39    1
    38     7     2    1
    39     7     8    1
    40     9     8    2
    41     9    11    1
    42    39    40    1
    43     8    12    1
    44    40    41    1
    45    12    13    1
    46    42    41   ar
    47    41    43   ar
    48    13    14    1
    49    14    15   ar
    50    14    16   ar
