@<TRIPOS>MOLECULE
2cib_CM6_A_1.pdb
 29 32 0 0 0
SMALL
GASTEIGER

@<TRIPOS>ATOM
      1  O1       -16.5210   -2.9820   69.9090 O.2   1450  CM61450    -0.2710
      2  C1       -15.9920   -2.0580   69.3000 C.2   1450  CM61450     0.2675
      3  N1       -15.7160   -2.1000   67.9980 N.am  1450  CM61450    -0.1776
      4  C2       -16.0100   -3.1270   67.1620 C.ar  1450  CM61450     0.0765
      5  C3       -15.6080   -2.9990   65.8280 C.ar  1450  CM61450     0.0373
      6  C4       -15.9030   -4.0040   64.9740 C.ar  1450  CM61450     0.1002
      7  N2       -16.5660   -5.0700   65.4310 N.ar  1450  CM61450    -0.2422
      8  C5       -16.9720   -5.2380   66.7010 C.ar  1450  CM61450     0.1002
      9  C6       -16.7080   -4.2840   67.5970 C.ar  1450  CM61450     0.0373
     10  C7       -15.6510   -0.8160   70.0060 C.3   1450  CM61450     0.1977
     11  N3       -16.7120   -0.5340   70.9880 N.3   1450  CM61450    -0.0653
     12  S1       -18.2090    0.0390   70.4580 S.O2  1450  CM61450     0.0791
     13  O2       -18.9520    0.2840   71.6410 O.2   1450  CM61450    -0.1515
     14  O3       -17.8680    1.0870   69.5450 O.2   1450  CM61450    -0.1515
     15  C8       -19.0880   -1.2130   69.5460 C.ar  1450  CM61450     0.1433
     16  C9       -19.3630   -1.0380   68.1950 C.ar  1450  CM61450     0.0216
     17  C10      -20.0520   -2.0340   67.4430 C.ar  1450  CM61450     0.0030
     18  C11      -20.4700   -3.2140   68.0240 C.ar  1450  CM61450     0.0214
     19  C12      -20.2160   -3.4630   69.4260 C.ar  1450  CM61450     0.1102
     20  N4       -20.5280   -4.5220   70.1720 N.ar  1450  CM61450    -0.1901
     21  S2       -19.9910   -4.2200   71.6190 S.2   1450  CM61450     0.1165
     22  N5       -19.3390   -2.7980   71.4840 N.ar  1450  CM61450    -0.1888
     23  C13      -19.5030   -2.4300   70.2130 C.ar  1450  CM61450     0.1274
     24  C14      -14.2760   -0.9790   70.6020 C.ar  1450  CM61450     0.0041
     25  C15      -13.2300   -0.1870   70.0940 C.ar  1450  CM61450    -0.0024
     26  C16      -11.9310   -0.3230   70.6180 C.ar  1450  CM61450    -0.0003
     27  C17      -11.6780   -1.2500   71.6460 C.ar  1450  CM61450    -0.0000
     28  C18      -12.7250   -2.0480   72.1550 C.ar  1450  CM61450    -0.0003
     29  C19      -14.0220   -1.9130   71.6340 C.ar  1450  CM61450    -0.0024
@<TRIPOS>BOND
     1     6     7   ar
     2     6     5   ar
     3     7     8   ar
     4     5     4   ar
     5     8     9   ar
     6     4     9   ar
     7     4     3    1
     8    17    18   ar
     9    17    16   ar
    10     3     2   am
    11    18    19   ar
    12    16    15   ar
    13     2     1    2
    14     2    10    1
    15    19    20   ar
    16    19    23   ar
    17    14    12    2
    18    15    23   ar
    19    15    12    1
    20    10    24    1
    21    10    11    1
    22    25    24   ar
    23    25    26   ar
    24    20    21   ar
    25    23    22   ar
    26    12    11    1
    27    12    13    2
    28    24    29   ar
    29    26    27   ar
    30    22    21   ar
    31    29    28   ar
    32    27    28   ar
