@<TRIPOS>MOLECULE
2cib_HEM_A_1.pdb
 43 50 0 0 0
SMALL
GASTEIGER

@<TRIPOS>ATOM
      1 FE        -17.0450   -6.9480   63.8830 Fe    1449  HEM1449     0.0000
      2  CHA      -18.4720   -8.6860   66.4940 C.2   1449  HEM1449     0.0000
      3  CHB      -13.9310   -8.0440   64.8520 C.2   1449  HEM1449     0.0000
      4  CHC      -15.6870   -5.4940   61.0620 C.2   1449  HEM1449     0.0000
      5  CHD      -20.0960   -5.5490   63.1330 C.2   1449  HEM1449     0.0000
      6  NA       -16.3540   -8.1220   65.3420 N.2   1449  HEM1449     0.0000
      7  C1A      -17.0720   -8.7570   66.3570 C.2   1449  HEM1449     0.0000
      8  C2A      -16.1910   -9.3170   67.3650 C.2   1449  HEM1449     0.0000
      9  C3A      -14.9120   -9.0810   66.9230 C.2   1449  HEM1449     0.0000
     10  C4A      -15.0180   -8.3950   65.6600 C.2   1449  HEM1449     0.0000
     11  CMA      -13.6150   -9.4780   67.6190 C.3   1449  HEM1449     0.0000
     12  CAA      -16.6220   -9.8740   68.7210 C.3   1449  HEM1449     0.0000
     13  CBA      -16.6480   -8.7110   69.6990 C.3   1449  HEM1449     0.0000
     14  CGA      -17.1040   -9.1040   71.0920 C.2   1449  HEM1449     0.0000
     15  O1A      -17.2110  -10.3160   71.3770 O.co2 1449  HEM1449     0.0000
     16  O2A      -17.3450   -8.1860   71.9040 O.co2 1449  HEM1449     0.0000
     17  NB       -15.2200   -6.7700   63.1410 N.ar  1449  HEM1449     0.0000
     18  C1B      -14.0370   -7.3140   63.6550 C.ar  1449  HEM1449     0.0000
     19  C2B      -12.9590   -7.0780   62.7420 C.ar  1449  HEM1449     0.0000
     20  C3B      -13.4280   -6.3900   61.6640 C.ar  1449  HEM1449     0.0000
     21  C4B      -14.8390   -6.1830   61.9300 C.ar  1449  HEM1449     0.0000
     22  CMB      -11.5590   -7.6320   62.9520 C.3   1449  HEM1449     0.0000
     23  CAB      -12.7570   -5.9800   60.4970 C.3   1449  HEM1449     0.0000
     24  CBB      -11.6160   -6.6240   59.8710 C.3   1449  HEM1449     0.0000
     25  NC       -17.7330   -5.7750   62.4300 N.2   1449  HEM1449     0.0000
     26  C1C      -17.0570   -5.3080   61.3070 C.2   1449  HEM1449     0.0000
     27  C2C      -17.9400   -4.5250   60.4360 C.2   1449  HEM1449     0.0000
     28  C3C      -19.1440   -4.4400   61.0760 C.2   1449  HEM1449     0.0000
     29  C4C      -19.0210   -5.2390   62.2820 C.2   1449  HEM1449     0.0000
     30  CMC      -17.6330   -4.0020   59.0470 C.3   1449  HEM1449     0.0000
     31  CAC      -20.2490   -3.6500   60.7260 C.3   1449  HEM1449     0.0000
     32  CBC      -21.0490   -3.8070   59.5340 C.3   1449  HEM1449     0.0000
     33  ND       -18.8800   -7.1170   64.6250 N.ar  1449  HEM1449     0.0000
     34  C1D      -20.0290   -6.4200   64.2200 C.ar  1449  HEM1449     0.0000
     35  C2D      -21.1460   -6.7600   65.0670 C.ar  1449  HEM1449     0.0000
     36  C3D      -20.7340   -7.6830   65.9460 C.ar  1449  HEM1449     0.0000
     37  C4D      -19.3080   -7.8980   65.7010 C.ar  1449  HEM1449     0.0000
     38  CMD      -22.5570   -6.1770   64.9710 C.3   1449  HEM1449     0.0000
     39  CAD      -21.6170   -8.4160   66.9550 C.3   1449  HEM1449     0.0000
     40  CBD      -21.3010   -8.0020   68.3790 C.3   1449  HEM1449     0.0000
     41  CGD      -21.9710   -8.8900   69.4080 C.2   1449  HEM1449     0.0000
     42  O1D      -21.5550   -8.8490   70.5830 O.co2 1449  HEM1449     0.0000
     43  O2D      -22.9130   -9.6280   69.0470 O.co2 1449  HEM1449     0.0000
@<TRIPOS>BOND
     1    30    27    1
     2    32    31    1
     3    24    23    1
     4    27    28    2
     5    27    26    1
     6    23    20    1
     7    31    28    1
     8     4    26    2
     9     4    21    1
    10    28    29    1
    11    26    25    1
    12    20    21   ar
    13    20    19   ar
    14    21    17   ar
    15    29    25    2
    16    29     5    1
    17    25     1    1
    18    19    22    1
    19    19    18   ar
    20     5    34    2
    21    17    18   ar
    22    17     1    1
    23    18     3    1
    24     1    33    1
    25     1     6    1
    26    34    33   ar
    27    34    35   ar
    28    33    37   ar
    29     3    10    2
    30    38    35    1
    31    35    36   ar
    32     6    10    1
    33     6     7    2
    34    10     9    1
    35    37    36   ar
    36    37     2    2
    37    36    39    1
    38     7     2    1
    39     7     8    1
    40     9     8    2
    41     9    11    1
    42    39    40    1
    43     8    12    1
    44    40    41    1
    45    12    13    1
    46    43    41   ar
    47    41    42   ar
    48    13    14    1
    49    14    15   ar
    50    14    16   ar
