@<TRIPOS>MOLECULE
2cic_DUP_A_1.pdb
 28 29 0 0 0
SMALL
GASTEIGER

@<TRIPOS>ATOM
      1  O4        28.3460   54.8390   16.3030 O.2   1968  DUP1968    -0.2085
      2  C4        28.3660   54.0570   15.2920 C.1   1968  DUP1968     0.2182
      3  C5        29.5190   54.0780   14.4780 C.2   1968  DUP1968     0.1242
      4  C6        29.5750   53.1710   13.3910 C.2   1968  DUP1968     0.0928
      5  N3        27.3470   53.2060   15.0010 N.2   1968  DUP1968    -0.2452
      6  C2        27.4120   52.3690   13.9200 C.1   1968  DUP1968     0.2844
      7  O2        26.4720   51.6290   13.6640 O.2   1968  DUP1968    -0.1918
      8  N1        28.5100   52.3790   13.1240 N.am  1968  DUP1968    -0.1790
      9  C1'       28.5980   51.4070   12.0250 C.3   1968  DUP1968     0.2090
     10  C2'       27.4890   51.5450   10.9670 C.3   1968  DUP1968     0.0874
     11  C3'       28.2210   51.0260    9.7120 C.3   1968  DUP1968     0.1857
     12  O3'       27.6500   49.7290    9.3660 O.3   1968  DUP1968    -0.2203
     13  O4'       29.8800   51.5700   11.3970 O.3   1968  DUP1968    -0.3339
     14  C4'       29.7060   50.9210   10.1060 C.3   1968  DUP1968     0.1774
     15  C5'       30.6550   51.5270    9.1200 C.3   1968  DUP1968     0.1848
     16  O5'       31.9820   51.2330    9.5780 O.3   1968  DUP1968    -0.2775
     17  PA        33.2610   51.8500    8.8160 P.3   1968  DUP1968     0.4623
     18  O1A       32.9860   53.1550    8.1440 O.2   1968  DUP1968    -0.2354
     19  O2A       34.3090   51.9240    9.9110 O.3   1968  DUP1968    -0.1255
     20  N3A       33.7610   50.6540    7.8290 N.3   1968  DUP1968    -0.0179
     21  PB        32.8970   49.8920    6.5780 P.3   1968  DUP1968     0.4700
     22  O1B       32.2830   48.6560    7.1050 O.3   1968  DUP1968    -0.1252
     23  O2B       31.9610   50.9370    6.0410 O.2   1968  DUP1968    -0.2350
     24  O3B       34.0740   49.4260    5.6150 O.3   1968  DUP1968    -0.1901
     25  PG        35.3100   49.9700    4.7990 P.3   1968  DUP1968     0.5397
     26  O2G       36.4750   49.9960    5.7210 O.3   1968  DUP1968    -0.1143
     27  O1G       35.1050   51.3460    4.2320 O.3   1968  DUP1968    -0.1143
     28  O3G       35.1240   48.8610    3.7870 O.2   1968  DUP1968    -0.2220
@<TRIPOS>BOND
     1    28    25    2
     2    27    25    1
     3    25    24    1
     4    25    26    1
     5    24    21    1
     6    23    21    2
     7    21    22    1
     8    21    20    1
     9    20    17    1
    10    18    17    2
    11    17    16    1
    12    17    19    1
    13    15    16    1
    14    15    14    1
    15    12    11    1
    16    11    14    1
    17    11    10    1
    18    14    13    1
    19    10     9    1
    20    13     9    1
    21     9     8    1
    22     8     4    1
    23     8     6   am
    24     4     3    2
    25     7     6    2
    26     6     5    2
    27     3     2    1
    28     5     2    2
    29     2     1    2
