@<TRIPOS>MOLECULE
2cie_FAD_A_1.pdb
 38 41 0 0 0
SMALL
GASTEIGER

@<TRIPOS>ATOM
      1  C1B        0.2930   23.4290    3.9790 C.3   1066  FAD1066     0.2552
      2  N9A        0.0990   21.9360    3.6810 N.pl3 1066  FAD1066    -0.1635
      3  C8A        0.4960   20.7830    4.3130 C.3   1066  FAD1066     0.3360
      4  N7A        0.1260   19.6190    3.6620 N.2   1066  FAD1066    -0.2096
      5  C5A       -0.5520   20.1160    2.5630 C.2   1066  FAD1066     0.2525
      6  C6A       -1.1850   19.4930    1.5060 C.2   1066  FAD1066     0.4393
      7  N6A       -1.2040   18.1450    1.4510 N.pl3 1066  FAD1066     0.2180
      8  N1A       -1.7830   20.2300    0.5450 N.2   1066  FAD1066     0.0021
      9  C2A       -1.7630   21.5750    0.6150 C.3   1066  FAD1066     0.5254
     10  N3A       -1.1520   22.2030    1.6420 N.2   1066  FAD1066    -0.0055
     11  C4A       -0.5420   21.4640    2.6080 C.2   1066  FAD1066     0.3502
     12  N1         0.2270   22.6810   -2.8960 N.2   1066  FAD1066    -0.2890
     13  C2        -0.4650   22.3160   -4.0060 C.1   1066  FAD1066     0.3669
     14  O2        -0.9430   23.2350   -4.7100 O.2   1066  FAD1066    -0.1744
     15  N3        -0.6020   21.0050   -4.3690 N.2   1066  FAD1066    -0.2300
     16  C4        -0.1570   19.9990   -3.6370 C.1   1066  FAD1066     0.2513
     17  O4        -0.2850   18.8320   -3.9860 O.2   1066  FAD1066    -0.2057
     18  C4X        0.6160   20.3010   -2.4230 C.2   1066  FAD1066     0.2700
     19  N5         1.1220   19.3450   -1.6250 N.2   1066  FAD1066    -0.3878
     20  C5X        1.8130   19.7090   -0.4940 C.2   1066  FAD1066     0.1320
     21  C6         2.3610   18.7630    0.3230 C.2   1066  FAD1066     0.0250
     22  C7         3.0570   19.1210    1.4750 C.2   1066  FAD1066    -0.0238
     23  C7M        3.6600   18.0130    2.3170 C.3   1066  FAD1066     0.0308
     24  C8         3.2220   20.5450    1.8410 C.2   1066  FAD1066    -0.0280
     25  C8M        3.9680   21.0240    3.0620 C.3   1066  FAD1066     0.0304
     26  C9         2.6920   21.4990    1.0300 C.2   1066  FAD1066    -0.0041
     27  C9A        2.0000   21.1380   -0.1260 C.3   1066  FAD1066     0.1497
     28  N10        1.4560   22.1450   -0.9610 N.pl3 1066  FAD1066    -0.2691
     29  C10        0.7670   21.7290   -2.0930 C.2   1066  FAD1066     0.2416
     30  C1'        1.5220   23.6000   -0.6670 C.3   1066  FAD1066     0.1294
     31  C2'        2.5810   24.4200   -1.3890 C.3   1066  FAD1066     0.2044
     32  O2'        3.8410   24.1670   -0.7750 O.3   1066  FAD1066    -0.2185
     33  C3'        2.3260   25.9220   -1.2990 C.3   1066  FAD1066     0.2166
     34  O3'        2.3160   26.3650    0.0640 O.3   1066  FAD1066    -0.2175
     35  C4'        1.0120   26.4160   -1.8930 C.3   1066  FAD1066     0.2175
     36  O4'        0.7210   25.7990   -3.1520 O.3   1066  FAD1066    -0.2175
     37  C5'        1.0870   27.9260   -2.0330 C.3   1066  FAD1066     0.2175
     38  O5'        2.4370   28.3910   -1.9310 O.3   1066  FAD1066    -0.2175
@<TRIPOS>BOND
     1    14    13    2
     2    15    13    2
     3    15    16    2
     4    13    12    2
     5    17    16    2
     6    16    18    1
     7    36    35    1
     8    12    29    2
     9    18    29    1
    10    18    19    2
    11    29    28    1
    12    37    38    1
    13    37    35    1
    14    35    33    1
    15    19    20    2
    16    31    33    1
    17    31    32    1
    18    31    30    1
    19    33    34    1
    20    28    30    1
    21    28    27    1
    22    20    27    1
    23    20    21    1
    24    27    26    1
    25    21    22    2
    26     8     9    1
    27     8     6    2
    28     9    10    1
    29    26    24    2
    30     7     6    1
    31    22    24    1
    32    22    23    1
    33     6     5    1
    34    10    11    2
    35    24    25    1
    36     5    11    1
    37     5     4    2
    38    11     2    1
    39     4     3    1
    40     2     1    1
    41     2     3    1
