@<TRIPOS>MOLECULE
2cif_FAD_A_1.pdb
 38 41 0 0 0
SMALL
GASTEIGER

@<TRIPOS>ATOM
      1  C1B       -0.1530   25.2320    3.6560 C.3   1066  FAD1066     0.2552
      2  N9A        0.0260   23.7260    3.6660 N.pl3 1066  FAD1066    -0.1635
      3  C8A        0.6540   22.8130    4.4660 C.3   1066  FAD1066     0.3360
      4  N7A        0.4620   21.5080    4.0540 N.2   1066  FAD1066    -0.2096
      5  C5A       -0.3250   21.6610    2.9150 C.2   1066  FAD1066     0.2525
      6  C6A       -0.8510   20.7660    2.0050 C.2   1066  FAD1066     0.4393
      7  N6A       -0.6500   19.4470    2.1300 N.pl3 1066  FAD1066     0.2180
      8  N1A       -1.5690   21.2060    0.9600 N.2   1066  FAD1066     0.0021
      9  C2A       -1.7950   22.5310    0.7930 C.3   1066  FAD1066     0.5254
     10  N3A       -1.2980   23.4170    1.6720 N.2   1066  FAD1066    -0.0055
     11  C4A       -0.5440   22.9800    2.7160 C.2   1066  FAD1066     0.3502
     12  N1        -0.0370   22.7000   -2.9040 N.2   1066  FAD1066    -0.2890
     13  C2        -0.7350   22.2410   -4.0300 C.1   1066  FAD1066     0.3669
     14  O2        -1.2990   22.9970   -4.8110 O.2   1066  FAD1066    -0.1744
     15  N3        -0.8120   20.9680   -4.4320 N.2   1066  FAD1066    -0.2300
     16  C4        -0.2010   20.0530   -3.7060 C.1   1066  FAD1066     0.2513
     17  O4        -0.3550   18.8850   -4.1040 O.2   1066  FAD1066    -0.2057
     18  C4X        0.5540   20.4320   -2.4810 C.2   1066  FAD1066     0.2700
     19  N5         1.1140   19.4990   -1.6750 N.2   1066  FAD1066    -0.3878
     20  C5X        1.8330   19.7290   -0.5480 C.2   1066  FAD1066     0.1320
     21  C6         2.3970   18.6850    0.1960 C.2   1066  FAD1066     0.0250
     22  C7         3.1030   18.9520    1.3830 C.2   1066  FAD1066    -0.0238
     23  C7M        3.7350   17.8270    2.1510 C.3   1066  FAD1066     0.0308
     24  C8         3.2480   20.3740    1.8140 C.2   1066  FAD1066    -0.0280
     25  C8M        4.0260   20.7910    3.0400 C.3   1066  FAD1066     0.0304
     26  C9         2.7070   21.3790    1.0710 C.2   1066  FAD1066    -0.0041
     27  C9A        1.9590   21.1090   -0.0780 C.3   1066  FAD1066     0.1497
     28  N10        1.3140   22.1350   -0.8450 N.pl3 1066  FAD1066    -0.2691
     29  C10        0.6120   21.8180   -2.0710 C.2   1066  FAD1066     0.2416
     30  C1'        1.4830   23.5250   -0.3480 C.3   1066  FAD1066     0.1294
     31  C2'        2.2600   24.3270   -1.3390 C.3   1066  FAD1066     0.2044
     32  O2'        3.5120   23.8140   -1.0510 O.3   1066  FAD1066    -0.2185
     33  C3'        2.1440   25.8160   -1.0550 C.3   1066  FAD1066     0.2166
     34  O3'        2.0070   25.7560    0.3400 O.3   1066  FAD1066    -0.2175
     35  C4'        0.9050   26.6190   -1.5320 C.3   1066  FAD1066     0.2175
     36  O4'        0.0630   25.9070   -2.4350 O.3   1066  FAD1066    -0.2175
     37  C5'        1.2080   27.9890   -2.1710 C.3   1066  FAD1066     0.2175
     38  O5'        2.5830   28.3420   -2.0970 O.3   1066  FAD1066    -0.2175
@<TRIPOS>BOND
     1    14    13    2
     2    15    13    2
     3    15    16    2
     4    17    16    2
     5    13    12    2
     6    16    18    1
     7    12    29    2
     8    18    29    1
     9    18    19    2
    10    36    35    1
    11    37    38    1
    12    37    35    1
    13    29    28    1
    14    19    20    2
    15    35    33    1
    16    31    33    1
    17    31    32    1
    18    31    30    1
    19    33    34    1
    20    28    30    1
    21    28    27    1
    22    20    27    1
    23    20    21    1
    24    27    26    1
    25    21    22    2
    26     9     8    1
    27     9    10    1
    28     8     6    2
    29    26    24    2
    30    22    24    1
    31    22    23    1
    32    10    11    2
    33    24    25    1
    34     6     7    1
    35     6     5    1
    36    11     5    1
    37    11     2    1
    38     5     4    2
    39     1     2    1
    40     2     3    1
    41     4     3    1
