@<TRIPOS>MOLECULE
2cii_III_C_1.pdb
 33 34 0 0 0
SMALL
GASTEIGER

@<TRIPOS>ATOM
      1  N         21.0310   10.5920   60.3650 N.3     6  TYR6       -0.1228
      2  CA        20.0030   11.6420   60.1070 C.3     6  TYR6        0.1721
      3  C         18.8310   11.5530   61.0710 C.2     6  TYR6        0.2437
      4  O         18.3080   10.4680   61.3290 O.2     6  TYR6       -0.2733
      5  CB        19.4730   11.5370   58.6770 C.3     6  TYR6        0.0547
      6  CG        20.4850   11.8980   57.6170 C.ar    6  TYR6       -0.0200
      7  CD1       21.1460   10.9100   56.8870 C.ar    6  TYR6       -0.0009
      8  CD2       20.7790   13.2320   57.3380 C.ar    6  TYR6       -0.0009
      9  CE1       22.0710   11.2460   55.9020 C.ar    6  TYR6        0.0417
     10  CE2       21.7000   13.5790   56.3590 C.ar    6  TYR6        0.0417
     11  CZ        22.3430   12.5840   55.6420 C.ar    6  TYR6        0.1957
     12  OH        23.2530   12.9270   54.6650 O.3     6  TYR6       -0.2866
     13  N         18.4000   12.7000   61.6190 N.am    7  PRO7       -0.2718
     14  CA        17.2800   12.7670   62.5610 C.3     7  PRO7        0.1535
     15  C         15.9390   12.5640   61.8660 C.2     7  PRO7        0.2598
     16  O         15.7630   12.9560   60.7120 O.2     7  PRO7       -0.2715
     17  CB        17.4120   14.1650   63.1470 C.3     7  PRO7        0.0310
     18  CG        17.9170   14.9460   61.9770 C.3     7  PRO7        0.0237
     19  CD        18.9930   14.0380   61.4240 C.3     7  PRO7        0.0939
     20  N         15.0000   11.9530   62.5790 N.am    8  ALA8       -0.1964
     21  CA        13.6720   11.6940   62.0400 C.3     8  ALA8        0.1728
     22  C         12.8420   12.9730   62.0210 C.2     8  ALA8        0.2617
     23  O         13.2310   13.9870   62.6010 O.2     8  ALA8       -0.2715
     24  CB        12.9720   10.6330   62.8740 C.3     8  ALA8        0.0334
     25  N         11.7000   12.9170   61.3470 N.am    9  LEU9       -0.1942
     26  CA        10.8090   14.0660   61.2540 C.3     9  LEU9        0.1978
     27  C         10.3390   14.4740   62.6430 C.2     9  LEU9        0.3842
     28  O          9.9980   15.6620   62.8320 O.co2   9  LEU9       -0.2437
     29  CB         9.5960   13.7370   60.3770 C.3     9  LEU9        0.0333
     30  CG         9.8580   13.4370   58.9000 C.3     9  LEU9        0.0023
     31  CD1        8.5530   13.0740   58.2170 C.3     9  LEU9        0.0001
     32  CD2       10.4900   14.6460   58.2320 C.3     9  LEU9        0.0001
     33  OXT       10.3000   13.5860   63.5220 O.co2   9  LEU9       -0.2437
@<TRIPOS>BOND
     1    12    11    1
     2    11     9   ar
     3    11    10   ar
     4     9     7   ar
     5    10     8   ar
     6     7     6   ar
     7     8     6   ar
     8     6     5    1
     9    31    30    1
    10    32    30    1
    11     5     2    1
    12    30    29    1
    13     2     1    1
    14     2     3    1
    15    29    26    1
    16    16    15    2
    17     3     4    2
    18     3    13   am
    19    26    25    1
    20    26    27    1
    21    25    22   am
    22    19    13    1
    23    19    18    1
    24    13    14    1
    25    15    14    1
    26    15    20   am
    27    18    17    1
    28    22    21    1
    29    22    23    2
    30    21    20    1
    31    21    24    1
    32    14    17    1
    33    27    28   ar
    34    27    33   ar
