@<TRIPOS>MOLECULE
2cin_PLP_A_1.pdb
 15 15 0 0 0
SMALL
GASTEIGER

@<TRIPOS>ATOM
      1  N1       -21.7490  -33.3150   37.3730 N.2   1450  PLP1450    -0.2505
      2  C2       -22.7080  -33.4700   36.3900 C.2   1450  PLP1450     0.0675
      3  C2A      -22.3280  -33.2530   34.9300 C.3   1450  PLP1450     0.0499
      4  C3       -24.0060  -33.8620   36.7640 C.3   1450  PLP1450     0.1913
      5  O3       -24.9050  -34.1760   35.7700 O.3   1450  PLP1450    -0.2167
      6  C4       -24.3640  -34.0860   38.1280 C.3   1450  PLP1450     0.0581
      7  C4A      -25.5490  -35.0400   38.3990 C.3   1450  PLP1450     0.0075
      8  C5       -23.3570  -33.9110   39.1040 C.2   1450  PLP1450     0.0073
      9  C6       -22.0650  -33.5320   38.7190 C.2   1450  PLP1450     0.0921
     10  C5A      -23.6630  -33.8930   40.6010 C.3   1450  PLP1450     0.1776
     11  O4P      -24.0050  -35.2070   40.9890 O.3   1450  PLP1450    -0.2656
     12  P        -24.8430  -35.4050   42.3670 P.3   1450  PLP1450     0.5329
     13  O1P      -24.0440  -34.6380   43.3920 O.3   1450  PLP1450    -0.1145
     14  O2P      -26.1890  -34.7140   42.2940 O.2   1450  PLP1450    -0.2224
     15  O3P      -24.9620  -36.8870   42.6310 O.3   1450  PLP1450    -0.1145
@<TRIPOS>BOND
     1     3     2    1
     2     5     4    1
     3     2     4    1
     4     2     1    2
     5     4     6    1
     6     1     9    1
     7     6     7    1
     8     6     8    1
     9     9     8    2
    10     8    10    1
    11    10    11    1
    12    11    12    1
    13    14    12    2
    14    12    15    1
    15    12    13    1
