@<TRIPOS>MOLECULE
2cio_III_B_2.pdb
 22 21 0 0 0
SMALL
GASTEIGER

@<TRIPOS>ATOM
      1  N          2.9510   13.3770   17.5130 N.3    95  LEU95      -0.1231
      2  CA         3.1100   14.8480   17.5320 C.3    95  LEU95       0.1693
      3  C          3.3550   15.3620   16.1110 C.2    95  LEU95       0.2593
      4  O          4.0330   14.7140   15.3270 O.2    95  LEU95      -0.2718
      5  CB         4.2870   15.2160   18.4530 C.3    95  LEU95       0.0284
      6  CG         4.2200   16.3940   19.4330 C.3    95  LEU95       0.0019
      7  CD1        4.7390   17.6830   18.8210 C.3    95  LEU95       0.0001
      8  CD2        2.8100   16.5890   20.0200 C.3    95  LEU95       0.0001
      9  N          2.7790   16.5080   15.7690 N.am   96  SER96      -0.1938
     10  CA         3.1230   17.1760   14.5070 C.3    96  SER96       0.2055
     11  C          4.3410   18.0720   14.7430 C.2    96  SER96       0.2642
     12  O          4.5900   18.4960   15.8840 O.2    96  SER96      -0.2714
     13  CB         1.9530   18.0100   13.9830 C.3    96  SER96       0.2130
     14  OG         0.7130   17.4830   14.4220 O.3    96  SER96      -0.2179
     15  N          5.1140   18.3440   13.6890 N.am   97  LEU97      -0.1977
     16  CA         6.2830   19.2340   13.8110 C.3    97  LEU97       0.1596
     17  C          5.8340   20.6890   13.9390 C.2    97  LEU97       0.2287
     18  O          6.4890   21.5100   14.5970 O.2    97  LEU97      -0.2864
     19  CB         7.2570   19.0580   12.6350 C.3    97  LEU97       0.0297
     20  CG         8.5400   19.9110   12.4940 C.3    97  LEU97       0.0022
     21  CD1        9.3980   19.9770   13.7770 C.3    97  LEU97       0.0001
     22  CD2        9.3960   19.4220   11.3040 C.3    97  LEU97       0.0001
@<TRIPOS>BOND
     1    22    20    1
     2    20    19    1
     3    20    21    1
     4    19    16    1
     5    15    16    1
     6    15    11   am
     7    16    17    1
     8    17    18    2
     9    13    14    1
    10    13    10    1
    11    10    11    1
    12    10     9    1
    13    11    12    2
    14     4     3    2
    15     9     3   am
    16     3     2    1
    17     1     2    1
    18     2     5    1
    19     5     6    1
    20     7     6    1
    21     6     8    1
