@<TRIPOS>MOLECULE
2cip_BGC_A_1.pdb
 11 11 0 0 0
SMALL
GASTEIGER

@<TRIPOS>ATOM
      1  C2        23.1500   34.9290   17.0130 C.3   1283  BGC1283     0.2141
      2  C3        24.4800   34.1760   17.0410 C.3   1283  BGC1283     0.2173
      3  C4        24.3640   32.9250   17.9040 C.3   1283  BGC1283     0.2142
      4  C5        23.2280   32.0720   17.2940 C.3   1283  BGC1283     0.1810
      5  C6        23.0830   30.7290   18.0050 C.3   1283  BGC1283     0.2141
      6  C1        21.9830   34.0210   16.5930 C.3   1283  BGC1283     0.1777
      7  O2        23.2260   36.0590   16.1360 O.3   1283  BGC1283    -0.2176
      8  O3        25.5280   35.0160   17.5670 O.3   1283  BGC1283    -0.2175
      9  O4        25.5620   32.1970   17.8860 O.3   1283  BGC1283    -0.2176
     10  O5        22.0060   32.8250   17.3490 O.3   1283  BGC1283    -0.3481
     11  O6        22.5670   30.9770   19.3150 O.3   1283  BGC1283    -0.2176
@<TRIPOS>BOND
     1     7     1    1
     2     6     1    1
     3     6    10    1
     4     1     2    1
     5     2     8    1
     6     2     3    1
     7     4    10    1
     8     4     3    1
     9     4     5    1
    10     9     3    1
    11     5    11    1
