@<TRIPOS>MOLECULE
2cip_ZZ1_A_1.pdb
 12 13 0 0 0
SMALL
GASTEIGER

@<TRIPOS>ATOM
      1  O8        11.4390   37.6770   12.1140 O.2   1285  ZZ11285    -0.2445
      2  C8        12.1690   38.0160   13.0940 C.ar  1285  ZZ11285     0.3456
      3  O1        13.3390   37.3030   13.3050 O.2   1285  ZZ11285    -0.4211
      4  C11       14.2200   37.5780   14.3190 C.ar  1285  ZZ11285     0.1484
      5  C10       15.3770   36.8160   14.4520 C.ar  1285  ZZ11285     0.0376
      6  C1        16.3270   37.1220   15.4470 C.ar  1285  ZZ11285     0.0031
      7  C2        16.0730   38.1700   16.3110 C.ar  1285  ZZ11285     0.0002
      8  C3        14.9100   38.9410   16.1740 C.ar  1285  ZZ11285     0.0027
      9  C4        13.9790   38.6570   15.1730 C.ar  1285  ZZ11285     0.0309
     10  C5        12.7140   39.4440   14.9710 C.ar  1285  ZZ11285    -0.0125
     11  C6        12.3790   40.6080   15.8690 C.3   1285  ZZ11285     0.0313
     12  C7        11.8530   39.0920   13.9360 C.ar  1285  ZZ11285     0.0781
@<TRIPOS>BOND
     1     1     2    2
     2     2     3   ar
     3     2    12   ar
     4     3     4   ar
     5    12    10   ar
     6     4     5   ar
     7     4     9   ar
     8     5     6   ar
     9    10     9   ar
    10    10    11    1
    11     9     8   ar
    12     6     7   ar
    13     8     7   ar
