@<TRIPOS>MOLECULE
2cir_BG6_A_1.pdb
 16 16 0 0 0
SMALL
GASTEIGER

@<TRIPOS>ATOM
      1  C1       -14.4600   -9.8250   -6.1040 C.3   501  BG6501      0.3024
      2  C2       -14.4390   -8.3100   -6.2540 C.3   501  BG6501      0.2434
      3  O1       -15.5120  -10.2220   -5.2240 O.3   501  BG6501     -0.1869
      4  O5       -13.2250  -10.2640   -5.5560 O.3   501  BG6501     -0.3237
      5  C3       -13.2370   -7.8790   -7.0970 C.3   501  BG6501      0.2199
      6  O2       -15.6640   -7.8980   -6.8560 O.3   501  BG6501     -0.2148
      7  C4       -11.9670   -8.4430   -6.4730 C.3   501  BG6501      0.2143
      8  O3       -13.1700   -6.4500   -7.1560 O.3   501  BG6501     -0.2174
      9  C5       -12.1030   -9.9640   -6.3740 C.3   501  BG6501      0.1808
     10  O4       -10.8040   -8.0730   -7.2210 O.3   501  BG6501     -0.2176
     11  C6       -10.8960  -10.6220   -5.7260 C.3   501  BG6501      0.1859
     12  O6       -10.8370  -10.1930   -4.3630 O.3   501  BG6501     -0.2675
     13  P         -9.3970  -10.0110   -3.6380 P.3   501  BG6501      0.5327
     14  O1P       -8.5590   -9.2060   -4.6020 O.2   501  BG6501     -0.2224
     15  O2P       -9.7630   -9.3150   -2.3400 O.3   501  BG6501     -0.1145
     16  O3P       -8.8590  -11.4040   -3.4600 O.3   501  BG6501     -0.1145
@<TRIPOS>BOND
     1    10     7    1
     2     8     5    1
     3     5     7    1
     4     5     2    1
     5     6     2    1
     6     7     9    1
     7     9    11    1
     8     9     4    1
     9     2     1    1
    10     1     4    1
    11     1     3    1
    12    11    12    1
    13    14    13    2
    14    12    13    1
    15    13    16    1
    16    13    15    1
