@<TRIPOS>MOLECULE
2cis_TA6_A_1.pdb
 16 16 0 0 0
SMALL
GASTEIGER

@<TRIPOS>ATOM
      1  O1        14.0640   12.7950   -7.0710 O.3   1290  TA61290    -0.2148
      2  C1        14.9270   11.8200   -6.4730 C.3   1290  TA61290     0.2434
      3  C2        14.1250   10.6060   -5.9960 C.3   1290  TA61290     0.2807
      4  O2        14.9250    9.8520   -5.0780 O.3   1290  TA61290    -0.1896
      5  C3        13.7410    9.6580   -7.1490 C.3   1290  TA61290     0.2409
      6  O3        14.5030    8.4260   -7.2210 O.3   1290  TA61290    -0.2149
      7  C4        12.2810    9.3610   -6.8830 C.3   1290  TA61290     0.2167
      8  O4        12.1580    8.2230   -6.0100 O.3   1290  TA61290    -0.2175
      9  C5        11.8180   10.6620   -6.2390 C.3   1290  TA61290     0.1808
     10  O5        12.8850   11.0680   -5.3880 O.3   1290  TA61290    -0.3254
     11  C6        10.4430   10.6130   -5.5780 C.3   1290  TA61290     0.1859
     12  O6        10.4550    9.9360   -4.3170 O.3   1290  TA61290    -0.2675
     13  P          9.0610    9.8130   -3.5010 P.3   1290  TA61290     0.5327
     14  O1P        9.4930    9.0950   -2.2280 O.3   1290  TA61290    -0.1145
     15  O2P        8.5820   11.2390   -3.3070 O.3   1290  TA61290    -0.1145
     16  O3P        8.1310    9.0430   -4.4120 O.2   1290  TA61290    -0.2224
@<TRIPOS>BOND
     1     6     5    1
     2     5     7    1
     3     5     3    1
     4     1     2    1
     5     7     9    1
     6     7     8    1
     7     2     3    1
     8     9    11    1
     9     9    10    1
    10     3    10    1
    11     3     4    1
    12    11    12    1
    13    16    13    2
    14    12    13    1
    15    13    15    1
    16    13    14    1
