@<TRIPOS>MOLECULE
2cit_G2F_A_1.pdb
 11 11 0 0 0
SMALL
GASTEIGER

@<TRIPOS>ATOM
      1  C1        18.1390   32.8050   13.9240 C.3   1283  G2F1283     0.1801
      2  C2        19.2960   33.5360   14.6240 C.3   1283  G2F1283     0.2230
      3  C3        19.5020   32.9870   16.0600 C.3   1283  G2F1283     0.2194
      4  C4        18.2060   33.1810   16.8160 C.3   1283  G2F1283     0.2144
      5  C5        17.1250   32.4260   16.0350 C.3   1283  G2F1283     0.1810
      6  C6        15.7550   32.4560   16.6810 C.3   1283  G2F1283     0.2141
      7  O3        20.4800   33.7780   16.7220 O.3   1283  G2F1283    -0.2173
      8  O4        18.3350   32.6550   18.1540 O.3   1283  G2F1283    -0.2176
      9  O5        16.9840   32.9990   14.7250 O.3   1283  G2F1283    -0.3479
     10  O6        15.3970   33.7890   16.9010 O.3   1283  G2F1283    -0.2176
     11  F2        20.4280   33.3480   13.9050 F     1283  G2F1283    -0.2317
@<TRIPOS>BOND
     1    11     2    1
     2     1     2    1
     3     1     9    1
     4     2     3    1
     5     9     5    1
     6     5     6    1
     7     5     4    1
     8     3     7    1
     9     3     4    1
    10     6    10    1
    11     4     8    1
