@<TRIPOS>MOLECULE
2cit_BGC_A_1.pdb
 11 11 0 0 0
SMALL
GASTEIGER

@<TRIPOS>ATOM
      1  C2        22.7680   34.2570   17.0840 C.3   1284  BGC1284     0.2141
      2  C3        24.1700   33.6530   17.1240 C.3   1284  BGC1284     0.2173
      3  C4        24.2040   32.3770   17.9840 C.3   1284  BGC1284     0.2142
      4  C5        23.0800   31.4250   17.4990 C.3   1284  BGC1284     0.1810
      5  C6        22.9630   30.1440   18.3260 C.3   1284  BGC1284     0.2141
      6  C1        21.7700   33.1830   16.6350 C.3   1284  BGC1284     0.1777
      7  O2        22.7520   35.3660   16.1760 O.3   1284  BGC1284    -0.2176
      8  O3        25.0980   34.5890   17.6410 O.3   1284  BGC1284    -0.2175
      9  O4        25.3740   31.5960   17.8490 O.3   1284  BGC1284    -0.2176
     10  O5        21.8330   32.0890   17.5400 O.3   1284  BGC1284    -0.3481
     11  O6        22.4200   30.4890   19.5940 O.3   1284  BGC1284    -0.2176
@<TRIPOS>BOND
     1     7     1    1
     2     6     1    1
     3     6    10    1
     4     1     2    1
     5     2     8    1
     6     2     3    1
     7     4    10    1
     8     4     3    1
     9     4     5    1
    10     9     3    1
    11     5    11    1
