@<TRIPOS>MOLECULE
2civ_MAN_A_1.pdb
 11 11 0 0 0
SMALL
GASTEIGER

@<TRIPOS>ATOM
      1  C1        -5.9280   21.6050  -10.4110 C.3   1306  MAN1306     0.1777
      2  C2        -7.3970   21.2810  -10.1680 C.3   1306  MAN1306     0.2141
      3  C3        -7.6820   19.8280  -10.5320 C.3   1306  MAN1306     0.2173
      4  C4        -7.1910   19.4860  -11.9460 C.3   1306  MAN1306     0.2142
      5  C5        -5.7420   19.9530  -12.1370 C.3   1306  MAN1306     0.1810
      6  C6        -5.2780   19.8280  -13.5870 C.3   1306  MAN1306     0.2141
      7  O2        -8.1910   22.1660  -10.9410 O.3   1306  MAN1306    -0.2176
      8  O3        -9.0590   19.5720  -10.3850 O.3   1306  MAN1306    -0.2175
      9  O4        -7.2530   18.0890  -12.1550 O.3   1306  MAN1306    -0.2176
     10  O5        -5.5840   21.3130  -11.7580 O.3   1306  MAN1306    -0.3481
     11  O6        -3.8760   20.0060  -13.6010 O.3   1306  MAN1306    -0.2176
@<TRIPOS>BOND
     1    11     6    1
     2     6     5    1
     3     9     4    1
     4     5     4    1
     5     5    10    1
     6     4     3    1
     7    10     1    1
     8     7     2    1
     9     3     8    1
    10     3     2    1
    11     1     2    1
