@<TRIPOS>MOLECULE
2civ_HEM_A_1.pdb
 43 50 0 0 0
SMALL
GASTEIGER

@<TRIPOS>ATOM
      1 FE          8.7320   18.8740   -1.9610 Fe    1300  HEM1300     0.0000
      2  CHA       10.6850   21.4550   -3.2130 C.2   1300  HEM1300     0.0000
      3  CHB       10.4760   16.6610   -3.9660 C.2   1300  HEM1300     0.0000
      4  CHC        6.3050   16.4830   -1.4400 C.2   1300  HEM1300     0.0000
      5  CHD        6.7960   21.1480   -0.2310 C.2   1300  HEM1300     0.0000
      6  NA        10.2690   19.0130   -3.3490 N.ar  1300  HEM1300     0.0000
      7  C1A       10.9780   20.1730   -3.6440 C.ar  1300  HEM1300     0.0000
      8  C2A       12.0810   19.8370   -4.5280 C.ar  1300  HEM1300     0.0000
      9  C3A       12.0250   18.5090   -4.7520 C.ar  1300  HEM1300     0.0000
     10  C4A       10.8900   17.9770   -4.0130 C.ar  1300  HEM1300     0.0000
     11  CMA       12.9710   17.6570   -5.6240 C.3   1300  HEM1300     0.0000
     12  CAA       13.0900   20.8700   -5.0930 C.3   1300  HEM1300     0.0000
     13  CBA       12.4300   21.8010   -6.1350 C.3   1300  HEM1300     0.0000
     14  CGA       13.1860   23.1120   -6.1120 C.2   1300  HEM1300     0.0000
     15  O1A       14.1570   23.2680   -6.8910 O.co2 1300  HEM1300     0.0000
     16  O2A       12.8360   23.9930   -5.2920 O.co2 1300  HEM1300     0.0000
     17  NB         8.4050   16.9360   -2.6440 N.2   1300  HEM1300     0.0000
     18  C1B        9.3350   16.1930   -3.3400 C.2   1300  HEM1300     0.0000
     19  C2B        8.8990   14.8050   -3.3080 C.2   1300  HEM1300     0.0000
     20  C3B        7.7440   14.7520   -2.6090 C.2   1300  HEM1300     0.0000
     21  C4B        7.4170   16.1040   -2.1750 C.2   1300  HEM1300     0.0000
     22  CMB        9.6670   13.6610   -3.9950 C.3   1300  HEM1300     0.0000
     23  CAB        6.8510   13.5390   -2.2840 C.2   1300  HEM1300     0.0000
     24  CBB        7.2610   12.2730   -2.4350 C.2   1300  HEM1300     0.0000
     25  NC         6.8910   18.8410   -0.9890 N.ar  1300  HEM1300     0.0000
     26  C1C        6.0490   17.7330   -0.9090 C.ar  1300  HEM1300     0.0000
     27  C2C        4.8800   18.1200   -0.1480 C.ar  1300  HEM1300     0.0000
     28  C3C        5.0160   19.4170    0.2160 C.ar  1300  HEM1300     0.0000
     29  C4C        6.2890   19.8790   -0.3190 C.ar  1300  HEM1300     0.0000
     30  CMC        3.6910   17.1810    0.1650 C.3   1300  HEM1300     0.0000
     31  CAC        4.0470   20.3000    1.0380 C.2   1300  HEM1300     0.0000
     32  CBC        2.7470   20.0210    1.2200 C.2   1300  HEM1300     0.0000
     33  ND         8.7480   20.9500   -1.7640 N.2   1300  HEM1300     0.0000
     34  C1D        7.7940   21.6660   -1.0400 C.2   1300  HEM1300     0.0000
     35  C2D        8.0370   23.0890   -1.2330 C.2   1300  HEM1300     0.0000
     36  C3D        9.2410   23.1850   -2.1430 C.2   1300  HEM1300     0.0000
     37  C4D        9.6170   21.8120   -2.4290 C.2   1300  HEM1300     0.0000
     38  CMD        7.2320   24.2600   -0.6490 C.3   1300  HEM1300     0.0000
     39  CAD        9.8900   24.4780   -2.6870 C.3   1300  HEM1300     0.0000
     40  CBD       11.1000   24.8430   -1.8280 C.3   1300  HEM1300     0.0000
     41  CGD       11.7360   26.0820   -2.3960 C.2   1300  HEM1300     0.0000
     42  O1D       12.6070   26.6500   -1.6850 O.co2 1300  HEM1300     0.0000
     43  O2D       11.3630   26.5080   -3.5230 O.co2 1300  HEM1300     0.0000
@<TRIPOS>BOND
     1    15    14   ar
     2    13    14    1
     3    13    12    1
     4    14    16   ar
     5    11     9    1
     6    12     8    1
     7     9     8   ar
     8     9    10   ar
     9     8     7   ar
    10    10     3    2
    11    10     6   ar
    12    22    19    1
    13     3    18    1
    14     7     6   ar
    15     7     2    2
    16    43    41   ar
    17     6     1    1
    18    18    19    1
    19    18    17    2
    20    19    20    2
    21     2    37    1
    22    39    36    1
    23    39    40    1
    24    17    21    1
    25    17     1    1
    26    20    23    1
    27    20    21    1
    28    24    23    2
    29    37    36    1
    30    37    33    2
    31    41    40    1
    32    41    42   ar
    33    21     4    2
    34    36    35    2
    35     1    33    1
    36     1    25    1
    37    33    34    1
    38     4    26    1
    39    35    34    1
    40    35    38    1
    41    34     5    2
    42    25    26   ar
    43    25    29   ar
    44    26    27   ar
    45    29     5    1
    46    29    28   ar
    47    27    30    1
    48    27    28   ar
    49    28    31    1
    50    31    32    2
