@<TRIPOS>MOLECULE
2ciw_MAN_A_1.pdb
 11 11 0 0 0
SMALL
GASTEIGER

@<TRIPOS>ATOM
      1  C1        -6.0620   21.7950  -10.5090 C.3   1306  MAN1306     0.1777
      2  C2        -7.5390   21.5210  -10.2880 C.3   1306  MAN1306     0.2141
      3  C3        -7.8560   20.0600  -10.5880 C.3   1306  MAN1306     0.2173
      4  C4        -7.3320   19.6640  -11.9700 C.3   1306  MAN1306     0.2142
      5  C5        -5.8610   20.0660  -12.1340 C.3   1306  MAN1306     0.1810
      6  C6        -5.3420   19.8860  -13.5610 C.3   1306  MAN1306     0.2141
      7  O2        -8.2970   22.3920  -11.1050 O.3   1306  MAN1306    -0.2176
      8  O3        -9.2440   19.8330  -10.4580 O.3   1306  MAN1306    -0.2175
      9  O4        -7.4600   18.2660  -12.1330 O.3   1306  MAN1306    -0.2176
     10  O5        -5.7020   21.4320  -11.8220 O.3   1306  MAN1306    -0.3481
     11  O6        -3.9370   20.0730  -13.6040 O.3   1306  MAN1306    -0.2176
@<TRIPOS>BOND
     1    11     6    1
     2     6     5    1
     3     5     4    1
     4     5    10    1
     5     9     4    1
     6     4     3    1
     7    10     1    1
     8     7     2    1
     9     3     8    1
    10     3     2    1
    11     1     2    1
