@<TRIPOS>MOLECULE
2ciw_HEM_A_1.pdb
 43 50 0 0 0
SMALL
GASTEIGER

@<TRIPOS>ATOM
      1 FE          8.6700   18.9510   -2.0070 Fe    1300  HEM1300     0.0000
      2  CHA       10.6080   21.5100   -3.2650 C.2   1300  HEM1300     0.0000
      3  CHB       10.3750   16.7600   -4.0830 C.2   1300  HEM1300     0.0000
      4  CHC        6.2420   16.5690   -1.5290 C.2   1300  HEM1300     0.0000
      5  CHD        6.7250   21.2110   -0.3710 C.2   1300  HEM1300     0.0000
      6  NA        10.1920   19.1120   -3.4400 N.ar  1300  HEM1300     0.0000
      7  C1A       10.9040   20.2550   -3.7340 C.ar  1300  HEM1300     0.0000
      8  C2A       11.9790   19.9060   -4.6200 C.ar  1300  HEM1300     0.0000
      9  C3A       11.9070   18.5870   -4.8570 C.ar  1300  HEM1300     0.0000
     10  C4A       10.7770   18.0760   -4.1300 C.ar  1300  HEM1300     0.0000
     11  CMA       12.8330   17.7570   -5.7560 C.3   1300  HEM1300     0.0000
     12  CAA       12.9780   20.9590   -5.1470 C.3   1300  HEM1300     0.0000
     13  CBA       12.3570   21.9120   -6.1790 C.3   1300  HEM1300     0.0000
     14  CGA       13.1770   23.2050   -6.1930 C.2   1300  HEM1300     0.0000
     15  O1A       14.2140   23.3910   -6.9450 O.co2 1300  HEM1300     0.0000
     16  O2A       12.7930   24.0550   -5.3390 O.co2 1300  HEM1300     0.0000
     17  NB         8.3220   17.0210   -2.7230 N.2   1300  HEM1300     0.0000
     18  C1B        9.2500   16.2560   -3.4440 C.2   1300  HEM1300     0.0000
     19  C2B        8.8100   14.8820   -3.3880 C.2   1300  HEM1300     0.0000
     20  C3B        7.6940   14.8400   -2.6640 C.2   1300  HEM1300     0.0000
     21  C4B        7.3380   16.1780   -2.2660 C.2   1300  HEM1300     0.0000
     22  CMB        9.5830   13.7300   -4.0590 C.3   1300  HEM1300     0.0000
     23  CAB        6.8150   13.6520   -2.3000 C.2   1300  HEM1300     0.0000
     24  CBB        7.0710   12.3860   -2.5710 C.2   1300  HEM1300     0.0000
     25  NC         6.8100   18.9020   -1.0790 N.ar  1300  HEM1300     0.0000
     26  C1C        5.9910   17.8070   -0.9990 C.ar  1300  HEM1300     0.0000
     27  C2C        4.8250   18.1870   -0.2310 C.ar  1300  HEM1300     0.0000
     28  C3C        5.0020   19.4560    0.1460 C.ar  1300  HEM1300     0.0000
     29  C4C        6.2400   19.9260   -0.4030 C.ar  1300  HEM1300     0.0000
     30  CMC        3.6090   17.2850    0.0480 C.3   1300  HEM1300     0.0000
     31  CAC        4.1120   20.3130    1.0280 C.2   1300  HEM1300     0.0000
     32  CBC        2.8310   20.1150    1.2230 C.2   1300  HEM1300     0.0000
     33  ND         8.6500   21.0080   -1.8890 N.2   1300  HEM1300     0.0000
     34  C1D        7.7380   21.7480   -1.1460 C.2   1300  HEM1300     0.0000
     35  C2D        7.9920   23.1470   -1.3100 C.2   1300  HEM1300     0.0000
     36  C3D        9.1750   23.2280   -2.1560 C.2   1300  HEM1300     0.0000
     37  C4D        9.5410   21.8840   -2.4870 C.2   1300  HEM1300     0.0000
     38  CMD        7.1750   24.2770   -0.7620 C.3   1300  HEM1300     0.0000
     39  CAD        9.8260   24.4820   -2.7030 C.3   1300  HEM1300     0.0000
     40  CBD       11.0650   24.9040   -1.9310 C.3   1300  HEM1300     0.0000
     41  CGD       11.6850   26.1760   -2.4860 C.2   1300  HEM1300     0.0000
     42  O1D       12.5760   26.7470   -1.7940 O.co2 1300  HEM1300     0.0000
     43  O2D       11.3350   26.6050   -3.6080 O.co2 1300  HEM1300     0.0000
@<TRIPOS>BOND
     1    15    14   ar
     2    14    13    1
     3    14    16   ar
     4    13    12    1
     5    11     9    1
     6    12     8    1
     7     9     8   ar
     8     9    10   ar
     9     8     7   ar
    10    10     3    2
    11    10     6   ar
    12     3    18    1
    13    22    19    1
    14     7     6   ar
    15     7     2    2
    16    43    41   ar
    17    18    19    1
    18    18    17    2
    19     6     1    1
    20    19    20    2
    21     2    37    1
    22    17    21    1
    23    17     1    1
    24    39    36    1
    25    39    40    1
    26    20    23    1
    27    20    21    1
    28    24    23    2
    29    37    36    1
    30    37    33    2
    31    41    40    1
    32    41    42   ar
    33    21     4    2
    34    36    35    2
    35     1    33    1
    36     1    25    1
    37    33    34    1
    38     4    26    1
    39    35    34    1
    40    35    38    1
    41    34     5    2
    42    25    26   ar
    43    25    29   ar
    44    26    27   ar
    45    29     5    1
    46    29    28   ar
    47    27    30    1
    48    27    28   ar
    49    28    31    1
    50    31    32    2
