@<TRIPOS>MOLECULE
2cix_HEM_A_1.pdb
 43 50 0 0 0
SMALL
GASTEIGER

@<TRIPOS>ATOM
      1 FE          8.7730   18.8240   -2.1080 Fe    1300  HEM1300     0.0000
      2  CHA       10.7210   21.3760   -3.3490 C.2   1300  HEM1300     0.0000
      3  CHB       10.4880   16.6040   -4.1470 C.2   1300  HEM1300     0.0000
      4  CHC        6.3180   16.4310   -1.5630 C.2   1300  HEM1300     0.0000
      5  CHD        6.8760   21.0650   -0.3810 C.2   1300  HEM1300     0.0000
      6  NA        10.2810   18.9440   -3.4990 N.ar  1300  HEM1300     0.0000
      7  C1A       11.0050   20.1120   -3.7900 C.ar  1300  HEM1300     0.0000
      8  C2A       12.1030   19.8000   -4.6760 C.ar  1300  HEM1300     0.0000
      9  C3A       12.0530   18.4660   -4.8900 C.ar  1300  HEM1300     0.0000
     10  C4A       10.9100   17.9290   -4.1820 C.ar  1300  HEM1300     0.0000
     11  CMA       12.9960   17.6250   -5.7720 C.3   1300  HEM1300     0.0000
     12  CAA       13.1340   20.8330   -5.2050 C.3   1300  HEM1300     0.0000
     13  CBA       12.5240   21.7910   -6.2520 C.3   1300  HEM1300     0.0000
     14  CGA       13.3350   23.1010   -6.2310 C.2   1300  HEM1300     0.0000
     15  O1A       14.3740   23.3100   -6.9540 O.co2 1300  HEM1300     0.0000
     16  O2A       12.9120   23.9350   -5.3900 O.co2 1300  HEM1300     0.0000
     17  NB         8.4250   16.9070   -2.7660 N.2   1300  HEM1300     0.0000
     18  C1B        9.3480   16.1690   -3.4860 C.2   1300  HEM1300     0.0000
     19  C2B        8.8900   14.7900   -3.4770 C.2   1300  HEM1300     0.0000
     20  C3B        7.7470   14.7420   -2.7610 C.2   1300  HEM1300     0.0000
     21  C4B        7.4160   16.0880   -2.3240 C.2   1300  HEM1300     0.0000
     22  CMB        9.6510   13.6400   -4.1850 C.3   1300  HEM1300     0.0000
     23  CAB        6.8440   13.5350   -2.4200 C.2   1300  HEM1300     0.0000
     24  CBB        7.2350   12.2700   -2.7050 C.2   1300  HEM1300     0.0000
     25  NC         6.9430   18.7710   -1.1140 N.ar  1300  HEM1300     0.0000
     26  C1C        6.0770   17.6860   -1.0280 C.ar  1300  HEM1300     0.0000
     27  C2C        4.9170   18.0900   -0.2650 C.ar  1300  HEM1300     0.0000
     28  C3C        5.0670   19.3800    0.1020 C.ar  1300  HEM1300     0.0000
     29  C4C        6.3490   19.8090   -0.4540 C.ar  1300  HEM1300     0.0000
     30  CMC        3.7380   17.1620    0.0500 C.3   1300  HEM1300     0.0000
     31  CAC        4.1000   20.2780    0.9380 C.2   1300  HEM1300     0.0000
     32  CBC        2.8150   19.9550    1.1320 C.2   1300  HEM1300     0.0000
     33  ND         8.7980   20.8710   -1.9180 N.2   1300  HEM1300     0.0000
     34  C1D        7.8710   21.5820   -1.1800 C.2   1300  HEM1300     0.0000
     35  C2D        8.1140   22.9940   -1.3580 C.2   1300  HEM1300     0.0000
     36  C3D        9.2960   23.1070   -2.2810 C.2   1300  HEM1300     0.0000
     37  C4D        9.6730   21.7310   -2.5660 C.2   1300  HEM1300     0.0000
     38  CMD        7.2990   24.1500   -0.7540 C.3   1300  HEM1300     0.0000
     39  CAD        9.9490   24.4090   -2.8020 C.3   1300  HEM1300     0.0000
     40  CBD       11.1490   24.7620   -1.9320 C.3   1300  HEM1300     0.0000
     41  CGD       11.8640   25.9820   -2.4600 C.2   1300  HEM1300     0.0000
     42  O1D       12.7700   26.5110   -1.7420 O.co2 1300  HEM1300     0.0000
     43  O2D       11.5560   26.4290   -3.6000 O.co2 1300  HEM1300     0.0000
@<TRIPOS>BOND
     1    15    14   ar
     2    13    14    1
     3    13    12    1
     4    14    16   ar
     5    11     9    1
     6    12     8    1
     7     9     8   ar
     8     9    10   ar
     9     8     7   ar
    10    22    19    1
    11    10     3    2
    12    10     6   ar
    13     3    18    1
    14     7     6   ar
    15     7     2    2
    16    43    41   ar
    17     6     1    1
    18    18    19    1
    19    18    17    2
    20    19    20    2
    21     2    37    1
    22    39    36    1
    23    39    40    1
    24    17    21    1
    25    17     1    1
    26    20    23    1
    27    20    21    1
    28    24    23    2
    29    37    36    1
    30    37    33    2
    31    41    40    1
    32    41    42   ar
    33    21     4    2
    34    36    35    2
    35     1    33    1
    36     1    25    1
    37    33    34    1
    38     4    26    1
    39    35    34    1
    40    35    38    1
    41    34     5    2
    42    25    26   ar
    43    25    29   ar
    44    26    27   ar
    45    29     5    1
    46    29    28   ar
    47    27    30    1
    48    27    28   ar
    49    28    31    1
    50    31    32    2
