@<TRIPOS>MOLECULE
2cix_MAN_A_10.pdb
 11 11 0 0 0
SMALL
GASTEIGER

@<TRIPOS>ATOM
      1  C1        31.5830   20.4350    0.6530 C.3   1317  MAN1317     0.1777
      2  C2        32.4720   21.3480    1.4990 C.3   1317  MAN1317     0.2141
      3  C3        33.3870   20.5020    2.4100 C.3   1317  MAN1317     0.2173
      4  C4        32.6010   19.4700    3.2340 C.3   1317  MAN1317     0.2142
      5  C5        31.6070   18.7140    2.3510 C.3   1317  MAN1317     0.1810
      6  C6        30.6790   17.8590    3.2060 C.3   1317  MAN1317     0.2141
      7  O2        31.6200   22.2040    2.2360 O.3   1317  MAN1317    -0.2176
      8  O3        34.1730   21.3170    3.2560 O.3   1317  MAN1317    -0.2175
      9  O4        33.4650   18.5190    3.8220 O.3   1317  MAN1317    -0.2176
     10  O5        30.8420   19.6080    1.5400 O.3   1317  MAN1317    -0.3481
     11  O6        30.7370   16.5220    2.7550 O.3   1317  MAN1317    -0.2176
@<TRIPOS>BOND
     1     1     2    1
     2     1    10    1
     3     2     7    1
     4     2     3    1
     5    10     5    1
     6     5     6    1
     7     5     4    1
     8     3     4    1
     9     3     8    1
    10    11     6    1
    11     4     9    1
