@<TRIPOS>MOLECULE
2ciy_HEM_A_1.pdb
 43 50 0 0 0
SMALL
GASTEIGER

@<TRIPOS>ATOM
      1 FE          8.7720   18.8980   -2.0300 Fe    396  HEM396      0.0000
      2  CHA       10.8120   21.4700   -3.1750 C.2   396  HEM396      0.0000
      3  CHB       10.6450   16.6410   -3.8270 C.2   396  HEM396      0.0000
      4  CHC        6.4150   16.4470   -1.3700 C.2   396  HEM396      0.0000
      5  CHD        6.8700   21.1380   -0.2610 C.2   396  HEM396      0.0000
      6  NA        10.4260   19.0250   -3.2690 N.ar  396  HEM396      0.0000
      7  C1A       11.1080   20.1900   -3.5920 C.ar  396  HEM396      0.0000
      8  C2A       12.2190   19.8470   -4.4790 C.ar  396  HEM396      0.0000
      9  C3A       12.1890   18.5090   -4.6690 C.ar  396  HEM396      0.0000
     10  C4A       11.0550   17.9730   -3.9200 C.ar  396  HEM396      0.0000
     11  CMA       13.1490   17.6380   -5.5210 C.3   396  HEM396      0.0000
     12  CAA       13.2140   20.8980   -5.0270 C.3   396  HEM396      0.0000
     13  CBA       12.5790   21.8540   -6.0610 C.3   396  HEM396      0.0000
     14  CGA       13.3340   23.1800   -6.0240 C.2   396  HEM396      0.0000
     15  O1A       14.3710   23.4540   -6.7510 O.co2 396  HEM396      0.0000
     16  O2A       12.8610   24.0050   -5.1890 O.co2 396  HEM396      0.0000
     17  NB         8.5600   16.9090   -2.5050 N.2   396  HEM396      0.0000
     18  C1B        9.4860   16.1610   -3.2110 C.2   396  HEM396      0.0000
     19  C2B        9.0210   14.7900   -3.2140 C.2   396  HEM396      0.0000
     20  C3B        7.8570   14.7240   -2.5280 C.2   396  HEM396      0.0000
     21  C4B        7.5350   16.0670   -2.0830 C.2   396  HEM396      0.0000
     22  CMB        9.7720   13.6170   -3.8760 C.3   396  HEM396      0.0000
     23  CAB        6.9580   13.5020   -2.2300 C.2   396  HEM396      0.0000
     24  CBB        7.3900   12.2570   -2.4120 C.2   396  HEM396      0.0000
     25  NC         6.9840   18.8120   -0.9770 N.ar  396  HEM396      0.0000
     26  C1C        6.1530   17.7070   -0.8840 C.ar  396  HEM396      0.0000
     27  C2C        4.9760   18.0990   -0.1260 C.ar  396  HEM396      0.0000
     28  C3C        5.1010   19.3900    0.2010 C.ar  396  HEM396      0.0000
     29  C4C        6.3780   19.8560   -0.3290 C.ar  396  HEM396      0.0000
     30  CMC        3.7980   17.1640    0.1670 C.3   396  HEM396      0.0000
     31  CAC        4.1290   20.2870    1.0020 C.2   396  HEM396      0.0000
     32  CBC        2.8480   19.9960    1.2540 C.2   396  HEM396      0.0000
     33  ND         8.8560   20.9690   -1.7420 N.2   396  HEM396      0.0000
     34  C1D        7.8770   21.6770   -1.0520 C.2   396  HEM396      0.0000
     35  C2D        8.1160   23.1060   -1.2520 C.2   396  HEM396      0.0000
     36  C3D        9.3420   23.2040   -2.1540 C.2   396  HEM396      0.0000
     37  C4D        9.7410   21.8440   -2.4000 C.2   396  HEM396      0.0000
     38  CMD        7.2840   24.2840   -0.6980 C.3   396  HEM396      0.0000
     39  CAD        9.9870   24.4920   -2.6820 C.3   396  HEM396      0.0000
     40  CBD       11.1820   24.8490   -1.7780 C.3   396  HEM396      0.0000
     41  CGD       11.7980   26.1090   -2.3340 C.2   396  HEM396      0.0000
     42  O1D       12.6550   26.6970   -1.6450 O.co2 396  HEM396      0.0000
     43  O2D       11.4250   26.5520   -3.4530 O.co2 396  HEM396      0.0000
@<TRIPOS>BOND
     1    15    14   ar
     2    13    14    1
     3    13    12    1
     4    14    16   ar
     5    11     9    1
     6    12     8    1
     7     9     8   ar
     8     9    10   ar
     9     8     7   ar
    10    10     3    2
    11    10     6   ar
    12    22    19    1
    13     3    18    1
    14     7     6   ar
    15     7     2    2
    16    43    41   ar
    17     6     1    1
    18    19    18    1
    19    19    20    2
    20    18    17    2
    21     2    37    1
    22    39    36    1
    23    39    40    1
    24    20    23    1
    25    20    21    1
    26    17    21    1
    27    17     1    1
    28    24    23    2
    29    37    36    1
    30    37    33    2
    31    41    40    1
    32    41    42   ar
    33    36    35    2
    34    21     4    2
    35     1    33    1
    36     1    25    1
    37    33    34    1
    38     4    26    1
    39    35    34    1
    40    35    38    1
    41    34     5    2
    42    25    26   ar
    43    25    29   ar
    44    26    27   ar
    45    29     5    1
    46    29    28   ar
    47    27    30    1
    48    27    28   ar
    49    28    31    1
    50    31    32    2
