@<TRIPOS>MOLECULE
2ciy_MAN_A_1.pdb
 11 11 0 0 0
SMALL
GASTEIGER

@<TRIPOS>ATOM
      1  C1        -5.9470   21.7300  -10.5820 C.3   738  MAN738      0.1777
      2  C2        -7.4220   21.4440  -10.3100 C.3   738  MAN738      0.2141
      3  C3        -7.7630   19.9980  -10.6650 C.3   738  MAN738      0.2173
      4  C4        -7.2680   19.6040  -12.0650 C.3   738  MAN738      0.2142
      5  C5        -5.7840   19.9920  -12.2260 C.3   738  MAN738      0.1810
      6  C6        -5.2140   19.7320  -13.6270 C.3   738  MAN738      0.2141
      7  O2        -8.1990   22.3710  -11.0450 O.3   738  MAN738     -0.2176
      8  O3        -9.1490   19.7700  -10.5240 O.3   738  MAN738     -0.2175
      9  O4        -7.4210   18.2110  -12.2290 O.3   738  MAN738     -0.2176
     10  O5        -5.5920   21.3610  -11.9110 O.3   738  MAN738     -0.3481
     11  O6        -3.8500   20.1240  -13.6650 O.3   738  MAN738     -0.2176
@<TRIPOS>BOND
     1    11     6    1
     2     6     5    1
     3     9     4    1
     4     5     4    1
     5     5    10    1
     6     4     3    1
     7    10     1    1
     8     7     2    1
     9     3     8    1
    10     3     2    1
    11     1     2    1
