@<TRIPOS>MOLECULE
2ciz_HEM_A_1.pdb
 43 50 0 0 0
SMALL
GASTEIGER

@<TRIPOS>ATOM
      1 FE          8.7140   18.8870   -2.0230 Fe    1300  HEM1300     0.0000
      2  CHA       10.6940   21.4340   -3.1760 C.2   1300  HEM1300     0.0000
      3  CHB       10.4490   16.6740   -3.9470 C.2   1300  HEM1300     0.0000
      4  CHC        6.3400   16.5070   -1.4290 C.2   1300  HEM1300     0.0000
      5  CHD        6.7520   21.1540   -0.3230 C.2   1300  HEM1300     0.0000
      6  NA        10.2890   19.0340   -3.3000 N.ar  1300  HEM1300     0.0000
      7  C1A       10.9900   20.1810   -3.5980 C.ar  1300  HEM1300     0.0000
      8  C2A       12.0290   19.8390   -4.5320 C.ar  1300  HEM1300     0.0000
      9  C3A       11.9690   18.5230   -4.7600 C.ar  1300  HEM1300     0.0000
     10  C4A       10.8690   17.9870   -3.9920 C.ar  1300  HEM1300     0.0000
     11  CMA       12.8560   17.7110   -5.6770 C.3   1300  HEM1300     0.0000
     12  CAA       13.0200   20.8570   -5.0870 C.3   1300  HEM1300     0.0000
     13  CBA       12.4320   21.8340   -6.1160 C.3   1300  HEM1300     0.0000
     14  CGA       13.2490   23.1280   -6.1350 C.2   1300  HEM1300     0.0000
     15  O1A       14.2650   23.3530   -6.8920 O.co2 1300  HEM1300     0.0000
     16  O2A       12.8510   23.9560   -5.2630 O.co2 1300  HEM1300     0.0000
     17  NB         8.4220   16.9510   -2.5750 N.2   1300  HEM1300     0.0000
     18  C1B        9.3360   16.1840   -3.2930 C.2   1300  HEM1300     0.0000
     19  C2B        8.8750   14.8050   -3.3120 C.2   1300  HEM1300     0.0000
     20  C3B        7.7490   14.7710   -2.5920 C.2   1300  HEM1300     0.0000
     21  C4B        7.4410   16.1130   -2.1390 C.2   1300  HEM1300     0.0000
     22  CMB        9.6290   13.6780   -4.0230 C.3   1300  HEM1300     0.0000
     23  CAB        6.8550   13.5910   -2.2550 C.2   1300  HEM1300     0.0000
     24  CBB        7.0920   12.3430   -2.6090 C.2   1300  HEM1300     0.0000
     25  NC         6.9080   18.8420   -1.0400 N.ar  1300  HEM1300     0.0000
     26  C1C        6.0830   17.7530   -0.9210 C.ar  1300  HEM1300     0.0000
     27  C2C        4.8960   18.1250   -0.1600 C.ar  1300  HEM1300     0.0000
     28  C3C        5.0420   19.4040    0.2110 C.ar  1300  HEM1300     0.0000
     29  C4C        6.3030   19.8660   -0.3420 C.ar  1300  HEM1300     0.0000
     30  CMC        3.7150   17.1950    0.1220 C.3   1300  HEM1300     0.0000
     31  CAC        4.1480   20.2960    1.0430 C.2   1300  HEM1300     0.0000
     32  CBC        2.8630   20.1090    1.2330 C.2   1300  HEM1300     0.0000
     33  ND         8.7280   20.9080   -1.8100 N.2   1300  HEM1300     0.0000
     34  C1D        7.7690   21.6490   -1.1060 C.2   1300  HEM1300     0.0000
     35  C2D        8.0480   23.0720   -1.2630 C.2   1300  HEM1300     0.0000
     36  C3D        9.2460   23.1500   -2.1240 C.2   1300  HEM1300     0.0000
     37  C4D        9.6170   21.7830   -2.4270 C.2   1300  HEM1300     0.0000
     38  CMD        7.2300   24.2170   -0.7650 C.3   1300  HEM1300     0.0000
     39  CAD        9.9170   24.4140   -2.6460 C.3   1300  HEM1300     0.0000
     40  CBD       11.1480   24.8310   -1.8690 C.3   1300  HEM1300     0.0000
     41  CGD       11.7620   26.0990   -2.4170 C.2   1300  HEM1300     0.0000
     42  O1D       12.6400   26.6540   -1.7270 O.co2 1300  HEM1300     0.0000
     43  O2D       11.3840   26.5550   -3.5050 O.co2 1300  HEM1300     0.0000
@<TRIPOS>BOND
     1    15    14   ar
     2    14    13    1
     3    14    16   ar
     4    13    12    1
     5    11     9    1
     6    12     8    1
     7     9     8   ar
     8     9    10   ar
     9     8     7   ar
    10    22    19    1
    11    10     3    2
    12    10     6   ar
    13     3    18    1
    14     7     6   ar
    15     7     2    2
    16    43    41   ar
    17    19    18    1
    18    19    20    2
    19     6     1    1
    20    18    17    2
    21     2    37    1
    22    39    36    1
    23    39    40    1
    24    24    23    2
    25    20    23    1
    26    20    21    1
    27    17    21    1
    28    17     1    1
    29    37    36    1
    30    37    33    2
    31    41    40    1
    32    41    42   ar
    33    21     4    2
    34    36    35    2
    35     1    33    1
    36     1    25    1
    37    33    34    1
    38     4    26    1
    39    35    34    1
    40    35    38    1
    41    34     5    2
    42    25    26   ar
    43    25    29   ar
    44    26    27   ar
    45    29     5    1
    46    29    28   ar
    47    27    30    1
    48    27    28   ar
    49    28    31    1
    50    31    32    2
