@<TRIPOS>MOLECULE
2ciz_MAN_A_1.pdb
 11 11 0 0 0
SMALL
GASTEIGER

@<TRIPOS>ATOM
      1  C1        -6.0530   21.6980  -10.4370 C.3   1307  MAN1307     0.1777
      2  C2        -7.5290   21.4580  -10.1910 C.3   1307  MAN1307     0.2141
      3  C3        -7.8790   20.0230  -10.5180 C.3   1307  MAN1307     0.2173
      4  C4        -7.3770   19.6350  -11.9100 C.3   1307  MAN1307     0.2142
      5  C5        -5.8970   19.9870  -12.0720 C.3   1307  MAN1307     0.1810
      6  C6        -5.3930   19.7640  -13.4980 C.3   1307  MAN1307     0.2141
      7  O2        -8.2850   22.3040  -11.0280 O.3   1307  MAN1307    -0.2176
      8  O3        -9.2730   19.8350  -10.3860 O.3   1307  MAN1307    -0.2175
      9  O4        -7.5470   18.2440  -12.0740 O.3   1307  MAN1307    -0.2176
     10  O5        -5.6920   21.3450  -11.7550 O.3   1307  MAN1307    -0.3481
     11  O6        -3.9820   19.9590  -13.5370 O.3   1307  MAN1307    -0.2176
@<TRIPOS>BOND
     1    11     6    1
     2     6     5    1
     3     9     4    1
     4     5     4    1
     5     5    10    1
     6     4     3    1
     7    10     1    1
     8     7     2    1
     9     3     8    1
    10     3     2    1
    11     1     2    1
