@<TRIPOS>MOLECULE
2cj0_HEM_A_1.pdb
 43 50 0 0 0
SMALL
GASTEIGER

@<TRIPOS>ATOM
      1 FE          8.6190   18.8310   -2.0260 Fe    1300  HEM1300     0.0000
      2  CHA       10.5850   21.3510   -3.3160 C.2   1300  HEM1300     0.0000
      3  CHB       10.3180   16.5470   -3.9990 C.2   1300  HEM1300     0.0000
      4  CHC        6.1560   16.5090   -1.4600 C.2   1300  HEM1300     0.0000
      5  CHD        6.7280   21.1550   -0.3040 C.2   1300  HEM1300     0.0000
      6  NA        10.1390   18.9240   -3.4270 N.ar  1300  HEM1300     0.0000
      7  C1A       10.8620   20.0650   -3.7410 C.ar  1300  HEM1300     0.0000
      8  C2A       11.9770   19.7030   -4.6080 C.ar  1300  HEM1300     0.0000
      9  C3A       11.9190   18.3660   -4.8070 C.ar  1300  HEM1300     0.0000
     10  C4A       10.7590   17.8590   -4.0750 C.ar  1300  HEM1300     0.0000
     11  CMA       12.8870   17.5090   -5.6650 C.3   1300  HEM1300     0.0000
     12  CAA       13.0160   20.7300   -5.1490 C.3   1300  HEM1300     0.0000
     13  CBA       12.4170   21.7050   -6.1900 C.3   1300  HEM1300     0.0000
     14  CGA       13.2350   22.9960   -6.2080 C.2   1300  HEM1300     0.0000
     15  O1A       14.2750   23.2100   -6.9520 O.co2 1300  HEM1300     0.0000
     16  O2A       12.7900   23.8310   -5.3700 O.co2 1300  HEM1300     0.0000
     17  NB         8.2630   16.9080   -2.6700 N.2   1300  HEM1300     0.0000
     18  C1B        9.1670   16.1200   -3.3620 C.2   1300  HEM1300     0.0000
     19  C2B        8.6830   14.7610   -3.3380 C.2   1300  HEM1300     0.0000
     20  C3B        7.5380   14.7370   -2.6260 C.2   1300  HEM1300     0.0000
     21  C4B        7.2420   16.1020   -2.2050 C.2   1300  HEM1300     0.0000
     22  CMB        9.4410   13.6000   -4.0100 C.3   1300  HEM1300     0.0000
     23  CAB        6.6140   13.5460   -2.3120 C.2   1300  HEM1300     0.0000
     24  CBB        6.9870   12.2690   -2.4460 C.2   1300  HEM1300     0.0000
     25  NC         6.7830   18.8480   -1.0220 N.ar  1300  HEM1300     0.0000
     26  C1C        5.9220   17.7590   -0.9260 C.ar  1300  HEM1300     0.0000
     27  C2C        4.7570   18.1550   -0.1500 C.ar  1300  HEM1300     0.0000
     28  C3C        4.9220   19.4360    0.2180 C.ar  1300  HEM1300     0.0000
     29  C4C        6.1900   19.8820   -0.3490 C.ar  1300  HEM1300     0.0000
     30  CMC        3.5710   17.2330    0.1800 C.3   1300  HEM1300     0.0000
     31  CAC        3.9580   20.3210    1.0540 C.2   1300  HEM1300     0.0000
     32  CBC        2.6690   20.0400    1.2000 C.2   1300  HEM1300     0.0000
     33  ND         8.6470   20.9050   -1.8640 N.2   1300  HEM1300     0.0000
     34  C1D        7.7250   21.6290   -1.1250 C.2   1300  HEM1300     0.0000
     35  C2D        8.0030   23.0340   -1.3240 C.2   1300  HEM1300     0.0000
     36  C3D        9.1850   23.1090   -2.2520 C.2   1300  HEM1300     0.0000
     37  C4D        9.5410   21.7390   -2.5220 C.2   1300  HEM1300     0.0000
     38  CMD        7.1850   24.1900   -0.7280 C.3   1300  HEM1300     0.0000
     39  CAD        9.8640   24.3870   -2.7840 C.3   1300  HEM1300     0.0000
     40  CBD       11.1010   24.7220   -1.9350 C.3   1300  HEM1300     0.0000
     41  CGD       11.7740   25.9750   -2.4610 C.2   1300  HEM1300     0.0000
     42  O1D       12.7190   26.5050   -1.8040 O.co2 1300  HEM1300     0.0000
     43  O2D       11.3560   26.4290   -3.5520 O.co2 1300  HEM1300     0.0000
@<TRIPOS>BOND
     1    15    14   ar
     2    14    13    1
     3    14    16   ar
     4    13    12    1
     5    11     9    1
     6    12     8    1
     7     9     8   ar
     8     9    10   ar
     9     8     7   ar
    10    10     3    2
    11    10     6   ar
    12    22    19    1
    13     3    18    1
    14     7     6   ar
    15     7     2    2
    16    43    41   ar
    17     6     1    1
    18    18    19    1
    19    18    17    2
    20    19    20    2
    21     2    37    1
    22    39    36    1
    23    39    40    1
    24    17    21    1
    25    17     1    1
    26    20    23    1
    27    20    21    1
    28    37    36    1
    29    37    33    2
    30    41    40    1
    31    41    42   ar
    32    24    23    2
    33    36    35    2
    34    21     4    2
    35     1    33    1
    36     1    25    1
    37    33    34    1
    38     4    26    1
    39    35    34    1
    40    35    38    1
    41    34     5    2
    42    25    26   ar
    43    25    29   ar
    44    26    27   ar
    45    29     5    1
    46    29    28   ar
    47    27    30    1
    48    27    28   ar
    49    28    31    1
    50    31    32    2
