@<TRIPOS>MOLECULE
2cj0_MAN_A_10.pdb
 11 11 0 0 0
SMALL
GASTEIGER

@<TRIPOS>ATOM
      1  C1        10.2160    9.6280  -21.6290 C.3   1316  MAN1316     0.1777
      2  C2        10.6910    8.1990  -21.9380 C.3   1316  MAN1316     0.2141
      3  C3        12.1660    8.2220  -22.3700 C.3   1316  MAN1316     0.2173
      4  C4        12.3580    9.1860  -23.5330 C.3   1316  MAN1316     0.2142
      5  C5        11.8340   10.5620  -23.1330 C.3   1316  MAN1316     0.1810
      6  C6        12.0040   11.5700  -24.2610 C.3   1316  MAN1316     0.2141
      7  O2         9.8610    7.6280  -22.9370 O.3   1316  MAN1316    -0.2176
      8  O3        12.6630    6.9430  -22.7060 O.3   1316  MAN1316    -0.2175
      9  O4        13.7290    9.2610  -23.8490 O.3   1316  MAN1316    -0.2176
     10  O5        10.4710   10.4810  -22.7390 O.3   1316  MAN1316    -0.3481
     11  O6        13.3320   12.0390  -24.2000 O.3   1316  MAN1316    -0.2176
@<TRIPOS>BOND
     1     6    11    1
     2     6     5    1
     3     9     4    1
     4     4     5    1
     5     4     3    1
     6     5    10    1
     7     7     2    1
     8    10     1    1
     9     8     3    1
    10     3     2    1
    11     2     1    1
