@<TRIPOS>MOLECULE
2cj1_HEM_A_1.pdb
 43 50 0 0 0
SMALL
GASTEIGER

@<TRIPOS>ATOM
      1 FE          8.9920   18.8240   -2.0190 Fe    1300  HEM1300     0.0000
      2  CHA       11.0530   21.3740   -3.2190 C.2   1300  HEM1300     0.0000
      3  CHB       10.7580   16.5750   -3.9970 C.2   1300  HEM1300     0.0000
      4  CHC        6.6240   16.4560   -1.4230 C.2   1300  HEM1300     0.0000
      5  CHD        7.1000   21.1140   -0.3400 C.2   1300  HEM1300     0.0000
      6  NA        10.5320   18.9410   -3.3490 N.ar  1300  HEM1300     0.0000
      7  C1A       11.3080   20.0810   -3.6430 C.ar  1300  HEM1300     0.0000
      8  C2A       12.3960   19.7380   -4.5420 C.ar  1300  HEM1300     0.0000
      9  C3A       12.3340   18.4040   -4.7390 C.ar  1300  HEM1300     0.0000
     10  C4A       11.1790   17.8880   -4.0130 C.ar  1300  HEM1300     0.0000
     11  CMA       13.2580   17.5350   -5.6140 C.3   1300  HEM1300     0.0000
     12  CAA       13.4660   20.7650   -5.0700 C.3   1300  HEM1300     0.0000
     13  CBA       12.8550   21.7370   -6.1030 C.3   1300  HEM1300     0.0000
     14  CGA       13.6370   23.0520   -6.1100 C.2   1300  HEM1300     0.0000
     15  O1A       14.6760   23.2780   -6.8650 O.co2 1300  HEM1300     0.0000
     16  O2A       13.1950   23.8900   -5.2720 O.co2 1300  HEM1300     0.0000
     17  NB         8.7290   16.8860   -2.6230 N.2   1300  HEM1300     0.0000
     18  C1B        9.6000   16.1230   -3.3680 C.2   1300  HEM1300     0.0000
     19  C2B        9.1280   14.7650   -3.3450 C.2   1300  HEM1300     0.0000
     20  C3B        7.9930   14.7260   -2.6280 C.2   1300  HEM1300     0.0000
     21  C4B        7.7090   16.0780   -2.1740 C.2   1300  HEM1300     0.0000
     22  CMB        9.8610   13.5810   -4.0260 C.3   1300  HEM1300     0.0000
     23  CAB        7.0700   13.5290   -2.3140 C.2   1300  HEM1300     0.0000
     24  CBB        7.3680   12.2420   -2.5280 C.2   1300  HEM1300     0.0000
     25  NC         7.1940   18.8050   -1.0120 N.ar  1300  HEM1300     0.0000
     26  C1C        6.3560   17.7100   -0.9220 C.ar  1300  HEM1300     0.0000
     27  C2C        5.1600   18.0960   -0.1760 C.ar  1300  HEM1300     0.0000
     28  C3C        5.3210   19.4010    0.1700 C.ar  1300  HEM1300     0.0000
     29  C4C        6.5720   19.8490   -0.3950 C.ar  1300  HEM1300     0.0000
     30  CMC        3.9640   17.1650    0.1290 C.3   1300  HEM1300     0.0000
     31  CAC        4.3210   20.3180    0.9410 C.2   1300  HEM1300     0.0000
     32  CBC        3.0550   20.0150    1.2070 C.2   1300  HEM1300     0.0000
     33  ND         9.0870   20.8760   -1.8230 N.2   1300  HEM1300     0.0000
     34  C1D        8.1280   21.6020   -1.1180 C.2   1300  HEM1300     0.0000
     35  C2D        8.3930   23.0310   -1.3010 C.2   1300  HEM1300     0.0000
     36  C3D        9.6070   23.1180   -2.1980 C.2   1300  HEM1300     0.0000
     37  C4D        9.9990   21.7520   -2.4460 C.2   1300  HEM1300     0.0000
     38  CMD        7.5670   24.2030   -0.7500 C.3   1300  HEM1300     0.0000
     39  CAD       10.3030   24.4040   -2.6980 C.3   1300  HEM1300     0.0000
     40  CBD       11.5410   24.6840   -1.8200 C.3   1300  HEM1300     0.0000
     41  CGD       12.1280   25.9890   -2.3120 C.2   1300  HEM1300     0.0000
     42  O1D       13.0190   26.5800   -1.6230 O.co2 1300  HEM1300     0.0000
     43  O2D       11.6980   26.4390   -3.4010 O.co2 1300  HEM1300     0.0000
@<TRIPOS>BOND
     1    15    14   ar
     2    14    13    1
     3    14    16   ar
     4    13    12    1
     5    11     9    1
     6    12     8    1
     7     9     8   ar
     8     9    10   ar
     9     8     7   ar
    10    22    19    1
    11    10     3    2
    12    10     6   ar
    13     3    18    1
    14     7     6   ar
    15     7     2    2
    16    43    41   ar
    17    18    19    1
    18    18    17    2
    19     6     1    1
    20    19    20    2
    21     2    37    1
    22    39    36    1
    23    39    40    1
    24    20    23    1
    25    20    21    1
    26    17    21    1
    27    17     1    1
    28    24    23    2
    29    37    36    1
    30    37    33    2
    31    41    40    1
    32    41    42   ar
    33    36    35    2
    34    21     4    2
    35     1    33    1
    36     1    25    1
    37    33    34    1
    38     4    26    1
    39    35    34    1
    40    35    38    1
    41    34     5    2
    42    25    26   ar
    43    25    29   ar
    44    26    27   ar
    45    29     5    1
    46    29    28   ar
    47    27    30    1
    48    27    28   ar
    49    28    31    1
    50    31    32    2
