@<TRIPOS>MOLECULE
2cj1_MAN_A_10.pdb
 11 11 0 0 0
SMALL
GASTEIGER

@<TRIPOS>ATOM
      1  C1        31.9150   20.5990    0.8340 C.3   1317  MAN1317     0.1777
      2  C2        32.8320   21.5150    1.6420 C.3   1317  MAN1317     0.2141
      3  C3        33.7460   20.6760    2.5440 C.3   1317  MAN1317     0.2173
      4  C4        32.9230   19.7280    3.4270 C.3   1317  MAN1317     0.2142
      5  C5        31.8570   18.9820    2.6060 C.3   1317  MAN1317     0.1810
      6  C6        30.8710   18.2520    3.5010 C.3   1317  MAN1317     0.2141
      7  O2        32.0350   22.3620    2.4340 O.3   1317  MAN1317    -0.2176
      8  O3        34.5650   21.5150    3.3360 O.3   1317  MAN1317    -0.2175
      9  O4        33.7750   18.8000    4.0680 O.3   1317  MAN1317    -0.2176
     10  O5        31.1240   19.8420    1.7360 O.3   1317  MAN1317    -0.3481
     11  O6        31.1910   16.8850    3.4050 O.3   1317  MAN1317    -0.2176
@<TRIPOS>BOND
     1     1     2    1
     2     1    10    1
     3     2     7    1
     4     2     3    1
     5    10     5    1
     6     3     8    1
     7     3     4    1
     8     5     4    1
     9     5     6    1
    10    11     6    1
    11     4     9    1
