@<TRIPOS>MOLECULE
2cj2_MAN_A_1.pdb
 11 11 0 0 0
SMALL
GASTEIGER

@<TRIPOS>ATOM
      1  C1        -5.7070   21.6670  -10.4940 C.3   1307  MAN1307     0.1777
      2  C2        -7.1810   21.3720  -10.2360 C.3   1307  MAN1307     0.2141
      3  C3        -7.4840   19.9230  -10.5940 C.3   1307  MAN1307     0.2173
      4  C4        -6.9640   19.5880  -11.9960 C.3   1307  MAN1307     0.2142
      5  C5        -5.5020   20.0160  -12.1850 C.3   1307  MAN1307     0.1810
      6  C6        -5.0210   19.8530  -13.6250 C.3   1307  MAN1307     0.2141
      7  O2        -7.9560   22.2530  -11.0190 O.3   1307  MAN1307    -0.2176
      8  O3        -8.8710   19.6980  -10.5080 O.3   1307  MAN1307    -0.2175
      9  O4        -7.0770   18.1990  -12.2010 O.3   1307  MAN1307    -0.2176
     10  O5        -5.3260   21.3790  -11.8290 O.3   1307  MAN1307    -0.3481
     11  O6        -3.6400   20.1490  -13.6730 O.3   1307  MAN1307    -0.2176
@<TRIPOS>BOND
     1    11     6    1
     2     6     5    1
     3     9     4    1
     4     5     4    1
     5     5    10    1
     6     4     3    1
     7    10     1    1
     8     7     2    1
     9     3     8    1
    10     3     2    1
    11     1     2    1
