@<TRIPOS>MOLECULE
2cj2_HEM_A_1.pdb
 43 50 0 0 0
SMALL
GASTEIGER

@<TRIPOS>ATOM
      1 FE          8.8930   18.8550   -1.9900 Fe    1300  HEM1300     0.0000
      2  CHA       10.9220   21.4160   -3.1480 C.2   1300  HEM1300     0.0000
      3  CHB       10.6790   16.6380   -3.8800 C.2   1300  HEM1300     0.0000
      4  CHC        6.5230   16.4290   -1.3920 C.2   1300  HEM1300     0.0000
      5  CHD        6.9760   21.1050   -0.2520 C.2   1300  HEM1300     0.0000
      6  NA        10.4540   19.0060   -3.2650 N.ar  1300  HEM1300     0.0000
      7  C1A       11.1880   20.1440   -3.5740 C.ar  1300  HEM1300     0.0000
      8  C2A       12.2740   19.8030   -4.4800 C.ar  1300  HEM1300     0.0000
      9  C3A       12.2070   18.4730   -4.6820 C.ar  1300  HEM1300     0.0000
     10  C4A       11.0790   17.9600   -3.9280 C.ar  1300  HEM1300     0.0000
     11  CMA       13.1250   17.5930   -5.5480 C.3   1300  HEM1300     0.0000
     12  CAA       13.3170   20.8250   -5.0400 C.3   1300  HEM1300     0.0000
     13  CBA       12.7270   21.7740   -6.0920 C.3   1300  HEM1300     0.0000
     14  CGA       13.4790   23.1040   -6.0550 C.2   1300  HEM1300     0.0000
     15  O1A       14.5120   23.3550   -6.7940 O.co2 1300  HEM1300     0.0000
     16  O2A       13.0210   23.9280   -5.1990 O.co2 1300  HEM1300     0.0000
     17  NB         8.6210   16.9120   -2.5760 N.2   1300  HEM1300     0.0000
     18  C1B        9.5440   16.1550   -3.2600 C.2   1300  HEM1300     0.0000
     19  C2B        9.1100   14.7720   -3.2300 C.2   1300  HEM1300     0.0000
     20  C3B        7.9600   14.7300   -2.5330 C.2   1300  HEM1300     0.0000
     21  C4B        7.6330   16.0730   -2.1130 C.2   1300  HEM1300     0.0000
     22  CMB        9.9030   13.6210   -3.9000 C.3   1300  HEM1300     0.0000
     23  CAB        7.0590   13.5350   -2.1960 C.2   1300  HEM1300     0.0000
     24  CBB        7.3800   12.2600   -2.4150 C.2   1300  HEM1300     0.0000
     25  NC         7.1310   18.7770   -0.9860 N.ar  1300  HEM1300     0.0000
     26  C1C        6.2860   17.6860   -0.8910 C.ar  1300  HEM1300     0.0000
     27  C2C        5.1240   18.0880   -0.1320 C.ar  1300  HEM1300     0.0000
     28  C3C        5.2840   19.3730    0.2160 C.ar  1300  HEM1300     0.0000
     29  C4C        6.5280   19.8250   -0.3370 C.ar  1300  HEM1300     0.0000
     30  CMC        3.9280   17.1650    0.2000 C.3   1300  HEM1300     0.0000
     31  CAC        4.3420   20.3010    1.0080 C.2   1300  HEM1300     0.0000
     32  CBC        3.0510   20.0310    1.2680 C.2   1300  HEM1300     0.0000
     33  ND         8.9650   20.8860   -1.7520 N.2   1300  HEM1300     0.0000
     34  C1D        7.9940   21.6010   -1.0430 C.2   1300  HEM1300     0.0000
     35  C2D        8.2540   23.0300   -1.2130 C.2   1300  HEM1300     0.0000
     36  C3D        9.4720   23.1260   -2.0930 C.2   1300  HEM1300     0.0000
     37  C4D        9.8470   21.7620   -2.3830 C.2   1300  HEM1300     0.0000
     38  CMD        7.4470   24.2110   -0.6550 C.3   1300  HEM1300     0.0000
     39  CAD       10.1460   24.3910   -2.6180 C.3   1300  HEM1300     0.0000
     40  CBD       11.3520   24.7610   -1.7530 C.3   1300  HEM1300     0.0000
     41  CGD       11.9870   26.0060   -2.3250 C.2   1300  HEM1300     0.0000
     42  O1D       12.8730   26.5730   -1.6490 O.co2 1300  HEM1300     0.0000
     43  O2D       11.5980   26.4360   -3.4340 O.co2 1300  HEM1300     0.0000
@<TRIPOS>BOND
     1    15    14   ar
     2    13    14    1
     3    13    12    1
     4    14    16   ar
     5    11     9    1
     6    12     8    1
     7     9     8   ar
     8     9    10   ar
     9     8     7   ar
    10    10     3    2
    11    10     6   ar
    12    22    19    1
    13     3    18    1
    14     7     6   ar
    15     7     2    2
    16    43    41   ar
    17     6     1    1
    18    18    19    1
    19    18    17    2
    20    19    20    2
    21     2    37    1
    22    39    36    1
    23    39    40    1
    24    17    21    1
    25    17     1    1
    26    20    23    1
    27    20    21    1
    28    24    23    2
    29    37    36    1
    30    37    33    2
    31    41    40    1
    32    41    42   ar
    33    21     4    2
    34    36    35    2
    35     1    33    1
    36     1    25    1
    37    33    34    1
    38     4    26    1
    39    35    34    1
    40    35    38    1
    41    34     5    2
    42    25    26   ar
    43    25    29   ar
    44    26    27   ar
    45    29     5    1
    46    29    28   ar
    47    27    30    1
    48    27    28   ar
    49    28    31    1
    50    31    32    2
