@<TRIPOS>MOLECULE
2cj9_SSA_A_1.pdb
 29 31 0 0 0
SMALL
GASTEIGER

@<TRIPOS>ATOM
      1  N10       43.2340   -3.0940   83.4960 N.3   1505  SSA1505    -0.1202
      2  CA        42.0120   -2.6640   82.8390 C.3   1505  SSA1505     0.2036
      3  CB        40.8050   -3.2790   83.5240 C.3   1505  SSA1505     0.2104
      4  OG        40.6370   -2.6650   84.7990 O.3   1505  SSA1505    -0.2182
      5  C9        41.9170   -1.1710   82.8780 C.2   1505  SSA1505     0.2825
      6  O9        42.5210   -0.5250   83.7220 O.2   1505  SSA1505    -0.2700
      7  N8        41.1520   -0.6290   81.9340 N.am  1505  SSA1505    -0.0576
      8  S1        40.3720    0.7530   82.1430 S.3   1505  SSA1505     0.0852
      9  O1S       39.4970    0.9180   81.0200 O.3   1505  SSA1505    -0.0508
     10  O2S       41.2840    1.8610   82.1690 O.3   1505  SSA1505    -0.0508
     11  O5'       39.5150    0.7010   83.5160 O.3   1505  SSA1505    -0.2230
     12  C5'       38.4730   -0.2510   83.6590 C.3   1505  SSA1505     0.2064
     13  C4'       37.3090    0.3840   84.3970 C.3   1505  SSA1505     0.1842
     14  O4'       37.7190    1.1220   85.5500 O.3   1505  SSA1505    -0.3135
     15  C3'       36.5720    1.3890   83.5300 C.3   1505  SSA1505     0.2185
     16  O3'       35.6170    0.7160   82.7090 O.3   1505  SSA1505    -0.2174
     17  C2'       35.9040    2.2800   84.5440 C.3   1505  SSA1505     0.2570
     18  O2'       34.6790    1.6720   84.9400 O.3   1505  SSA1505    -0.2130
     19  C1'       36.8480    2.2490   85.7360 C.3   1505  SSA1505     0.3186
     20  N9        37.6090    3.5260   85.7600 N.pl3 1505  SSA1505    -0.1439
     21  C8        38.7230    3.8100   85.0460 C.3   1505  SSA1505     0.3377
     22  N7        39.1550    5.0740   85.2990 N.2   1505  SSA1505    -0.2095
     23  C5        38.3030    5.6210   86.1920 C.2   1505  SSA1505     0.2526
     24  C6        38.1690    6.9250   86.8850 C.2   1505  SSA1505     0.4393
     25  N6        39.0600    7.9210   86.6770 N.pl3 1505  SSA1505     0.2180
     26  N1        37.1310    7.0930   87.7320 N.2   1505  SSA1505     0.0021
     27  C2        36.2310    6.1100   87.9640 C.3   1505  SSA1505     0.5254
     28  N3        36.2880    4.9000   87.3730 N.2   1505  SSA1505    -0.0055
     29  C4        37.2830    4.6010   86.4910 C.2   1505  SSA1505     0.3518
@<TRIPOS>BOND
     1     9     8    1
     2     7     8    1
     3     7     5   am
     4     8    10    1
     5     8    11    1
     6    16    15    1
     7     2     5    1
     8     2     1    1
     9     2     3    1
    10     5     6    2
    11    11    12    1
    12     3     4    1
    13    15    13    1
    14    15    17    1
    15    12    13    1
    16    13    14    1
    17    17    18    1
    18    17    19    1
    19    21    22    1
    20    21    20    1
    21    22    23    2
    22    14    19    1
    23    19    20    1
    24    20    29    1
    25    23    29    1
    26    23    24    1
    27    29    28    2
    28    25    24    1
    29    24    26    2
    30    28    27    1
    31    26    27    1
