@<TRIPOS>MOLECULE
2cja_ATP_A_1.pdb
 31 33 0 0 0
SMALL
GASTEIGER

@<TRIPOS>ATOM
      1  PG        45.4390    0.0050   80.9480 P.3   1505  ATP1505     0.5373
      2  O1G       46.4490    1.0940   80.6410 O.3   1505  ATP1505    -0.1143
      3  O2G       46.0690   -1.2270   81.5590 O.3   1505  ATP1505    -0.1143
      4  O3G       44.4800   -0.3060   79.8160 O.2   1505  ATP1505    -0.2221
      5  PB        43.2200   -0.0300   82.7960 P.3   1505  ATP1505     0.2277
      6  O1B       42.9790    0.6730   84.1070 O.3   1505  ATP1505    -0.4368
      7  O2B       43.4690   -1.5210   82.8310 O.2   1505  ATP1505    -0.5168
      8  O3B       44.4790    0.6890   82.0750 O.3   1505  ATP1505    -0.2258
      9  PA        41.0210    1.5910   81.7610 P.3   1505  ATP1505     0.2189
     10  O1A       41.9330    2.7800   81.8160 O.3   1505  ATP1505    -0.4371
     11  O2A       40.0570    1.4400   80.6120 O.2   1505  ATP1505    -0.5170
     12  O3A       41.9500    0.2420   81.8110 O.3   1505  ATP1505    -0.2700
     13  O5'       40.1220    1.5420   83.0900 O.3   1505  ATP1505    -0.3112
     14  C5'       39.3830    0.3540   83.3770 C.3   1505  ATP1505     0.1813
     15  C4'       38.2650    0.6100   84.3760 C.3   1505  ATP1505     0.1821
     16  O4'       38.7300    1.3380   85.5220 O.3   1505  ATP1505    -0.3135
     17  C3'       37.1390    1.4590   83.8050 C.3   1505  ATP1505     0.2184
     18  O3'       36.1700    0.6730   83.1130 O.3   1505  ATP1505    -0.2174
     19  C2'       36.5340    2.0730   85.0410 C.3   1505  ATP1505     0.2570
     20  O2'       35.6540    1.1240   85.6450 O.3   1505  ATP1505    -0.2130
     21  C1'       37.7110    2.2510   85.9740 C.3   1505  ATP1505     0.3186
     22  N9        38.2280    3.6400   85.8800 N.pl3 1505  ATP1505    -0.1439
     23  C8        39.2420    4.0310   85.0820 C.3   1505  ATP1505     0.3377
     24  N7        39.5010    5.3490   85.2310 N.2   1505  ATP1505    -0.2095
     25  C5        38.6300    5.8260   86.1390 C.2   1505  ATP1505     0.2526
     26  C6        38.3470    7.1480   86.7460 C.2   1505  ATP1505     0.4393
     27  N6        39.0690    8.2380   86.4100 N.pl3 1505  ATP1505     0.2180
     28  N1        37.3610    7.2230   87.6590 N.2   1505  ATP1505     0.0021
     29  C2        36.6270    6.1480   88.0120 C.3   1505  ATP1505     0.5254
     30  N3        36.8210    4.9250   87.4960 N.2   1505  ATP1505    -0.0055
     31  C4        37.7900    4.7020   86.5680 C.2   1505  ATP1505     0.3518
@<TRIPOS>BOND
     1     4     1    2
     2    11     9    2
     3     2     1    1
     4     1     3    1
     5     1     8    1
     6     9    12    1
     7     9    10    1
     8     9    13    1
     9    12     5    1
    10     8     5    1
    11     5     7    2
    12     5     6    1
    13    13    14    1
    14    18    17    1
    15    14    15    1
    16    17    15    1
    17    17    19    1
    18    15    16    1
    19    19    20    1
    20    19    21    1
    21    23    24    1
    22    23    22    1
    23    24    25    2
    24    16    21    1
    25    22    21    1
    26    22    31    1
    27    25    31    1
    28    25    26    1
    29    27    26    1
    30    31    30    2
    31    26    28    2
    32    30    29    1
    33    28    29    1
