@<TRIPOS>MOLECULE
2cjc_FAD_A_1.pdb
 38 41 0 0 0
SMALL
GASTEIGER

@<TRIPOS>ATOM
      1  C1B        0.2930   23.4290    3.9790 C.3   1066  FAD1066     0.2552
      2  N9A        0.0990   21.9360    3.6810 N.pl3 1066  FAD1066    -0.1635
      3  C8A        0.4960   20.7830    4.3130 C.3   1066  FAD1066     0.3360
      4  N7A        0.1260   19.6190    3.6620 N.2   1066  FAD1066    -0.2096
      5  C5A       -0.5520   20.1160    2.5630 C.2   1066  FAD1066     0.2525
      6  C6A       -1.1850   19.4930    1.5060 C.2   1066  FAD1066     0.4393
      7  N6A       -1.2040   18.1450    1.4510 N.pl3 1066  FAD1066     0.2180
      8  N1A       -1.7830   20.2300    0.5450 N.2   1066  FAD1066     0.0021
      9  C2A       -1.7630   21.5750    0.6150 C.3   1066  FAD1066     0.5254
     10  N3A       -1.1520   22.2030    1.6420 N.2   1066  FAD1066    -0.0055
     11  C4A       -0.5420   21.4640    2.6080 C.2   1066  FAD1066     0.3502
     12  N1         0.0820   22.3990   -2.8620 N.2   1066  FAD1066    -0.2890
     13  C2        -0.6090   22.0850   -3.9700 C.1   1066  FAD1066     0.3669
     14  O2        -1.0820   23.0620   -4.6030 O.2   1066  FAD1066    -0.1744
     15  N3        -0.7480   20.7750   -4.3660 N.2   1066  FAD1066    -0.2300
     16  C4        -0.2690   19.7280   -3.6640 C.1   1066  FAD1066     0.2513
     17  O4        -0.4290   18.5640   -4.0470 O.2   1066  FAD1066    -0.2057
     18  C4X        0.4960   20.0080   -2.4280 C.2   1066  FAD1066     0.2700
     19  N5         1.0580   19.0600   -1.6360 N.2   1066  FAD1066    -0.3878
     20  C5X        1.7510   19.4140   -0.5180 C.2   1066  FAD1066     0.1320
     21  C6         2.3290   18.4370    0.2960 C.2   1066  FAD1066     0.0250
     22  C7         3.0470   18.7680    1.4480 C.2   1066  FAD1066    -0.0238
     23  C7M        3.6360   17.6260    2.2460 C.3   1066  FAD1066     0.0308
     24  C8         3.1930   20.2000    1.8310 C.2   1066  FAD1066    -0.0280
     25  C8M        3.9440   20.6240    3.0570 C.3   1066  FAD1066     0.0304
     26  C9         2.6140   21.1930    1.0340 C.2   1066  FAD1066    -0.0041
     27  C9A        1.9070   20.8360   -0.1260 C.3   1066  FAD1066     0.1497
     28  N10        1.3420   21.8260   -0.9440 N.pl3 1066  FAD1066    -0.2691
     29  C10        0.6330   21.4400   -2.0820 C.2   1066  FAD1066     0.2416
     30  C1'        1.4320   23.2680   -0.5820 C.3   1066  FAD1066     0.1294
     31  C2'        2.4160   24.1120   -1.3760 C.3   1066  FAD1066     0.2044
     32  O2'        3.6690   23.8510   -0.7940 O.3   1066  FAD1066    -0.2185
     33  C3'        2.1620   25.6120   -1.2170 C.3   1066  FAD1066     0.2166
     34  O3'        2.0190   25.8970    0.1710 O.3   1066  FAD1066    -0.2175
     35  C4'        0.9720   26.2160   -1.9750 C.3   1066  FAD1066     0.2175
     36  O4'        0.8560   25.6810   -3.2970 O.3   1066  FAD1066    -0.2175
     37  C5'        1.1660   27.7330   -2.0840 C.3   1066  FAD1066     0.2175
     38  O5'        2.5180   28.0580   -2.4360 O.3   1066  FAD1066    -0.2175
@<TRIPOS>BOND
     1    14    13    2
     2    15    13    2
     3    15    16    2
     4    17    16    2
     5    13    12    2
     6    16    18    1
     7    36    35    1
     8    12    29    2
     9    38    37    1
    10    18    29    1
    11    18    19    2
    12    37    35    1
    13    29    28    1
    14    35    33    1
    15    19    20    2
    16    31    33    1
    17    31    32    1
    18    31    30    1
    19    33    34    1
    20    28    30    1
    21    28    27    1
    22    20    27    1
    23    20    21    1
    24    27    26    1
    25    21    22    2
    26     8     9    1
    27     8     6    2
    28     9    10    1
    29    26    24    2
    30    22    24    1
    31    22    23    1
    32     7     6    1
    33     6     5    1
    34    10    11    2
    35    24    25    1
    36     5    11    1
    37     5     4    2
    38    11     2    1
    39     4     3    1
    40     2     1    1
    41     2     3    1
