@<TRIPOS>MOLECULE
2cjd_LYS_A_1.pdb
 10 9 0 0 0
SMALL
GASTEIGER

@<TRIPOS>ATOM
      1  N        -28.4750  -31.0540   38.9140 N.3   601  LYS601     -0.1208
      2  CA       -29.7270  -30.9210   39.6940 C.3   601  LYS601      0.1943
      3  C        -29.4010  -30.1340   40.9410 C.2   601  LYS601      0.3819
      4  O        -29.8430  -28.9930   40.9190 O.co2 601  LYS601     -0.2441
      5  CB       -30.4040  -32.2830   39.9840 C.3   601  LYS601      0.0307
      6  CG       -29.4850  -33.5150   39.9690 C.3   601  LYS601      0.0036
      7  CD       -29.0340  -33.9880   38.5500 C.3   601  LYS601      0.0206
      8  CE       -28.0860  -33.0070   37.8090 C.3   601  LYS601      0.1093
      9  NZ       -26.5630  -33.0870   37.8130 N.3   601  LYS601     -0.1314
     10  OXT      -28.7000  -30.5510   41.8780 O.co2 601  LYS601     -0.2441
@<TRIPOS>BOND
     1     8     9    1
     2     8     7    1
     3     7     6    1
     4     1     2    1
     5     2     5    1
     6     2     3    1
     7     6     5    1
     8     4     3   ar
     9     3    10   ar
