@<TRIPOS>MOLECULE
2cjd_PLP_A_1.pdb
 15 15 0 0 0
SMALL
GASTEIGER

@<TRIPOS>ATOM
      1  N1       -21.5700  -33.2380   37.3250 N.ar  1602  PLP1602    -0.2452
      2  C2       -22.5820  -33.2110   36.3920 C.ar  1602  PLP1602     0.0978
      3  C2A      -22.2370  -33.0410   34.9250 C.3   1602  PLP1602     0.0555
      4  C3       -23.9310  -33.3470   36.8130 C.ar  1602  PLP1602     0.2049
      5  O3       -24.9390  -33.3550   35.8550 O.3   1602  PLP1602    -0.2857
      6  C4       -24.2460  -33.5020   38.1890 C.ar  1602  PLP1602     0.0182
      7  C4A      -25.7210  -33.6130   38.6190 C.3   1602  PLP1602     0.0342
      8  C5       -23.1840  -33.5420   39.1200 C.ar  1602  PLP1602     0.0261
      9  C6       -21.8520  -33.4110   38.6810 C.ar  1602  PLP1602     0.0965
     10  C5A      -23.4540  -33.6740   40.6050 C.3   1602  PLP1602     0.1815
     11  O4P      -23.9810  -34.9640   40.8730 O.3   1602  PLP1602    -0.2653
     12  P        -24.7830  -35.2660   42.2590 P.3   1602  PLP1602     0.5329
     13  O1P      -24.9740  -36.7650   42.5310 O.3   1602  PLP1602    -0.1145
     14  O2P      -24.0020  -34.5680   43.3650 O.3   1602  PLP1602    -0.1145
     15  O3P      -26.1520  -34.5490   42.2040 O.2   1602  PLP1602    -0.2224
@<TRIPOS>BOND
     1     3     2    1
     2     5     4    1
     3     2     4   ar
     4     2     1   ar
     5     4     6   ar
     6     1     9   ar
     7     6     7    1
     8     6     8   ar
     9     9     8   ar
    10     8    10    1
    11    10    11    1
    12    11    12    1
    13    15    12    2
    14    12    13    1
    15    12    14    1
