@<TRIPOS>MOLECULE
2cje_DUN_A_1.pdb
 24 25 0 0 0
SMALL
GASTEIGER

@<TRIPOS>ATOM
      1  N1        -9.7750   30.5620   -2.4230 N.am  1266  DUN1266    -0.1790
      2  C2        -8.7020   30.3370   -1.5060 C.1   1266  DUN1266     0.2844
      3  N3        -7.5990   29.7320   -1.9440 N.2   1266  DUN1266    -0.2452
      4  C4        -7.4970   29.3000   -3.2270 C.1   1266  DUN1266     0.2182
      5  C5        -8.5430   29.4740   -4.1290 C.2   1266  DUN1266     0.1242
      6  C6        -9.6900   30.1190   -3.6990 C.2   1266  DUN1266     0.0928
      7  O2        -8.7710   30.7070   -0.3110 O.2   1266  DUN1266    -0.1918
      8  O4        -6.4720   28.7080   -3.6260 O.2   1266  DUN1266    -0.2085
      9  C1'      -11.0150   31.2080   -1.9540 C.3   1266  DUN1266     0.2090
     10  C2'      -10.8480   32.5570   -1.3100 C.3   1266  DUN1266     0.0874
     11  C3'      -12.1750   33.2490   -1.5410 C.3   1266  DUN1266     0.1857
     12  C4'      -12.9290   32.3470   -2.4780 C.3   1266  DUN1266     0.1774
     13  O4'      -12.0100   31.3820   -2.9610 O.3   1266  DUN1266    -0.3339
     14  O3'      -12.8580   33.4910   -0.3180 O.3   1266  DUN1266    -0.2203
     15  C5'      -13.4400   33.0320   -3.7130 C.3   1266  DUN1266     0.1848
     16  O5'      -14.1600   32.0270   -4.4550 O.3   1266  DUN1266    -0.2775
     17  PA       -14.9680   32.4130   -5.7880 P.3   1266  DUN1266     0.4623
     18  O1A      -14.3010   33.6740   -6.3870 O.3   1266  DUN1266    -0.1255
     19  O2A      -14.9990   31.2440   -6.7190 O.2   1266  DUN1266    -0.2354
     20  PB       -16.9620   34.1560   -4.3480 P.3   1266  DUN1266     0.4884
     21  O1B      -18.4460   34.3940   -4.6130 O.3   1266  DUN1266    -0.1240
     22  O2B      -16.1380   35.3890   -4.7770 O.2   1266  DUN1266    -0.2331
     23  O3B      -16.6730   33.7120   -2.9360 O.3   1266  DUN1266    -0.1240
     24  N3A      -16.5750   32.8340   -5.3110 N.3   1266  DUN1266    -0.0165
@<TRIPOS>BOND
     1    19    17    2
     2    18    17    1
     3    17    24    1
     4    17    16    1
     5    24    20    1
     6    22    20    2
     7    21    20    1
     8    16    15    1
     9    20    23    1
    10     5     6    2
    11     5     4    1
    12    15    12    1
    13     6     1    1
    14     8     4    2
    15     4     3    2
    16    13    12    1
    17    13     9    1
    18    12    11    1
    19     1     9    1
    20     1     2   am
    21     9    10    1
    22     3     2    2
    23    11    10    1
    24    11    14    1
    25     2     7    2
