@<TRIPOS>MOLECULE
2cjf_RP4_A_1.pdb
 25 27 0 0 0
SMALL
GASTEIGER

@<TRIPOS>ATOM
      1  O3       169.2110  108.2130   -0.6210 O.co2 1151  RP41151    -0.2429
      2  C2       169.0850  108.4250    0.5960 C.2   1151  RP41151     0.3917
      3  O1       167.9310  108.2460    1.1890 O.co2 1151  RP41151    -0.2429
      4  C4       170.1610  108.8780    1.5620 C.3   1151  RP41151     0.2218
      5  O5       169.9730  108.0550    2.7400 O.3   1151  RP41151    -0.2140
      6  C12      171.5890  108.6110    1.0850 C.3   1151  RP41151     0.0771
      7  C10      172.6080  109.2140    2.0370 C.3   1151  RP41151     0.1855
      8  O11      173.9030  108.8240    1.6070 O.3   1151  RP41151    -0.2203
      9  C8       172.4830  110.7320    2.0140 C.3   1151  RP41151     0.1862
     10  O9       172.9400  111.2080    3.2770 O.3   1151  RP41151    -0.2201
     11  C7       171.0770  111.2290    1.8530 C.3   1151  RP41151     0.0583
     12  C6       170.0240  110.3700    1.8260 C.3   1151  RP41151     0.0486
     13  C13      170.8890  112.7200    1.7680 C.ar  1151  RP41151    -0.0194
     14  C25      172.0080  113.5760    1.6430 C.ar  1151  RP41151    -0.0042
     15  C24      171.8680  114.9770    1.5800 C.ar  1151  RP41151     0.0002
     16  C23      170.5920  115.5580    1.6440 C.ar  1151  RP41151     0.0065
     17  C15      169.4860  114.6990    1.7690 C.ar  1151  RP41151     0.0291
     18  C14      169.6210  113.2960    1.8440 C.ar  1151  RP41151     0.0023
     19  S16      167.9360  115.3510    1.8410 S.3   1151  RP41151    -0.0869
     20  C17      167.6070  116.5920    0.7340 C.ar  1151  RP41151     0.0295
     21  C22      166.9860  116.2830   -0.4730 C.ar  1151  RP41151     0.0065
     22  C21      166.6950  117.2950   -1.3880 C.ar  1151  RP41151     0.0005
     23  C20      167.0400  118.6060   -1.0690 C.ar  1151  RP41151     0.0000
     24  C19      167.6490  118.9180    0.1350 C.ar  1151  RP41151     0.0005
     25  C18      167.9180  117.9090    1.0440 C.ar  1151  RP41151     0.0065
@<TRIPOS>BOND
     1    22    23   ar
     2    22    21   ar
     3    23    24   ar
     4     1     2   ar
     5    21    20   ar
     6    24    25   ar
     7     2     3   ar
     8     2     4    1
     9    20    25   ar
    10    20    19    1
    11     6     4    1
    12     6     7    1
    13     4    12    1
    14     4     5    1
    15    15    14   ar
    16    15    16   ar
    17     8     7    1
    18    14    13   ar
    19    16    17   ar
    20    13    18   ar
    21    13    11    1
    22    17    19    1
    23    17    18   ar
    24    12    11    1
    25    11     9    1
    26     9     7    1
    27     9    10    1
