@<TRIPOS>MOLECULE
2cjg_PMP_A_1.pdb
 16 16 0 0 0
SMALL
GASTEIGER

@<TRIPOS>ATOM
      1  N1       -21.6820  -33.3840   37.3860 N.ar  1450  PMP1450    -0.2452
      2  C2       -22.6840  -33.3260   36.4310 C.ar  1450  PMP1450     0.0978
      3  C2A      -22.3340  -33.1770   34.9540 C.3   1450  PMP1450     0.0555
      4  C3       -24.0340  -33.4160   36.8630 C.ar  1450  PMP1450     0.2063
      5  O3       -25.0210  -33.3490   35.9230 O.3   1450  PMP1450    -0.2856
      6  C4       -24.3600  -33.5720   38.2340 C.ar  1450  PMP1450     0.0369
      7  C4A      -25.8120  -33.7260   38.7400 C.3   1450  PMP1450     0.1386
      8  N4A      -26.8790  -33.3440   37.8210 N.3   1450  PMP1450    -0.1261
      9  C5       -23.3170  -33.6270   39.1670 C.ar  1450  PMP1450     0.0275
     10  C6       -21.9790  -33.6060   38.7310 C.ar  1450  PMP1450     0.0965
     11  C5A      -23.6070  -33.7420   40.6600 C.3   1450  PMP1450     0.1816
     12  O4P      -24.1160  -35.0480   40.9080 O.3   1450  PMP1450    -0.2653
     13  P        -24.8860  -35.3080   42.3290 P.3   1450  PMP1450     0.5329
     14  O1P      -24.0470  -34.5870   43.3930 O.3   1450  PMP1450    -0.1145
     15  O2P      -25.0230  -36.7990   42.5800 O.3   1450  PMP1450    -0.1145
     16  O3P      -26.2400  -34.6120   42.2680 O.2   1450  PMP1450    -0.2224
@<TRIPOS>BOND
     1     3     2    1
     2     5     4    1
     3     2     4   ar
     4     2     1   ar
     5     4     6   ar
     6     1    10   ar
     7     8     7    1
     8     6     7    1
     9     6     9   ar
    10    10     9   ar
    11     9    11    1
    12    11    12    1
    13    12    13    1
    14    16    13    2
    15    13    15    1
    16    13    14    1
