@<TRIPOS>MOLECULE
2cjh_AKG_A_1.pdb
 10 9 0 0 0
SMALL
GASTEIGER

@<TRIPOS>ATOM
      1  C1       -29.5340  -32.0670   36.2530 C.2   1451  AKG1451     0.4219
      2  O1       -30.7140  -31.6540   36.3680 O.co2 1451  AKG1451    -0.2373
      3  O2       -29.0110  -32.3250   35.1390 O.co2 1451  AKG1451    -0.2373
      4  C2       -28.7730  -32.2100   37.4960 C.2   1451  AKG1451     0.2526
      5  O5       -27.8680  -33.0330   37.5970 O.2   1451  AKG1451    -0.2843
      6  C3       -29.1580  -31.2530   38.6090 C.3   1451  AKG1451     0.0881
      7  C4       -29.1140  -31.7820   40.0390 C.3   1451  AKG1451     0.1224
      8  C5       -29.1530  -30.5650   40.9620 C.2   1451  AKG1451     0.3653
      9  O3       -28.5780  -30.6520   42.0670 O.co2 1451  AKG1451    -0.2456
     10  O4       -29.7440  -29.5120   40.5910 O.co2 1451  AKG1451    -0.2456
@<TRIPOS>BOND
     1     3     1   ar
     2     1     2   ar
     3     1     4    1
     4     4     5    2
     5     4     6    1
     6     6     7    1
     7     7     8    1
     8    10     8   ar
     9     8     9   ar
