@<TRIPOS>MOLECULE
2cjh_PLP_A_1.pdb
 15 15 0 0 0
SMALL
GASTEIGER

@<TRIPOS>ATOM
      1  N1       -21.6460  -33.3050   37.5260 N.ar  1450  PLP1450    -0.2452
      2  C2       -22.6230  -33.4270   36.5330 C.ar  1450  PLP1450     0.0978
      3  C2A      -22.2400  -33.1750   35.0840 C.3   1450  PLP1450     0.0555
      4  C3       -23.9430  -33.7940   36.8970 C.ar  1450  PLP1450     0.2049
      5  O3       -24.8640  -34.1700   35.9260 O.3   1450  PLP1450    -0.2857
      6  C4       -24.2270  -34.0230   38.2640 C.ar  1450  PLP1450     0.0182
      7  C4A      -25.5590  -34.5860   38.6930 C.3   1450  PLP1450     0.0342
      8  C5       -23.2390  -33.9090   39.2500 C.ar  1450  PLP1450     0.0261
      9  C6       -21.9340  -33.5630   38.8720 C.ar  1450  PLP1450     0.0965
     10  C5A      -23.6450  -33.9260   40.7270 C.3   1450  PLP1450     0.1815
     11  O4P      -24.1090  -35.2290   41.0860 O.3   1450  PLP1450    -0.2653
     12  P        -24.9080  -35.4740   42.4830 P.3   1450  PLP1450     0.5329
     13  O1P      -24.0410  -34.7720   43.5280 O.3   1450  PLP1450    -0.1145
     14  O2P      -26.2610  -34.7520   42.4820 O.2   1450  PLP1450    -0.2224
     15  O3P      -25.0570  -36.9830   42.7960 O.3   1450  PLP1450    -0.1145
@<TRIPOS>BOND
     1     3     2    1
     2     5     4    1
     3     2     4   ar
     4     2     1   ar
     5     4     6   ar
     6     1     9   ar
     7     6     7    1
     8     6     8   ar
     9     9     8   ar
    10     8    10    1
    11    10    11    1
    12    11    12    1
    13    14    12    2
    14    12    15    1
    15    12    13    1
