@<TRIPOS>MOLECULE
2cji_GSK_A_1.pdb
 31 34 0 0 0
SMALL
GASTEIGER

@<TRIPOS>ATOM
      1 CL1        13.8980    7.2560   26.6060 Cl    1246  GSK1246    -0.0822
      2  C1        12.2280    7.4970   26.1660 C.ar  1246  GSK1246     0.0577
      3  C2        11.1920    7.0870   27.0520 C.ar  1246  GSK1246     0.0114
      4  C3         9.8150    7.2600   26.7010 C.ar  1246  GSK1246     0.0009
      5  C4         9.5110    7.8730   25.4700 C.ar  1246  GSK1246     0.0014
      6  C5         8.1600    8.0730   25.1010 C.ar  1246  GSK1246     0.0200
      7  C9        10.5710    8.3160   24.5510 C.ar  1246  GSK1246     0.0009
      8  C10       11.9260    8.1130   24.9280 C.ar  1246  GSK1246     0.0114
      9  C8        10.2500    8.9110   23.2990 C.ar  1246  GSK1246     0.0014
     10  C7         8.8830    9.0720   22.9520 C.ar  1246  GSK1246     0.0200
     11  C6         7.8540    8.6690   23.8560 C.ar  1246  GSK1246     0.1236
     12  S1         6.1200    8.8440   23.4240 S.O2  1246  GSK1246     0.0772
     13  O2         5.8710   10.1120   22.7990 O.2   1246  GSK1246    -0.1516
     14  O1         5.3500    8.4400   24.5680 O.2   1246  GSK1246    -0.1516
     15  N1         5.8990    7.8290   22.1850 N.3   1246  GSK1246    -0.0699
     16  C12        6.0230    6.3610   22.2380 C.3   1246  GSK1246     0.1754
     17  C13        4.7150    5.6680   21.8630 C.3   1246  GSK1246     0.0502
     18  C14        5.1110    4.3350   21.2130 C.3   1246  GSK1246     0.0959
     19  C15        7.0530    5.6740   21.3390 C.2   1246  GSK1246     0.2437
     20  O3         8.1930    6.0680   21.1110 O.2   1246  GSK1246    -0.2733
     21  N2         6.5120    4.5220   20.8550 N.am  1246  GSK1246    -0.2718
     22  C16        7.3160    3.5150   20.1230 C.3   1246  GSK1246     0.1521
     23  C17        7.0920    2.0900   20.6760 C.3   1246  GSK1246     0.0314
     24  C18        7.1730    3.5580   18.6090 C.2   1246  GSK1246     0.2439
     25  O4         6.1410    3.9890   18.1180 O.2   1246  GSK1246    -0.2731
     26  N3         8.2350    3.1650   17.8510 N.am  1246  GSK1246    -0.2731
     27  C19        9.6120    3.0050   18.3380 C.3   1246  GSK1246     0.1255
     28  C20       10.1330    1.6310   17.9500 C.3   1246  GSK1246     0.1636
     29  O5        10.1950    1.6410   16.5400 O.3   1246  GSK1246    -0.3501
     30  C22        8.9200    1.7770   15.8930 C.3   1246  GSK1246     0.1636
     31  C23        8.0480    2.9290   16.4170 C.3   1246  GSK1246     0.1255
@<TRIPOS>BOND
     1    30    31    1
     2    30    29    1
     3    31    26    1
     4    29    28    1
     5    26    27    1
     6    26    24   am
     7    28    27    1
     8    25    24    2
     9    24    22    1
    10    22    23    1
    11    22    21    1
    12    21    18    1
    13    21    19   am
    14    20    19    2
    15    18    17    1
    16    19    16    1
    17    17    16    1
    18    15    16    1
    19    15    12    1
    20    13    12    2
    21    10     9   ar
    22    10    11   ar
    23     9     7   ar
    24    12    11    1
    25    12    14    2
    26    11     6   ar
    27     7     8   ar
    28     7     5   ar
    29     8     2   ar
    30     6     5   ar
    31     5     4   ar
    32     2     1    1
    33     2     3   ar
    34     4     3   ar
