@<TRIPOS>MOLECULE
2cjm_ATP_A_1.pdb
 31 33 0 0 0
SMALL
GASTEIGER

@<TRIPOS>ATOM
      1  PG       -34.9390  -16.2670   56.9200 P.3   1294  ATP1294     0.5373
      2  O1G      -34.0000  -15.9820   58.0800 O.3   1294  ATP1294    -0.1143
      3  O2G      -35.2250  -17.7410   56.6970 O.2   1294  ATP1294    -0.2221
      4  O3G      -36.2010  -15.4280   56.9520 O.3   1294  ATP1294    -0.1143
      5  PB       -33.8170  -16.6640   54.2880 P.3   1294  ATP1294     0.2277
      6  O1B      -33.1550  -15.7710   53.2660 O.2   1294  ATP1294    -0.5168
      7  O2B      -35.0890  -17.3790   53.8780 O.3   1294  ATP1294    -0.4368
      8  O3B      -34.1490  -15.7460   55.5920 O.3   1294  ATP1294    -0.2258
      9  PA       -32.6760  -19.3470   54.7720 P.3   1294  ATP1294     0.2189
     10  O1A      -33.4170  -19.9740   55.9430 O.3   1294  ATP1294    -0.4371
     11  O2A      -31.2370  -19.7790   54.5330 O.2   1294  ATP1294    -0.5170
     12  O3A      -32.6950  -17.7150   54.8510 O.3   1294  ATP1294    -0.2700
     13  O5'      -33.5740  -19.6270   53.4570 O.3   1294  ATP1294    -0.3112
     14  C5'      -33.2390  -19.1780   52.1400 C.3   1294  ATP1294     0.1813
     15  C4'      -33.6140  -20.2840   51.1560 C.3   1294  ATP1294     0.1821
     16  O4'      -32.9160  -20.0420   49.9270 O.3   1294  ATP1294    -0.3135
     17  C3'      -33.1870  -21.6740   51.6710 C.3   1294  ATP1294     0.2184
     18  O3'      -34.2470  -22.4730   52.2390 O.3   1294  ATP1294    -0.2174
     19  C2'      -32.5330  -22.3300   50.4700 C.3   1294  ATP1294     0.2570
     20  O2'      -33.5120  -23.0780   49.7190 O.3   1294  ATP1294    -0.2130
     21  C1'      -31.9960  -21.1240   49.6830 C.3   1294  ATP1294     0.3186
     22  N9       -30.5700  -20.8450   50.1050 N.pl3 1294  ATP1294    -0.1439
     23  C8       -30.1410  -19.9760   51.0530 C.3   1294  ATP1294     0.3377
     24  N7       -28.7960  -19.9870   51.1720 N.2   1294  ATP1294    -0.2095
     25  C5       -28.3280  -20.8940   50.2890 C.2   1294  ATP1294     0.2526
     26  C6       -26.9870  -21.4220   49.8950 C.2   1294  ATP1294     0.4393
     27  N6       -25.8550  -20.9710   50.4790 N.pl3 1294  ATP1294     0.2180
     28  N1       -26.9460  -22.3590   48.9200 N.2   1294  ATP1294     0.0021
     29  C2       -28.0710  -22.8180   48.3230 C.3   1294  ATP1294     0.5254
     30  N3       -29.3130  -22.3970   48.6300 N.2   1294  ATP1294    -0.0055
     31  C4       -29.5010  -21.4520   49.5850 C.2   1294  ATP1294     0.3518
@<TRIPOS>BOND
     1    29    30    1
     2    29    28    1
     3    30    31    2
     4    28    26    2
     5    31    22    1
     6    31    25    1
     7    21    16    1
     8    21    22    1
     9    21    19    1
    10    20    19    1
    11    26    25    1
    12    26    27    1
    13    16    15    1
    14    22    23    1
    15    25    24    2
    16    19    17    1
    17    23    24    1
    18    15    17    1
    19    15    14    1
    20    17    18    1
    21    14    13    1
    22     6     5    2
    23    13     9    1
    24     7     5    1
    25     5    12    1
    26     5     8    1
    27    11     9    2
    28     9    12    1
    29     9    10    1
    30     8     1    1
    31     3     1    2
    32     1     4    1
    33     1     2    1
