@<TRIPOS>MOLECULE
2cjm_PTR_A_1.pdb
 16 16 0 0 0
SMALL
GASTEIGER

@<TRIPOS>ATOM
      1  N        -36.2990  -10.9940   54.3270 N.3   1293  PTR1293    -0.1241
      2  CA       -35.6110   -9.7410   53.8850 C.3   1293  PTR1293     0.1605
      3  C        -35.1730   -9.6800   52.4080 C.2   1293  PTR1293     0.2264
      4  O        -34.8610   -8.6110   51.8760 O.2   1293  PTR1293    -0.2867
      5  CB       -34.4730   -9.4430   54.8610 C.3   1293  PTR1293     0.0534
      6  CG       -34.9770   -8.8190   56.1410 C.ar  1293  PTR1293    -0.0201
      7  CD1      -35.5340   -7.5420   56.1410 C.ar  1293  PTR1293    -0.0011
      8  CD2      -34.9390   -9.5190   57.3430 C.ar  1293  PTR1293    -0.0011
      9  CE1      -36.0170   -6.9670   57.3160 C.ar  1293  PTR1293     0.0371
     10  CE2      -35.4330   -8.9580   58.5240 C.ar  1293  PTR1293     0.0371
     11  CZ       -35.9690   -7.6800   58.5070 C.ar  1293  PTR1293     0.1490
     12  OH       -36.3710   -7.1500   59.5570 O.3   1293  PTR1293    -0.3998
     13  P        -37.8680   -7.2320   60.1900 P.3   1293  PTR1293     0.5887
     14  O1P      -38.8330   -7.6800   59.1380 O.2   1293  PTR1293    -0.2114
     15  O2P      -38.3320   -5.8350   60.7060 O.3   1293  PTR1293    -0.1039
     16  O3P      -37.8630   -8.2920   61.3290 O.3   1293  PTR1293    -0.1039
@<TRIPOS>BOND
     1     4     3    2
     2     3     2    1
     3     2     1    1
     4     2     5    1
     5     5     6    1
     6     6     7   ar
     7     6     8   ar
     8     7     9   ar
     9     9    11   ar
    10     8    10   ar
    11    11    10   ar
    12    11    12    1
    13    14    13    2
    14    12    13    1
    15    13    15    1
    16    13    16    1
