@<TRIPOS>MOLECULE
2cjp_VPR_B_1.pdb
 10 9 0 0 0
SMALL
GASTEIGER

@<TRIPOS>ATOM
      1  C5        16.8250   90.0690   32.1330 C.3   1322  VPR1322     0.0000
      2  C4        17.5950   90.4950   33.3660 C.3   1322  VPR1322     0.0005
      3  C3        17.0650   91.8060   33.9340 C.3   1322  VPR1322     0.0092
      4  C2        18.1520   92.8580   34.1400 C.3   1322  VPR1322     0.0799
      5  C3A       17.5140   94.1820   34.5390 C.3   1322  VPR1322     0.0092
      6  C4A       17.8160   95.2580   33.5070 C.3   1322  VPR1322     0.0005
      7  C5A       16.7810   96.3630   33.5220 C.3   1322  VPR1322     0.0000
      8  C1        19.1520   92.4340   35.1880 C.2   1322  VPR1322     0.2603
      9  N         18.7020   92.0810   36.3970 N.am  1322  VPR1322    -0.0878
     10  O         20.3350   92.4200   34.8850 O.2   1322  VPR1322    -0.2717
@<TRIPOS>BOND
     1     1     2    1
     2     2     3    1
     3     6     7    1
     4     6     5    1
     5     3     4    1
     6     4     5    1
     7     4     8    1
     8    10     8    2
     9     8     9   am
