@<TRIPOS>MOLECULE
2cju_PHX_H_1.pdb
 20 21 0 0 0
SMALL
GASTEIGER

@<TRIPOS>ATOM
      1  CAC       16.8140   28.0830   57.2230 C.ar  1114  PHX1114     0.0058
      2  CAB       17.5820   29.2180   58.0560 C.ar  1114  PHX1114     0.0002
      3  CAM       18.0090   29.0550   59.6050 C.ar  1114  PHX1114     0.0000
      4  CAQ       17.6450   27.6580   60.0550 C.ar  1114  PHX1114     0.0002
      5  CAR       16.8830   26.5080   59.2380 C.ar  1114  PHX1114     0.0058
      6  CAN       16.4170   26.7560   57.7940 C.ar  1114  PHX1114     0.0665
      7  CAO       15.7190   25.9230   57.4330 C.2   1114  PHX1114     0.2846
      8  NAD       15.3510   24.5500   57.6310 N.2   1114  PHX1114    -0.3591
      9  OAS       15.4390   26.2990   56.0600 O.3   1114  PHX1114    -0.3908
     10  CAT       14.7720   25.0930   55.3900 C.2   1114  PHX1114     0.3793
     11  OAU       14.1330   25.1270   54.3390 O.2   1114  PHX1114    -0.2415
     12  CAE       14.7410   23.8440   56.3460 C.2   1114  PHX1114     0.2295
     13  CAF       14.0190   22.9760   56.4950 C.2   1114  PHX1114     0.1376
     14  NAG       14.4370   21.5750   56.3560 N.2   1114  PHX1114    -0.2397
     15  CAH       13.3270   20.5230   56.5640 C.2   1114  PHX1114     0.0947
     16  CAI       13.4300   19.1930   55.8420 C.2   1114  PHX1114     0.0026
     17  CAJ       14.5490   18.8210   54.9100 C.3   1114  PHX1114     0.1274
     18  CAK       15.8740   18.0370   54.8070 C.3   1114  PHX1114     0.4303
     19  OAL       15.7330   17.1540   53.8590 O.2   1114  PHX1114    -0.2667
     20  OAP       17.0040   18.8500   54.6420 O.2   1114  PHX1114    -0.2667
@<TRIPOS>BOND
     1    19    18    1
     2    11    10    2
     3    20    18    1
     4    18    17    1
     5    17    16    1
     6    10     9    1
     7    10    12    1
     8    16    15    2
     9     9     7    1
    10    12    13    1
    11    12     8    2
    12    14    13    2
    13    14    15    1
    14     1     6   ar
    15     1     2   ar
    16     7     8    2
    17     7     6    1
    18     6     5   ar
    19     2     3   ar
    20     5     4   ar
    21     3     4   ar
