@<TRIPOS>MOLECULE
2cjw_GDP_A_1.pdb
 28 30 0 0 0
SMALL
GASTEIGER

@<TRIPOS>ATOM
      1  PB       -11.1280   73.9800   -4.0580 P.3   999  GDP999      0.5373
      2  O1B      -12.3100   73.7320   -4.9610 O.2   999  GDP999     -0.2221
      3  O2B      -11.3300   75.2650   -3.3250 O.3   999  GDP999     -0.1143
      4  O3B       -9.8480   74.0700   -4.8290 O.3   999  GDP999     -0.1143
      5  O3A      -11.0240   72.6950   -3.1060 O.3   999  GDP999     -0.2261
      6  PA       -11.4550   72.6240   -1.5510 P.3   999  GDP999      0.2231
      7  O1A      -10.5810   73.4940   -0.7090 O.3   999  GDP999     -0.4370
      8  O2A      -12.9130   72.9210   -1.4060 O.2   999  GDP999     -0.5169
      9  O5'      -11.1570   71.0710   -1.2970 O.3   999  GDP999     -0.3111
     10  C5'      -11.8820   70.0040   -1.9300 C.3   999  GDP999      0.1813
     11  C4'      -11.7900   68.7400   -1.0760 C.3   999  GDP999      0.1799
     12  O4'      -10.4300   68.3210   -0.9100 O.3   999  GDP999     -0.3326
     13  C3'      -12.3380   68.9600    0.3300 C.3   999  GDP999      0.2158
     14  O3'      -13.0040   67.7570    0.7020 O.3   999  GDP999     -0.2175
     15  C2'      -11.1120   69.1340    1.2060 C.3   999  GDP999      0.2310
     16  O2'      -11.3170   68.6330    2.5230 O.3   999  GDP999     -0.2158
     17  C1'      -10.1020   68.2550    0.4910 C.3   999  GDP999      0.2293
     18  N9        -8.6990   68.6820    0.6370 N.pl3 999  GDP999     -0.2354
     19  C8        -8.1920   69.9060    0.4270 C.3   999  GDP999      0.2246
     20  N7        -6.8580   69.8930    0.6170 N.2   999  GDP999     -0.2322
     21  C5        -6.4980   68.6330    0.9340 C.2   999  GDP999      0.2182
     22  C6        -5.2440   67.9230    1.2720 C.1   999  GDP999      0.2372
     23  O6        -4.1420   68.5020    1.2970 O.2   999  GDP999     -0.2069
     24  N1        -5.3370   66.6150    1.5450 N.2   999  GDP999     -0.2485
     25  C2        -6.4910   65.9340    1.5340 C.1   999  GDP999      0.2531
     26  N2        -6.4600   64.6230    1.8370 N.pl3 999  GDP999     -0.0226
     27  N3        -7.6830   66.5160    1.2440 N.2   999  GDP999     -0.3074
     28  C4        -7.7230   67.8400    0.9470 C.2   999  GDP999      0.2300
@<TRIPOS>BOND
     1     2     1    2
     2     4     1    1
     3     1     3    1
     4     1     5    1
     5     5     6    1
     6    10     9    1
     7    10    11    1
     8     6     8    2
     9     6     9    1
    10     6     7    1
    11    11    12    1
    12    11    13    1
    13    12    17    1
    14    13    14    1
    15    13    15    1
    16    19    20    1
    17    19    18    1
    18    17    18    1
    19    17    15    1
    20    20    21    2
    21    18    28    1
    22    21    28    1
    23    21    22    1
    24    28    27    2
    25    15    16    1
    26    27    25    2
    27    22    23    2
    28    22    24    2
    29    25    24    2
    30    25    26    1
