@<TRIPOS>MOLECULE
2cjx_III_I_1.pdb
 33 32 0 0 0
SMALL
GASTEIGER

@<TRIPOS>ATOM
      1  N         42.5760   28.2350   22.5930 N.3   902  ASP902     -0.1225
      2  CA        41.9370   28.3050   23.9360 C.3   902  ASP902      0.1805
      3  C         41.5480   29.7440   24.2650 C.2   902  ASP902      0.2598
      4  O         42.2790   30.6820   23.9420 O.2   902  ASP902     -0.2718
      5  CB        42.8980   27.7670   25.0010 C.3   902  ASP902      0.1424
      6  CG        43.3250   26.3330   24.7330 C.2   902  ASP902      0.3668
      7  OD1       42.4400   25.4650   24.5880 O.co2 902  ASP902     -0.2456
      8  OD2       44.5460   26.0720   24.6780 O.co2 902  ASP902     -0.2456
      9  N         40.3900   29.9120   24.8990 N.am  903  GLU903     -0.1965
     10  CA        39.8920   31.2340   25.2720 C.3   903  GLU903      0.1733
     11  C         39.3930   31.1790   26.7120 C.2   903  GLU903      0.2616
     12  O         39.2180   30.0980   27.2630 O.2   903  GLU903     -0.2715
     13  CB        38.7320   31.6450   24.3570 C.3   903  GLU903      0.0429
     14  CG        38.9730   31.4180   22.8720 C.3   903  GLU903      0.1163
     15  CD        37.8630   31.9950   22.0090 C.2   903  GLU903      0.3649
     16  OE1       36.6750   31.7870   22.3370 O.co2 903  GLU903     -0.2457
     17  OE2       38.1770   32.6530   20.9950 O.co2 903  GLU903     -0.2457
     18  N         39.1560   32.3420   27.3160 N.am  904  VAL904     -0.1963
     19  CA        38.6600   32.3920   28.6890 C.3   904  VAL904      0.1727
     20  C         37.2740   33.0330   28.7780 C.2   904  VAL904      0.2616
     21  O         36.8150   33.6940   27.8500 O.2   904  VAL904     -0.2715
     22  CB        39.6310   33.1690   29.6160 C.3   904  VAL904      0.0290
     23  CG1       40.9410   32.4160   29.7460 C.3   904  VAL904      0.0023
     24  CG2       39.8760   34.5650   29.0680 C.3   904  VAL904      0.0023
     25  N         36.6210   32.4670   29.7720 N.am  905  ASP905     -0.1976
     26  CA        35.1900   32.7500   30.1270 C.3   905  ASP905      0.1635
     27  C         35.1260   33.7710   31.1580 C.2   905  ASP905      0.1713
     28  O         33.9790   34.0980   31.5780 O.2   905  ASP905     -0.2942
     29  CB        34.4310   31.4650   30.6040 C.3   905  ASP905      0.1432
     30  CG        33.7630   30.6920   29.4650 C.2   905  ASP905      0.3671
     31  OD1       33.5390   31.2740   28.3630 O.co2 905  ASP905     -0.2456
     32  OD2       33.4590   29.5080   29.6560 O.co2 905  ASP905     -0.2456
     33  C1        36.3200   34.4860   31.7900 C.3   906  0QE906      0.0741
@<TRIPOS>BOND
     1    17    15   ar
     2    15    16   ar
     3    15    14    1
     4     1     2    1
     5    14    13    1
     6     2     3    1
     7     2     5    1
     8     4     3    2
     9     3     9   am
    10    13    10    1
    11     7     6   ar
    12     8     6   ar
    13     6     5    1
    14     9    10    1
    15    10    11    1
    16    11    12    2
    17    11    18   am
    18    18    19    1
    19    21    20    2
    20    31    30   ar
    21    19    20    1
    22    19    22    1
    23    20    25   am
    24    24    22    1
    25    30    32   ar
    26    30    29    1
    27    22    23    1
    28    25    26    1
    29    26    29    1
    30    26    27    1
    31    27    28    2
    32    27    33    1
