@<TRIPOS>MOLECULE
2cjy_III_I_1.pdb
 43 43 0 0 0
SMALL
GASTEIGER

@<TRIPOS>ATOM
      1  C1        40.9690   27.9880   21.7720 C.2   901  PHQ901      0.4219
      2  O1        39.8140   27.5880   21.6950 O.2   901  PHQ901     -0.2245
      3  O2        41.8160   28.2440   20.7290 O.3   901  PHQ901     -0.4285
      4  C2        41.3100   28.0230   19.3810 C.3   901  PHQ901      0.2368
      5  C3        42.3360   28.3440   18.2720 C.ar  901  PHQ901      0.0213
      6  C4        41.9180   28.1550   16.8980 C.ar  901  PHQ901     -0.0007
      7  C5        42.8250   28.4390   15.8060 C.ar  901  PHQ901     -0.0002
      8  C6        44.1660   28.9150   16.0810 C.ar  901  PHQ901     -0.0000
      9  C7        44.6000   29.1080   17.4490 C.ar  901  PHQ901     -0.0002
     10  C8        43.6900   28.8240   18.5440 C.ar  901  PHQ901     -0.0007
     11  N         41.6180   28.7430   22.6430 N.am  902  ASP902     -0.1605
     12  CA        41.1840   28.8980   24.0250 C.3   902  ASP902      0.1873
     13  C         40.7200   30.3150   24.3330 C.2   902  ASP902      0.2623
     14  O         41.3280   31.2930   23.8960 O.2   902  ASP902     -0.2715
     15  CB        42.3090   28.5040   24.9860 C.3   902  ASP902      0.1451
     16  CG        42.6150   27.0240   24.9430 C.2   902  ASP902      0.3671
     17  OD1       41.6540   26.2310   24.8770 O.co2 902  ASP902     -0.2456
     18  OD2       43.8060   26.6490   24.9860 O.co2 902  ASP902     -0.2456
     19  N         39.6300   30.4120   25.0870 N.am  903  GLU903     -0.1963
     20  CA        39.0630   31.6960   25.4750 C.3   903  GLU903      0.1733
     21  C         38.6170   31.5680   26.9290 C.2   903  GLU903      0.2613
     22  O         38.4600   30.4540   27.4310 O.2   903  GLU903     -0.2715
     23  CB        37.8590   32.0380   24.5870 C.3   903  GLU903      0.0429
     24  CG        38.0900   31.7910   23.0950 C.3   903  GLU903      0.1163
     25  CD        36.9520   32.2980   22.2220 C.2   903  GLU903      0.3649
     26  OE1       35.7870   32.2730   22.6710 O.co2 903  GLU903     -0.2457
     27  OE2       37.2230   32.7130   21.0740 O.co2 903  GLU903     -0.2457
     28  N         38.4250   32.7020   27.6000 N.am  904  VAL904     -0.2016
     29  CA        37.9830   32.7060   28.9920 C.3   904  VAL904      0.1425
     30  C         36.6540   33.4410   29.1140 C.3   904  VAL904      0.2459
     31  O         36.0240   33.7910   28.1210 O.3   904  VAL904     -0.2017
     32  CB        39.0020   33.4100   29.9240 C.3   904  VAL904      0.0240
     33  CG1       40.3490   32.7120   29.8540 C.3   904  VAL904      0.0019
     34  CG2       39.1350   34.8740   29.5360 C.3   904  VAL904      0.0019
     35  N         35.9710   32.6250   30.0530 N.3   905  ASP905     -0.1811
     36  CA        34.5600   32.8560   30.4770 C.3   905  ASP905      0.1437
     37  C         34.5190   33.8500   31.5330 C.2   905  ASP905      0.1674
     38  O         33.3870   34.1330   32.0150 O.2   905  ASP905     -0.2946
     39  CB        33.8450   31.5440   30.9190 C.3   905  ASP905      0.1389
     40  CG        33.2530   30.7720   29.7370 C.2   905  ASP905      0.3667
     41  OD1       33.0110   31.3850   28.6540 O.co2 905  ASP905     -0.2456
     42  OD2       33.0250   29.5620   29.8700 O.co2 905  ASP905     -0.2456
     43  C1        35.7190   34.5910   32.1230 C.3   906  0QE906      0.0738
@<TRIPOS>BOND
     1     7     8   ar
     2     7     6   ar
     3     8     9   ar
     4     6     5   ar
     5     9    10   ar
     6     5    10   ar
     7     5     4    1
     8     4     3    1
     9     3     1    1
    10    27    25   ar
    11     2     1    2
    12     1    11   am
    13    25    26   ar
    14    25    24    1
    15    11    12    1
    16    24    23    1
    17    14    13    2
    18    12    13    1
    19    12    15    1
    20    13    19   am
    21    23    20    1
    22    17    16   ar
    23    16    15    1
    24    16    18   ar
    25    19    20    1
    26    20    21    1
    27    21    22    2
    28    21    28   am
    29    28    29    1
    30    31    30    1
    31    41    40   ar
    32    29    30    1
    33    29    32    1
    34    30    35    1
    35    34    32    1
    36    40    42   ar
    37    40    39    1
    38    33    32    1
    39    35    36    1
    40    36    39    1
    41    36    37    1
    42    37    38    2
    43    37    43    1
