@<TRIPOS>MOLECULE
2cjz_PTR_A_1.pdb
 16 16 0 0 0
SMALL
GASTEIGER

@<TRIPOS>ATOM
      1  N         11.7720  -20.6810  -13.0300 N.3   1537  PTR1537    -0.1241
      2  CA        10.3320  -20.8040  -13.4060 C.3   1537  PTR1537     0.1605
      3  C         10.1910  -21.3130  -14.8400 C.2   1537  PTR1537     0.2264
      4  O          9.0810  -21.5220  -15.3310 O.2   1537  PTR1537    -0.2867
      5  CB         9.5880  -19.4740  -13.1990 C.3   1537  PTR1537     0.0534
      6  CG         9.8530  -18.3980  -14.2390 C.ar  1537  PTR1537    -0.0201
      7  CD1       11.1410  -18.1320  -14.7000 C.ar  1537  PTR1537    -0.0011
      8  CD2        8.8080  -17.6320  -14.7470 C.ar  1537  PTR1537    -0.0011
      9  CE1       11.3740  -17.1450  -15.6520 C.ar  1537  PTR1537     0.0371
     10  CE2        9.0320  -16.6450  -15.6950 C.ar  1537  PTR1537     0.0371
     11  CZ        10.3190  -16.3980  -16.1400 C.ar  1537  PTR1537     0.1490
     12  OH        10.5300  -15.5270  -16.9980 O.3   1537  PTR1537    -0.3998
     13  P         10.6240  -13.9440  -16.6600 P.3   1537  PTR1537     0.5887
     14  O1P       11.7740  -13.7360  -15.7660 O.3   1537  PTR1537    -0.1039
     15  O2P        9.3260  -13.4950  -16.0020 O.3   1537  PTR1537    -0.1039
     16  O3P       10.8190  -13.2400  -18.0030 O.2   1537  PTR1537    -0.2114
@<TRIPOS>BOND
     1    16    13    2
     2    12    13    1
     3    12    11    1
     4    13    15    1
     5    13    14    1
     6    11    10   ar
     7    11     9   ar
     8    10     8   ar
     9     9     7   ar
    10     4     3    2
    11     3     2    1
    12     8     6   ar
    13     7     6   ar
    14     6     5    1
    15     2     5    1
    16     2     1    1
