@<TRIPOS>MOLECULE
2ck3_ADP_D_1.pdb
 27 29 0 0 0
SMALL
GASTEIGER

@<TRIPOS>ATOM
      1  PB        98.9330   57.0050   69.6540 P.3   600  ADP600      0.5373
      2  O1B       98.2540   55.8280   70.3020 O.3   600  ADP600     -0.1143
      3  O2B       99.6720   57.8900   70.6350 O.3   600  ADP600     -0.1143
      4  O3B       99.7230   56.6550   68.4240 O.2   600  ADP600     -0.2221
      5  PA        97.2450   59.3640   69.4320 P.3   600  ADP600      0.2231
      6  O1A       98.1310   60.3360   68.6930 O.2   600  ADP600     -0.5169
      7  O2A       97.0360   59.5380   70.9140 O.3   600  ADP600     -0.4370
      8  O3A       97.6760   57.8430   69.0820 O.3   600  ADP600     -0.2261
      9  O5'       95.8090   59.4140   68.7260 O.3   600  ADP600     -0.3111
     10  C5'       95.7070   59.1870   67.3220 C.3   600  ADP600      0.1813
     11  C4'       94.5060   59.9380   66.7630 C.3   600  ADP600      0.1821
     12  O4'       93.2820   59.2650   67.0940 O.3   600  ADP600     -0.3135
     13  C3'       94.3520   61.3410   67.3320 C.3   600  ADP600      0.2184
     14  O3'       95.1180   62.3130   66.6230 O.3   600  ADP600     -0.2174
     15  C2'       92.8650   61.5820   67.1900 C.3   600  ADP600      0.2570
     16  O2'       92.5750   61.9530   65.8370 O.3   600  ADP600     -0.2130
     17  C1'       92.2740   60.2110   67.4760 C.3   600  ADP600      0.3186
     18  N9        92.0020   60.1120   68.9340 N.pl3 600  ADP600     -0.1439
     19  C8        92.7990   59.5090   69.8410 C.3   600  ADP600      0.3377
     20  N7        92.2840   59.5990   71.0870 N.2   600  ADP600     -0.2095
     21  C5        91.1300   60.2800   70.9990 C.2   600  ADP600      0.2526
     22  C6        90.0810   60.7190   71.9480 C.2   600  ADP600      0.4393
     23  N6        90.1930   60.4350   73.2670 N.pl3 600  ADP600      0.2180
     24  N1        89.0230   61.4090   71.4530 N.2   600  ADP600      0.0021
     25  C2        88.9160   61.6870   70.1380 C.3   600  ADP600      0.5254
     26  N3        89.8300   61.3110   69.2190 N.2   600  ADP600     -0.0055
     27  C4        90.9420   60.6190   69.5790 C.2   600  ADP600      0.3518
@<TRIPOS>BOND
     1    16    15    1
     2    14    13    1
     3    11    12    1
     4    11    10    1
     5    11    13    1
     6    12    17    1
     7    15    13    1
     8    15    17    1
     9    10     9    1
    10    17    18    1
    11     4     1    2
    12     6     5    2
    13     9     5    1
    14    18    27    1
    15    18    19    1
    16     8     5    1
    17     8     1    1
    18    26    27    2
    19    26    25    1
    20     5     7    1
    21    27    21    1
    22     1     2    1
    23     1     3    1
    24    19    20    1
    25    25    24    1
    26    21    20    2
    27    21    22    1
    28    24    22    2
    29    22    23    1
