@<TRIPOS>MOLECULE
2ck3_ANP_A_1.pdb
 31 33 0 0 0
SMALL
GASTEIGER

@<TRIPOS>ATOM
      1  PG       100.0290   38.6140   86.4460 P.3   600  ANP600      0.4884
      2  O1G      100.0750   40.0650   86.8670 O.3   600  ANP600     -0.1240
      3  O2G      101.0220   37.7330   87.1490 O.3   600  ANP600     -0.1240
      4  O3G       99.9810   38.3910   84.9550 O.2   600  ANP600     -0.2331
      5  PB        98.0660   36.5310   87.5120 P.3   600  ANP600      0.4669
      6  O1B       97.7050   35.7230   86.3000 O.2   600  ANP600     -0.2351
      7  O2B       99.1300   35.9840   88.4190 O.3   600  ANP600     -0.1253
      8  N3B       98.4630   38.1550   87.0370 N.3   600  ANP600     -0.0163
      9  PA        96.5320   37.4390   89.7440 P.3   600  ANP600      0.2220
     10  O1A       97.4620   38.6170   89.7760 O.2   600  ANP600     -0.5170
     11  O2A       96.5500   36.4150   90.8530 O.3   600  ANP600     -0.4370
     12  O3A       96.7000   36.6700   88.3440 O.3   600  ANP600     -0.2360
     13  O5'       95.0240   37.9800   89.5920 O.3   600  ANP600     -0.3111
     14  C5'       94.7000   39.0230   88.6700 C.3   600  ANP600      0.1813
     15  C4'       93.5620   39.8840   89.2320 C.3   600  ANP600      0.1821
     16  O4'       92.4070   39.0670   89.4310 O.3   600  ANP600     -0.3135
     17  C3'       93.9000   40.5060   90.5830 C.3   600  ANP600      0.2184
     18  O3'       93.3910   41.8450   90.6490 O.3   600  ANP600     -0.2174
     19  C2'       93.1790   39.6180   91.5790 C.3   600  ANP600      0.2570
     20  O2'       92.8260   40.3300   92.7620 O.3   600  ANP600     -0.2130
     21  C1'       91.9700   39.1300   90.7940 C.3   600  ANP600      0.3186
     22  N9        91.5180   37.7910   91.2520 N.pl3 600  ANP600     -0.1439
     23  C8        92.2500   36.6600   91.2470 C.3   600  ANP600      0.3377
     24  N7        91.5370   35.6120   91.7330 N.2   600  ANP600     -0.2095
     25  C5        90.3140   36.0670   92.0520 C.2   600  ANP600      0.2526
     26  C6        89.0690   35.4840   92.6090 C.2   600  ANP600      0.4393
     27  N6        88.9970   34.1670   92.9310 N.pl3 600  ANP600      0.2180
     28  N1        88.0110   36.3140   92.7910 N.2   600  ANP600      0.0021
     29  C2        88.0750   37.6270   92.4770 C.3   600  ANP600      0.5254
     30  N3        89.1750   38.2160   91.9640 N.2   600  ANP600     -0.0055
     31  C4        90.3040   37.5050   91.7300 C.2   600  ANP600      0.3518
@<TRIPOS>BOND
     1     4     1    2
     2     6     5    2
     3     1     2    1
     4     1     8    1
     5     1     3    1
     6     8     5    1
     7     5    12    1
     8     5     7    1
     9    12     9    1
    10    14    15    1
    11    14    13    1
    12    15    16    1
    13    15    17    1
    14    16    21    1
    15    13     9    1
    16     9    10    2
    17     9    11    1
    18    17    18    1
    19    17    19    1
    20    21    22    1
    21    21    19    1
    22    23    22    1
    23    23    24    1
    24    22    31    1
    25    19    20    1
    26    31    30    2
    27    31    25    1
    28    24    25    2
    29    30    29    1
    30    25    26    1
    31    29    28    1
    32    26    28    2
    33    26    27    1
