@<TRIPOS>MOLECULE
2cke_IQU_A_1.pdb
 17 18 0 0 0
SMALL
GASTEIGER

@<TRIPOS>ATOM
      1  C1         6.9090   -1.8210   10.7330 C.ar  1302  IQU1302     0.1236
      2  C2         5.6500   -2.4240   10.6960 C.ar  1302  IQU1302     0.0200
      3  C3         5.4710   -3.7240   10.2250 C.ar  1302  IQU1302     0.0014
      4  C4         6.5340   -4.4950    9.7680 C.ar  1302  IQU1302     0.0016
      5  C5         7.8280   -3.9920    9.7630 C.ar  1302  IQU1302     0.0205
      6  C6         8.8970   -4.7540    9.3070 C.ar  1302  IQU1302     0.0989
      7  N7        10.1380   -4.2450    9.3130 N.ar  1302  IQU1302    -0.2423
      8  C8        10.4010   -3.0020    9.7500 C.ar  1302  IQU1302     0.0989
      9  C9         9.3960   -2.1620   10.2250 C.ar  1302  IQU1302     0.0220
     10  C10        8.0800   -2.6160   10.2510 C.ar  1302  IQU1302     0.0217
     11  S          7.0500   -0.3240   11.2870 S.O2  1302  IQU1302     0.0769
     12  O1         7.6430   -0.3580   12.5930 O.2   1302  IQU1302    -0.1516
     13  O2         7.8830    0.4530   10.4110 O.2   1302  IQU1302    -0.1516
     14  N1'        5.6070    0.3880   11.3380 N.3   1302  IQU1302    -0.0762
     15  C2'        4.8110    0.4480   12.5540 C.3   1302  IQU1302     0.1359
     16  C3'        3.3150    0.4280   12.2560 C.3   1302  IQU1302     0.1301
     17  N4'        2.5210    0.6280   13.4550 N.3   1302  IQU1302    -0.1297
@<TRIPOS>BOND
     1     6     7   ar
     2     6     5   ar
     3     7     8   ar
     4     8     9   ar
     5     5     4   ar
     6     5    10   ar
     7     4     3   ar
     8     3     2   ar
     9     9    10   ar
    10    10     1   ar
    11    13    11    2
    12     2     1   ar
    13     1    11    1
    14    11    14    1
    15    11    12    2
    16    14    15    1
    17    16    15    1
    18    16    17    1
