@<TRIPOS>MOLECULE
2cki_ARG_A_1.pdb
 11 10 0 0 0
SMALL
GASTEIGER

@<TRIPOS>ATOM
      1  N         18.0990   40.9230  -26.3530 N.3   401  ARG401     -0.1245
      2  CA        18.5990   41.6230  -27.5370 C.3   401  ARG401      0.1563
      3  C         19.7710   40.8590  -28.1590 C.2   401  ARG401      0.2260
      4  O         20.6830   40.4260  -27.4630 O.2   401  ARG401     -0.2867
      5  CB        19.0060   43.0480  -27.1720 C.3   401  ARG401      0.0307
      6  CG        19.2640   43.9390  -28.3630 C.3   401  ARG401      0.0489
      7  CD        19.8790   45.2670  -27.9820 C.3   401  ARG401      0.2205
      8  NE        20.3220   46.0320  -29.1450 N.pl3 401  ARG401     -0.0865
      9  CZ        21.0020   47.1620  -29.0620 C.cat 401  ARG401      0.5346
     10  NH1       21.3240   47.6590  -27.8710 N.pl3 401  ARG401      0.1354
     11  NH2       21.3640   47.7990  -30.1560 N.pl3 401  ARG401      0.1354
@<TRIPOS>BOND
     1    11     9    1
     2     8     9    2
     3     8     7    1
     4     9    10    1
     5     6     7    1
     6     6     5    1
     7     3     2    1
     8     3     4    2
     9     2     5    1
    10     2     1    1
