@<TRIPOS>MOLECULE
2ckm_AA7_A_1.pdb
 37 42 0 0 0
SMALL
GASTEIGER

@<TRIPOS>ATOM
      1  C1        -4.1200   59.7430   73.3690 C.2   1536  AA71536     0.1094
      2  C2        -2.7560   60.1980   73.3810 C.2   1536  AA71536     0.0350
      3  C3        -2.0160   60.1710   74.6800 C.2   1536  AA71536    -0.0227
      4  C4        -2.6690   59.3340   75.7820 C.3   1536  AA71536     0.0266
      5  C5        -4.1650   59.6980   75.8760 C.3   1536  AA71536     0.0121
      6  C6        -4.8510   59.2810   74.6030 C.3   1536  AA71536     0.0593
      7  N7        -4.8150   59.6920   72.1800 N.2   1536  AA71536    -0.4098
      8  C8        -4.3260   60.0380   70.9490 C.2   1536  AA71536     0.1178
      9  C9        -2.9400   60.5460   70.8440 C.3   1536  AA71536     0.1139
     10  C10       -2.1180   60.6640   72.1480 C.2   1536  AA71536     0.0659
     11  N11       -0.7920   61.2130   72.1250 N.2   1536  AA71536    -0.2739
     12  C14       -2.5320   60.8500   69.4760 C.2   1536  AA71536    -0.0135
     13  C15       -3.4010   60.6870   68.3810 C.2   1536  AA71536    -0.0037
     14  C16       -4.7570   60.2030   68.5380 C.2   1536  AA71536     0.0020
     15  C17       -5.2120   59.8800   69.8290 C.2   1536  AA71536     0.0282
     16  C19        1.5520   67.3390   66.8250 C.3   1536  AA71536     0.1118
     17  C20        0.7870   67.3480   68.1480 C.3   1536  AA71536     0.0233
     18  C21        1.3070   66.3420   69.1670 C.3   1536  AA71536     0.0018
     19  C22        0.1980   65.5890   69.9180 C.3   1536  AA71536     0.0001
     20  C23        0.6590   64.1730   70.2500 C.3   1536  AA71536     0.0021
     21  C24       -0.3570   63.4150   71.0780 C.3   1536  AA71536     0.0263
     22  C25        0.0100   61.9360   71.1170 C.3   1536  AA71536     0.1251
     23  C26        5.0670   68.8090   64.0340 C.2   1536  AA71536     0.0916
     24  C27        3.7450   68.4860   64.5130 C.3   1536  AA71536     0.0855
     25  C28        2.7670   67.8580   63.4940 C.3   1536  AA71536     0.0124
     26  C29        3.4100   67.2720   62.2050 C.3   1536  AA71536     0.0012
     27  C30        4.3340   68.3110   61.5880 C.3   1536  AA71536     0.0071
     28  C31        5.5110   68.5970   62.5720 C.3   1536  AA71536     0.0548
     29  N32        5.9820   69.3210   64.9250 N.2   1536  AA71536    -0.4101
     30  C33        5.7480   69.5490   66.2690 C.ar  1536  AA71536     0.1315
     31  C34        4.4520   69.2550   66.8080 C.ar  1536  AA71536     0.0407
     32  C35        3.4190   68.7400   65.9170 C.2   1536  AA71536     0.0514
     33  N36        2.2320   68.6350   66.5770 N.pl3 1536  AA71536    -0.2414
     34  C39        4.2800   69.5260   68.2230 C.ar  1536  AA71536     0.0035
     35  C40        5.3150   70.0550   68.9930 C.ar  1536  AA71536     0.0002
     36  C41        6.5820   70.3360   68.4020 C.ar  1536  AA71536     0.0026
     37  C42        6.7910   70.0790   67.0490 C.ar  1536  AA71536     0.0320
@<TRIPOS>BOND
     1    27    26    1
     2    27    28    1
     3    26    25    1
     4    28    23    1
     5    25    24    1
     6    23    24    1
     7    23    29    2
     8    24    32    1
     9    29    30    2
    10    32    33    1
    11    32    31    2
    12    30    31   ar
    13    30    37   ar
    14    33    16    1
    15    31    34   ar
    16    16    17    1
    17    37    36   ar
    18    17    18    1
    19    34    35   ar
    20    13    14    1
    21    13    12    2
    22    36    35   ar
    23    14    15    2
    24    18    19    1
    25    12     9    1
    26    15     8    1
    27    19    20    1
    28    20    21    1
    29     9     8    1
    30     9    10    1
    31     8     7    2
    32    21    22    1
    33    22    11    1
    34    11    10    2
    35    10     2    1
    36     7     1    2
    37     1     2    1
    38     1     6    1
    39     2     3    2
    40     6     5    1
    41     3     4    1
    42     4     5    1
