@<TRIPOS>MOLECULE
2ckp_ADP_A_1.pdb
 27 29 0 0 0
SMALL
GASTEIGER

@<TRIPOS>ATOM
      1  PB       -21.5660   22.3080  -16.9980 P.3   1458  ADP1458     0.5373
      2  O1B      -22.9100   22.9780  -16.8110 O.3   1458  ADP1458    -0.1143
      3  O2B      -20.5720   23.1830  -17.7390 O.2   1458  ADP1458    -0.2221
      4  O3B      -21.6960   20.8900  -17.5100 O.3   1458  ADP1458    -0.1143
      5  PA       -19.4550   21.7180  -15.1020 P.3   1458  ADP1458     0.2231
      6  O1A      -18.8510   22.9380  -14.4440 O.3   1458  ADP1458    -0.4370
      7  O2A      -18.7610   21.0970  -16.2860 O.2   1458  ADP1458    -0.5169
      8  O3A      -20.9780   22.1040  -15.4960 O.3   1458  ADP1458    -0.2261
      9  O5'      -19.6510   20.5480  -14.0040 O.3   1458  ADP1458    -0.3111
     10  C5'      -19.1250   20.5850  -12.6680 C.3   1458  ADP1458     0.1813
     11  C4'      -19.5140   19.3190  -11.8960 C.3   1458  ADP1458     0.1821
     12  O4'      -19.3470   18.1650  -12.7200 O.3   1458  ADP1458    -0.3135
     13  C3'      -18.6450   19.1120  -10.6610 C.3   1458  ADP1458     0.2184
     14  O3'      -19.4280   19.0460   -9.4520 O.3   1458  ADP1458    -0.2174
     15  C2'      -17.8840   17.8140  -10.8820 C.3   1458  ADP1458     0.2570
     16  O2'      -18.1320   16.8550   -9.8530 O.3   1458  ADP1458    -0.2130
     17  C1'      -18.3740   17.2520  -12.1990 C.3   1458  ADP1458     0.3186
     18  N9       -17.2180   17.0500  -13.1200 N.pl3 1458  ADP1458    -0.1439
     19  C8       -16.8020   17.8980  -14.0750 C.3   1458  ADP1458     0.3377
     20  N7       -15.7140   17.4060  -14.7290 N.2   1458  ADP1458    -0.2095
     21  C5       -15.4080   16.2060  -14.1930 C.2   1458  ADP1458     0.2526
     22  C6       -14.3790   15.1420  -14.4120 C.2   1458  ADP1458     0.4393
     23  N6       -13.4110   15.2180  -15.3600 N.pl3 1458  ADP1458     0.2180
     24  N1       -14.4330   14.0580  -13.6150 N.2   1458  ADP1458     0.0021
     25  C2       -15.3800   13.9210  -12.6640 C.3   1458  ADP1458     0.5254
     26  N3       -16.3370   14.8400  -12.4150 N.2   1458  ADP1458    -0.0055
     27  C4       -16.4080   15.9860  -13.1320 C.2   1458  ADP1458     0.3518
@<TRIPOS>BOND
     1     3     1    2
     2     4     1    1
     3     1     2    1
     4     1     8    1
     5     7     5    2
     6     8     5    1
     7    23    22    1
     8     5     6    1
     9     5     9    1
    10    20    21    2
    11    20    19    1
    12    22    21    1
    13    22    24    2
    14    21    27    1
    15    19    18    1
    16     9    10    1
    17    24    25    1
    18    27    18    1
    19    27    26    2
    20    18    17    1
    21    12    17    1
    22    12    11    1
    23    10    11    1
    24    25    26    1
    25    17    15    1
    26    11    13    1
    27    15    13    1
    28    15    16    1
    29    13    14    1
