@<TRIPOS>MOLECULE
2ckq_PC_A_1.pdb
 11 10 0 0 0
SMALL
GASTEIGER

@<TRIPOS>ATOM
      1  P1        19.3800  -26.1580  -18.5490 P.3   1458  PC1458      0.5325
      2  O1        19.2350  -25.5440  -19.9220 O.2   1458  PC1458     -0.2224
      3  O3        18.0510  -26.5060  -17.9450 O.3   1458  PC1458     -0.1145
      4  O4        20.2830  -25.3970  -17.6100 O.3   1458  PC1458     -0.1145
      5  O2        20.1950  -27.5420  -18.6900 O.3   1458  PC1458     -0.2725
      6  C1        19.7640  -28.6590  -19.4680 C.3   1458  PC1458      0.1317
      7  C2        18.8180  -29.5670  -18.6790 C.3   1458  PC1458     -0.0401
      8  N1        19.4250  -30.3990  -17.6170 N.4   1458  PC1458      0.3874
      9  C3        19.9260  -29.5990  -16.4890 C.3   1458  PC1458     -0.0959
     10  C4        18.3580  -31.2770  -17.1140 C.3   1458  PC1458     -0.0959
     11  C5        20.5020  -31.2350  -18.1520 C.3   1458  PC1458     -0.0959
@<TRIPOS>BOND
     1     2     1    2
     2     6     5    1
     3     6     7    1
     4     5     1    1
     5     7     8    1
     6     1     3    1
     7     1     4    1
     8    11     8    1
     9     8    10    1
    10     8     9    1
