@<TRIPOS>MOLECULE
2ckr_BGC_B_1.pdb
 12 12 0 0 0
SMALL
GASTEIGER

@<TRIPOS>ATOM
      1  C2        22.9500    1.5290   50.4260 C.3   1431  BGC1431     0.2434
      2  C3        23.8300    0.3420   50.0210 C.3   1431  BGC1431     0.2199
      3  C4        24.8740   -0.0040   51.0800 C.3   1431  BGC1431     0.2144
      4  C5        24.2610    0.0140   52.4800 C.3   1431  BGC1431     0.1836
      5  C6        25.3120   -0.2210   53.5570 C.3   1431  BGC1431     0.2142
      6  C1        22.5170    1.4680   51.8890 C.3   1431  BGC1431     0.3024
      7  O1        21.9080    2.6880   52.2400 O.3   1431  BGC1431    -0.1869
      8  O2        21.8000    1.5840   49.6050 O.3   1431  BGC1431    -0.2148
      9  O3        24.5050    0.6430   48.8200 O.3   1431  BGC1431    -0.2174
     10  O4        25.4020   -1.2950   50.8160 O.3   1431  BGC1431    -0.2176
     11  O5        23.6390    1.2590   52.7200 O.3   1431  BGC1431    -0.3236
     12  O6        25.7000   -1.5740   53.5150 O.3   1431  BGC1431    -0.2176
@<TRIPOS>BOND
     1     9     2    1
     2     8     1    1
     3     2     1    1
     4     2     3    1
     5     1     6    1
     6    10     3    1
     7     3     4    1
     8     6     7    1
     9     6    11    1
    10     4    11    1
    11     4     5    1
    12    12     5    1
