@<TRIPOS>MOLECULE
2cl0_GNP_X_1.pdb
 32 34 0 0 0
SMALL
GASTEIGER

@<TRIPOS>ATOM
      1  PG        37.9380   61.6130   46.5880 P.3   200  GNP200      0.4884
      2  O1G       37.6030   60.1400   46.7520 O.3   200  GNP200     -0.1240
      3  O2G       39.3370   61.9420   46.1310 O.2   200  GNP200     -0.2331
      4  O3G       37.5930   62.5160   47.7720 O.3   200  GNP200     -0.1240
      5  N3B       36.9330   62.2000   45.3700 N.3   200  GNP200     -0.0163
      6  PB        36.5430   61.3520   43.9830 P.3   200  GNP200      0.4669
      7  O1B       37.5950   61.5270   42.9660 O.2   200  GNP200     -0.2351
      8  O2B       36.2600   59.9190   44.2830 O.3   200  GNP200     -0.1253
      9  O3A       35.2330   62.0280   43.3510 O.3   200  GNP200     -0.2360
     10  PA        33.7050   61.5590   43.4640 P.3   200  GNP200      0.2220
     11  O1A       33.4920   60.3630   42.5620 O.2   200  GNP200     -0.5170
     12  O2A       33.3320   61.4920   44.9400 O.3   200  GNP200     -0.4370
     13  O5'       33.0110   62.8010   42.7020 O.3   200  GNP200     -0.3111
     14  C5'       33.0340   64.1450   43.2370 C.3   200  GNP200      0.1813
     15  C4'       31.8510   64.8810   42.6560 C.3   200  GNP200      0.1799
     16  O4'       32.0140   64.9930   41.2480 O.3   200  GNP200     -0.3326
     17  C3'       30.5880   64.0870   42.8660 C.3   200  GNP200      0.2158
     18  O3'       29.6290   65.1150   43.1670 O.3   200  GNP200     -0.2175
     19  C2'       30.1330   63.5390   41.5580 C.3   200  GNP200      0.2310
     20  O2'       28.7280   63.4110   41.3310 O.3   200  GNP200     -0.2158
     21  C1'       30.9300   64.3890   40.5730 C.3   200  GNP200      0.2293
     22  N9        31.3130   63.7110   39.3650 N.pl3 200  GNP200     -0.2354
     23  C8        32.0950   62.6390   39.2730 C.3   200  GNP200      0.2246
     24  N7        32.2050   62.2650   37.9830 N.2   200  GNP200     -0.2322
     25  C5        31.4660   63.1060   37.2290 C.2   200  GNP200      0.2182
     26  C6        31.1890   63.2550   35.8580 C.1   200  GNP200      0.2372
     27  O6        31.6850   62.4790   34.9820 O.2   200  GNP200     -0.2069
     28  N1        30.3830   64.2490   35.4490 N.2   200  GNP200     -0.2485
     29  C2        29.8340   65.1210   36.3320 C.1   200  GNP200      0.2531
     30  N2        29.0440   66.1020   35.8970 N.pl3 200  GNP200     -0.0226
     31  N3        30.0700   65.0460   37.6610 N.2   200  GNP200     -0.3074
     32  C4        30.9220   63.9930   38.1150 C.2   200  GNP200      0.2300
@<TRIPOS>BOND
     1    27    26    2
     2    28    26    2
     3    28    29    2
     4    26    25    1
     5    30    29    1
     6    29    31    2
     7    25    24    2
     8    25    32    1
     9    31    32    2
    10    24    23    1
    11    32    22    1
    12    23    22    1
    13    22    21    1
    14    21    16    1
    15    21    19    1
    16    16    15    1
    17    20    19    1
    18    19    17    1
    19    11    10    2
    20    15    17    1
    21    15    14    1
    22    13    14    1
    23    13    10    1
    24    17    18    1
    25     7     6    2
    26     9    10    1
    27     9     6    1
    28    10    12    1
    29     6     8    1
    30     6     5    1
    31     5     1    1
    32     3     1    2
    33     1     2    1
    34     1     4    1
