@<TRIPOS>MOLECULE
2cl0_XY2_X_1.pdb
 21 22 0 0 0
SMALL
GASTEIGER

@<TRIPOS>ATOM
      1  C1        28.7670   69.5850   53.5220 C.ar  332  XY2332      0.1653
      2  C2        27.7850   69.9820   52.6090 C.ar  332  XY2332      0.1667
      3  C3        28.0130   69.8620   51.2130 C.ar  332  XY2332      0.1580
      4  C19       29.7970   65.6180   46.2040 C.3   332  XY2332      0.0948
      5  C17       29.8350   67.1140   46.3010 C.2   332  XY2332      0.2262
      6  O18       30.8760   67.6670   45.9490 O.2   332  XY2332     -0.2749
      7  N15       28.7580   67.7520   46.7880 N.am  332  XY2332     -0.2760
      8  C16       27.5130   67.0890   47.1870 C.3   332  XY2332      0.1149
      9  C14       28.7300   69.2140   46.9220 C.3   332  XY2332      0.1148
     10  C13       28.4510   69.6250   48.3830 C.3   332  XY2332      0.1124
     11  N11       29.4680   69.2120   49.3780 N.pl3 332  XY2332     -0.3028
     12  C12       30.7650   68.6700   48.9690 C.3   332  XY2332      0.1123
     13  N5        26.5500   70.5050   52.8420 N.ar  332  XY2332     -0.0465
     14  O6        25.9980   70.7160   51.5460 O.2   332  XY2332     -0.2414
     15  N7        26.9190   70.3100   50.5400 N.ar  332  XY2332     -0.0469
     16  N8        28.5580   69.6950   54.9150 N.pl3 332  XY2332      0.0593
     17  O10       27.5400   70.2060   55.3780 O.2   332  XY2332     -0.1261
     18  O9        29.4050   69.2680   55.6900 O.2   332  XY2332     -0.1261
     19  C21       29.9690   69.0690   53.0410 C.ar  332  XY2332      0.0271
     20  C20       30.1920   68.9510   51.6750 C.ar  332  XY2332      0.0180
     21  C4        29.2250   69.3430   50.7330 C.ar  332  XY2332      0.0708
@<TRIPOS>BOND
     1     6     5    2
     2     4     5    1
     3     5     7   am
     4     7     9    1
     5     7     8    1
     6     9    10    1
     7    10    11    1
     8    12    11    1
     9    11    21    1
    10    15     3   ar
    11    15    14   ar
    12    21     3   ar
    13    21    20   ar
    14     3     2   ar
    15    14    13   ar
    16    20    19   ar
    17     2    13   ar
    18     2     1   ar
    19    19     1   ar
    20     1    16    1
    21    16    17    2
    22    16    18    2
