@<TRIPOS>MOLECULE
2cl2_MAN_A_1.pdb
 11 11 0 0 0
SMALL
GASTEIGER

@<TRIPOS>ATOM
      1  C1       -10.8470   44.6470   57.3090 C.3   1305  MAN1305     0.1777
      2  C2        -9.4930   43.9600   57.4380 C.3   1305  MAN1305     0.2141
      3  C3        -8.8910   44.2930   58.7920 C.3   1305  MAN1305     0.2173
      4  C4        -8.7870   45.8100   58.9400 C.3   1305  MAN1305     0.2142
      5  C5       -10.1450   46.4680   58.6750 C.3   1305  MAN1305     0.1810
      6  C6       -10.0210   47.9880   58.6410 C.3   1305  MAN1305     0.2141
      7  O2        -8.6070   44.4080   56.4390 O.3   1305  MAN1305    -0.2176
      8  O3        -7.6260   43.6840   58.8850 O.3   1305  MAN1305    -0.2175
      9  O4        -8.3380   46.1300   60.2380 O.3   1305  MAN1305    -0.2176
     10  O5       -10.6800   46.0440   57.4350 O.3   1305  MAN1305    -0.3481
     11  O6       -11.2880   48.5440   58.3550 O.3   1305  MAN1305    -0.2176
@<TRIPOS>BOND
     1     7     2    1
     2     1    10    1
     3     1     2    1
     4    10     5    1
     5     2     3    1
     6    11     6    1
     7     6     5    1
     8     5     4    1
     9     3     8    1
    10     3     4    1
    11     4     9    1
