@<TRIPOS>MOLECULE
2cl4_HEM_X_1.pdb
 43 50 0 0 0
SMALL
GASTEIGER

@<TRIPOS>ATOM
      1 FE         14.3070   54.2810   19.1370 Fe    251  HEM251      0.0000
      2  CHA       13.2650   57.3050   20.3830 C.2   251  HEM251      0.0000
      3  CHB       12.2660   54.7210   16.3810 C.2   251  HEM251      0.0000
      4  CHC       15.4790   51.3830   17.7590 C.2   251  HEM251      0.0000
      5  CHD       16.6700   54.0340   21.5970 C.2   251  HEM251      0.0000
      6  NA        13.0320   55.7220   18.5000 N.ar  251  HEM251      0.0000
      7  C1A       12.7310   56.8950   19.1840 C.ar  251  HEM251      0.0000
      8  C2A       11.7450   57.6220   18.4120 C.ar  251  HEM251      0.0000
      9  C3A       11.4650   56.9100   17.3090 C.ar  251  HEM251      0.0000
     10  C4A       12.2720   55.7080   17.3410 C.ar  251  HEM251      0.0000
     11  CMA       10.4740   57.2770   16.1770 C.3   251  HEM251      0.0000
     12  CAA       11.1440   58.9830   18.8210 C.3   251  HEM251      0.0000
     13  CBA       12.1090   60.1520   18.5800 C.3   251  HEM251      0.0000
     14  CGA       11.4390   61.4000   19.1060 C.2   251  HEM251      0.0000
     15  O1A       10.3250   61.7240   18.6120 O.co2 251  HEM251      0.0000
     16  O2A       11.9810   62.0760   20.0270 O.co2 251  HEM251      0.0000
     17  NB        13.9830   53.2830   17.3610 N.2   251  HEM251      0.0000
     18  C1B       13.0020   53.5640   16.4350 C.2   251  HEM251      0.0000
     19  C2B       12.8610   52.4270   15.5520 C.2   251  HEM251      0.0000
     20  C3B       13.7440   51.5010   15.9340 C.2   251  HEM251      0.0000
     21  C4B       14.4600   52.0160   17.0870 C.2   251  HEM251      0.0000
     22  CMB       11.8660   52.3410   14.3740 C.3   251  HEM251      0.0000
     23  CAB       13.9660   50.1140   15.2990 C.2   251  HEM251      0.0000
     24  CBB       13.9830   49.0280   16.0920 C.2   251  HEM251      0.0000
     25  NC        15.7710   52.9430   19.6210 N.ar  251  HEM251      0.0000
     26  C1C       16.1650   51.8700   18.8460 C.ar  251  HEM251      0.0000
     27  C2C       17.3910   51.3200   19.3940 C.ar  251  HEM251      0.0000
     28  C3C       17.7200   52.0520   20.4700 C.ar  251  HEM251      0.0000
     29  C4C       16.7010   53.0810   20.6180 C.ar  251  HEM251      0.0000
     30  CMC       18.1210   50.1020   18.7720 C.3   251  HEM251      0.0000
     31  CAC       18.9380   51.9130   21.4160 C.2   251  HEM251      0.0000
     32  CBC       19.3040   50.7040   21.8780 C.2   251  HEM251      0.0000
     33  ND        14.9210   55.5170   20.6950 N.2   251  HEM251      0.0000
     34  C1D       15.8020   55.0900   21.6840 C.2   251  HEM251      0.0000
     35  C2D       15.6730   55.9440   22.8410 C.2   251  HEM251      0.0000
     36  C3D       14.6160   56.9720   22.4690 C.2   251  HEM251      0.0000
     37  C4D       14.2040   56.6290   21.1210 C.2   251  HEM251      0.0000
     38  CMD       16.4410   55.8450   24.1770 C.3   251  HEM251      0.0000
     39  CAD       14.0910   58.1060   23.3630 C.3   251  HEM251      0.0000
     40  CBD       14.7880   59.4200   23.0360 C.3   251  HEM251      0.0000
     41  CGD       14.3070   60.5050   23.9860 C.2   251  HEM251      0.0000
     42  O1D       14.5160   61.6880   23.6440 O.co2 251  HEM251      0.0000
     43  O2D       13.7350   60.2070   25.0750 O.co2 251  HEM251      0.0000
@<TRIPOS>BOND
     1    22    19    1
     2    23    20    1
     3    23    24    2
     4    19    20    2
     5    19    18    1
     6    20    21    1
     7    11     9    1
     8     3    18    1
     9     3    10    2
    10    18    17    2
    11    21    17    1
    12    21     4    2
    13     9    10   ar
    14     9     8   ar
    15    10     6   ar
    16    17     1    1
    17     4    26    1
    18     8    12    1
    19     8     7   ar
    20     6     1    1
    21     6     7   ar
    22    13    12    1
    23    13    14    1
    24    15    14   ar
    25    30    27    1
    26    26    27   ar
    27    26    25   ar
    28    14    16   ar
    29     1    25    1
    30     1    33    1
    31     7     2    2
    32    27    28   ar
    33    25    29   ar
    34     2    37    1
    35    28    29   ar
    36    28    31    1
    37    29     5    1
    38    33    37    2
    39    33    34    1
    40    37    36    1
    41    31    32    2
    42     5    34    2
    43    34    35    1
    44    36    35    2
    45    36    39    1
    46    35    38    1
    47    40    39    1
    48    40    41    1
    49    42    41   ar
    50    41    43   ar
