@<TRIPOS>MOLECULE
2cl5_BIE_A_1.pdb
 19 20 0 0 0
SMALL
GASTEIGER

@<TRIPOS>ATOM
      1  O5         5.7970   -0.3680   56.1580 O.2   1218  BIE1218    -0.2865
      2  C7         5.6390    0.7670   56.5850 C.2   1218  BIE1218     0.1973
      3  C4         6.1120    1.0360   57.9770 C.ar  1218  BIE1218     0.0648
      4  C5         5.1710    1.5400   58.9170 C.ar  1218  BIE1218     0.0083
      5  C6         5.5160    1.6910   60.2720 C.ar  1218  BIE1218     0.0456
      6  C3         7.3760    0.6200   58.4100 C.ar  1218  BIE1218     0.1878
      7  N1         8.3750    0.2040   57.4220 N.pl3 1218  BIE1218     0.0611
      8  O4         8.2300    0.8060   56.3530 O.2   1218  BIE1218    -0.1260
      9  O3         9.3160   -0.4280   57.6770 O.2   1218  BIE1218    -0.1260
     10  C2         7.7530    0.7370   59.7730 C.ar  1218  BIE1218     0.2565
     11  O2         8.9410    0.4150   60.2330 O.3   1218  BIE1218    -0.2813
     12  C1         6.8760    1.2950   60.7230 C.ar  1218  BIE1218     0.2360
     13  O1         7.1690    1.4460   62.0170 O.3   1218  BIE1218    -0.2831
     14  C8         4.7780    1.6900   55.8610 C.ar  1218  BIE1218     0.0390
     15  C9         3.7850    1.1930   55.0300 C.ar  1218  BIE1218     0.0032
     16  C13        4.9470    3.0840   56.0610 C.ar  1218  BIE1218     0.0032
     17  C12        4.0870    3.9430   55.3970 C.ar  1218  BIE1218     0.0001
     18  C11        3.1050    3.4430   54.5340 C.ar  1218  BIE1218     0.0000
     19  C10        2.9600    2.0610   54.3750 C.ar  1218  BIE1218     0.0001
@<TRIPOS>BOND
     1    19    18   ar
     2    19    15   ar
     3    18    17   ar
     4    15    14   ar
     5    17    16   ar
     6    14    16   ar
     7    14     2    1
     8     1     2    2
     9     8     7    2
    10     2     3    1
    11     7     9    2
    12     7     6    1
    13     3     6   ar
    14     3     4   ar
    15     6    10   ar
    16     4     5   ar
    17    10    11    1
    18    10    12   ar
    19     5    12   ar
    20    12    13    1
