@<TRIPOS>MOLECULE
2cl5_SAM_A_1.pdb
 27 29 0 0 0
SMALL
GASTEIGER

@<TRIPOS>ATOM
      1  N         14.4780    2.2670   63.0250 N.3   1217  SAM1217    -0.1208
      2  CA        14.1250    3.6120   62.5280 C.3   1217  SAM1217     0.1952
      3  C         13.5790    4.4500   63.6660 C.2   1217  SAM1217     0.3819
      4  O         12.8600    3.8940   64.5090 O.co2 1217  SAM1217    -0.2441
      5  OXT       13.9290    5.6310   63.7500 O.co2 1217  SAM1217    -0.2441
      6  CB        13.1360    3.5320   61.4060 C.3   1217  SAM1217     0.0414
      7  CG        13.5730    2.6700   60.2450 C.3   1217  SAM1217     0.0503
      8  SD        12.4770    2.8670   58.8070 S.3   1217  SAM1217    -0.1761
      9  CE        10.9970    1.9830   59.4490 C.3   1217  SAM1217     0.0590
     10  C5'       13.0620    1.4880   57.7110 C.3   1217  SAM1217     0.0806
     11  C4'       14.4630    1.6680   57.0850 C.3   1217  SAM1217     0.1622
     12  O4'       15.0190    0.4640   56.6350 O.3   1217  SAM1217    -0.3153
     13  C3'       14.4900    2.5840   55.8700 C.3   1217  SAM1217     0.2168
     14  O3'       15.3230    3.6810   56.1660 O.3   1217  SAM1217    -0.2175
     15  C2'       14.9890    1.7110   54.7140 C.3   1217  SAM1217     0.2569
     16  O2'       15.7130    2.4150   53.7110 O.3   1217  SAM1217    -0.2130
     17  C1'       15.8090    0.6950   55.4520 C.3   1217  SAM1217     0.3185
     18  N9        15.9430   -0.6180   54.8090 N.pl3 1217  SAM1217    -0.1439
     19  C8        14.9560   -1.4040   54.2200 C.3   1217  SAM1217     0.3377
     20  N7        15.4740   -2.5800   53.8930 N.2   1217  SAM1217    -0.2095
     21  C5        16.7940   -2.5870   54.2510 C.2   1217  SAM1217     0.2526
     22  C6        17.8060   -3.5420   54.1230 C.2   1217  SAM1217     0.4393
     23  N6        17.5870   -4.7250   53.5530 N.pl3 1217  SAM1217     0.2180
     24  N1        19.0460   -3.1900   54.6180 N.2   1217  SAM1217     0.0021
     25  C2        19.2890   -1.9790   55.2010 C.3   1217  SAM1217     0.5254
     26  N3        18.3010   -1.0330   55.2870 N.2   1217  SAM1217    -0.0055
     27  C4        17.0840   -1.3730   54.8180 C.2   1217  SAM1217     0.3518
@<TRIPOS>BOND
     1    23    22    1
     2    16    15    1
     3    20    19    1
     4    20    21    2
     5    22    21    1
     6    22    24    2
     7    19    18    1
     8    21    27    1
     9    24    25    1
    10    15    17    1
    11    15    13    1
    12    18    27    1
    13    18    17    1
    14    27    26    2
    15    25    26    1
    16    17    12    1
    17    13    14    1
    18    13    11    1
    19    12    11    1
    20    11    10    1
    21    10     8    1
    22     8     9    1
    23     8     7    1
    24     7     6    1
    25     6     2    1
    26     2     1    1
    27     2     3    1
    28     3     5   ar
    29     3     4   ar
