@<TRIPOS>MOLECULE
2cl6_CAG_X_1.pdb
 43 46 0 0 0
SMALL
GASTEIGER

@<TRIPOS>ATOM
      1  PG        19.8310   66.1450   -7.4540 P.3   167  CAG167      0.2191
      2  O1G       21.2100   65.8850   -8.0020 O.2   167  CAG167     -0.5170
      3  O2G       18.6770   65.2620   -7.8470 O.3   167  CAG167     -0.4371
      4  O3G       19.3270   67.6260   -7.7530 O.3   167  CAG167     -0.3118
      5  PB        20.6050   65.1870   -4.8450 P.3   167  CAG167      0.2237
      6  O1B       19.5060   64.2580   -4.4520 O.3   167  CAG167     -0.4369
      7  O2B       21.8150   64.5590   -5.4300 O.2   167  CAG167     -0.5168
      8  O3B       19.9230   66.2280   -5.8560 O.3   167  CAG167     -0.2701
      9  PA        22.4520   66.4220   -2.9660 P.3   167  CAG167      0.2189
     10  O1A       22.9950   65.1550   -2.3840 O.3   167  CAG167     -0.4371
     11  O2A       23.2810   67.2070   -3.9360 O.2   167  CAG167     -0.5170
     12  O3A       20.9950   66.1740   -3.6470 O.3   167  CAG167     -0.2701
     13  O5'       21.9620   67.3090   -1.7180 O.3   167  CAG167     -0.3112
     14  C5B       21.1780   68.5020   -1.8720 C.3   167  CAG167      0.1813
     15  C4B       21.6540   69.5790   -0.9190 C.3   167  CAG167      0.1799
     16  O4'       21.4190   69.1320    0.4150 O.3   167  CAG167     -0.3326
     17  C3B       23.1350   69.8950   -1.0290 C.3   167  CAG167      0.2158
     18  O3'       23.3440   71.2950   -0.7560 O.3   167  CAG167     -0.2175
     19  C2B       23.7410   68.9960    0.0330 C.3   167  CAG167      0.2310
     20  O2'       24.9740   69.4180    0.5840 O.3   167  CAG167     -0.2158
     21  C1B       22.6580   68.9860    1.1010 C.3   167  CAG167      0.2293
     22  N9        22.5610   67.7190    1.8640 N.pl3 167  CAG167     -0.2354
     23  C8        22.5930   66.4450    1.3630 C.3   167  CAG167      0.2246
     24  N7        22.4520   65.5180    2.3360 N.2   167  CAG167     -0.2322
     25  C5        22.3210   66.2330    3.4660 C.2   167  CAG167      0.2182
     26  C6        22.1470   65.8590    4.8560 C.1   167  CAG167      0.2372
     27  O6        22.0630   64.6660    5.2170 O.2   167  CAG167     -0.2069
     28  N1        22.0320   66.8710    5.7350 N.2   167  CAG167     -0.2485
     29  C2        22.1040   68.1720    5.4110 C.1   167  CAG167      0.2531
     30  N2        21.9880   69.0700    6.4020 N.pl3 167  CAG167     -0.0226
     31  N3        22.2580   68.6010    4.1370 N.2   167  CAG167     -0.3074
     32  C4        22.3840   67.6580    3.1680 C.2   167  CAG167      0.2300
     33  C'        20.1480   68.7770   -7.6420 C.3   167  CAG167      0.1457
     34  CM'       20.0630   69.5740   -8.9400 C.3   167  CAG167      0.0375
     35  C1'       19.6610   69.5790   -6.4950 C.ar  167  CAG167      0.0274
     36  C2'       20.5700   70.1940   -5.4920 C.ar  167  CAG167      0.1412
     37  N2'       21.9750   70.1000   -5.5580 N.pl3 167  CAG167      0.0574
     38  O'L       22.5380   69.7050   -6.5690 O.2   167  CAG167     -0.1261
     39  O'M       22.6700   70.4780   -4.6210 O.2   167  CAG167     -0.1261
     40  C3'       19.9840   70.9370   -4.4680 C.ar  167  CAG167      0.0238
     41  C4'       18.6030   71.0860   -4.3780 C.ar  167  CAG167      0.0017
     42  C5'       17.7560   70.4930   -5.3080 C.ar  167  CAG167     -0.0001
     43  C6'       18.2830   69.7680   -6.3640 C.ar  167  CAG167     -0.0003
@<TRIPOS>BOND
     1    34    33    1
     2     2     1    2
     3     3     1    1
     4     4    33    1
     5     4     1    1
     6    33    35    1
     7     1     8    1
     8    38    37    2
     9    35    43   ar
    10    35    36   ar
    11    43    42   ar
    12     8     5    1
    13    37    36    1
    14    37    39    2
    15    36    40   ar
    16     7     5    2
    17    42    41   ar
    18     5     6    1
    19     5    12    1
    20    40    41   ar
    21    11     9    2
    22    12     9    1
    23     9    10    1
    24     9    13    1
    25    14    13    1
    26    14    15    1
    27    17    15    1
    28    17    18    1
    29    17    19    1
    30    15    16    1
    31    19    20    1
    32    19    21    1
    33    16    21    1
    34    21    22    1
    35    23    22    1
    36    23    24    1
    37    22    32    1
    38    24    25    2
    39    32    25    1
    40    32    31    2
    41    25    26    1
    42    31    29    2
    43    26    27    2
    44    26    28    2
    45    29    28    2
    46    29    30    1
