@<TRIPOS>MOLECULE
2cl7_GTP_X_1.pdb
 32 34 0 0 0
SMALL
GASTEIGER

@<TRIPOS>ATOM
      1  PG        20.0740   66.1030   -7.5770 P.3   1167  GTP1167     0.5373
      2  O1G       21.3810   65.5390   -8.0970 O.3   1167  GTP1167    -0.1143
      3  O2G       18.9660   65.1240   -7.9070 O.3   1167  GTP1167    -0.1143
      4  O3G       19.8060   67.4140   -8.3060 O.2   1167  GTP1167    -0.2221
      5  O3B       20.1730   66.3260   -5.9680 O.3   1167  GTP1167    -0.2258
      6  PB        20.7720   65.3350   -4.8900 P.3   1167  GTP1167     0.2277
      7  O1B       22.0020   64.6800   -5.4550 O.2   1167  GTP1167    -0.5168
      8  O2B       19.6600   64.4030   -4.4720 O.3   1167  GTP1167    -0.4368
      9  O3A       21.1450   66.3060   -3.6770 O.3   1167  GTP1167    -0.2700
     10  PA        22.6080   66.8260   -3.2440 P.3   1167  GTP1167     0.2189
     11  O1A       23.2060   67.6970   -4.2900 O.2   1167  GTP1167    -0.5170
     12  O2A       23.4650   65.6970   -2.7440 O.3   1167  GTP1167    -0.4371
     13  O5'       22.2670   67.7060   -1.9560 O.3   1167  GTP1167    -0.3112
     14  C5'       21.3640   68.7850   -2.0550 C.3   1167  GTP1167     0.1813
     15  C4'       21.6100   69.8150   -0.9710 C.3   1167  GTP1167     0.1799
     16  O4'       21.3060   69.2440    0.2860 O.3   1167  GTP1167    -0.3326
     17  C3'       23.0640   70.2570   -0.9120 C.3   1167  GTP1167     0.2158
     18  O3'       23.0930   71.6120   -0.5070 O.3   1167  GTP1167    -0.2175
     19  C2'       23.6480   69.3310    0.1400 C.3   1167  GTP1167     0.2310
     20  O2'       24.8400   69.7600    0.7900 O.3   1167  GTP1167    -0.2158
     21  C1'       22.4640   69.2180    1.0910 C.3   1167  GTP1167     0.2293
     22  N9        22.3950   67.9780    1.8710 N.pl3 1167  GTP1167    -0.2354
     23  C8        22.4130   66.6800    1.3910 C.3   1167  GTP1167     0.2246
     24  N7        22.3190   65.8110    2.3960 N.2   1167  GTP1167    -0.2322
     25  C5        22.2380   66.5560    3.5370 C.2   1167  GTP1167     0.2182
     26  C6        22.1310   66.2150    4.8860 C.1   1167  GTP1167     0.2372
     27  O6        22.0630   65.0450    5.3400 O.2   1167  GTP1167    -0.2069
     28  N1        22.0590   67.2500    5.7950 N.2   1167  GTP1167    -0.2485
     29  C2        22.1240   68.5720    5.4300 C.1   1167  GTP1167     0.2531
     30  N2        22.0600   69.5170    6.3540 N.pl3 1167  GTP1167    -0.0226
     31  N3        22.2270   68.9220    4.1280 N.2   1167  GTP1167    -0.3074
     32  C4        22.2870   67.9240    3.2120 C.2   1167  GTP1167     0.2300
@<TRIPOS>BOND
     1     4     1    2
     2     2     1    1
     3     3     1    1
     4     1     5    1
     5     5     6    1
     6     7     6    2
     7     6     8    1
     8     6     9    1
     9    11    10    2
    10     9    10    1
    11    10    12    1
    12    10    13    1
    13    14    13    1
    14    14    15    1
    15    15    17    1
    16    15    16    1
    17    17    18    1
    18    17    19    1
    19    19    20    1
    20    19    21    1
    21    16    21    1
    22    21    22    1
    23    23    22    1
    24    23    24    1
    25    22    32    1
    26    24    25    2
    27    32    25    1
    28    32    31    2
    29    25    26    1
    30    31    29    2
    31    26    27    2
    32    26    28    2
    33    29    28    2
    34    29    30    1
