@<TRIPOS>MOLECULE
2cl8_BGC_A_1.pdb
 11 11 0 0 0
SMALL
GASTEIGER

@<TRIPOS>ATOM
      1  C2       -40.0810   -0.9050   -1.8390 C.3   1248  BGC1248     0.2141
      2  C3       -41.4240   -0.7270   -2.5410 C.3   1248  BGC1248     0.2173
      3  C4       -41.2300   -0.3840   -4.0160 C.3   1248  BGC1248     0.2142
      4  C5       -40.2360   -1.3340   -4.6780 C.3   1248  BGC1248     0.1810
      5  C6       -39.9750   -0.9340   -6.1260 C.3   1248  BGC1248     0.2141
      6  C1       -39.1770   -1.8420   -2.6300 C.3   1248  BGC1248     0.1777
      7  O2       -40.2930   -1.4390   -0.5270 O.3   1248  BGC1248    -0.2176
      8  O3       -42.1620    0.3100   -1.8970 O.3   1248  BGC1248    -0.2175
      9  O4       -42.4880   -0.4700   -4.6960 O.3   1248  BGC1248    -0.2176
     10  O5       -39.0080   -1.3310   -3.9510 O.3   1248  BGC1248    -0.3481
     11  O6       -39.4000    0.3770   -6.1650 O.3   1248  BGC1248    -0.2176
@<TRIPOS>BOND
     1    11     5    1
     2     5     4    1
     3     9     3    1
     4     4     3    1
     5     4    10    1
     6     3     2    1
     7    10     6    1
     8     6     1    1
     9     2     8    1
    10     2     1    1
    11     1     7    1
