@<TRIPOS>MOLECULE
2clc_GTP_X_1.pdb
 32 34 0 0 0
SMALL
GASTEIGER

@<TRIPOS>ATOM
      1  PG        20.1230   65.9920   -7.6250 P.3   1167  GTP1167     0.5373
      2  O1G       21.3200   65.2210   -8.0940 O.3   1167  GTP1167    -0.1143
      3  O2G       18.9130   65.1390   -7.9260 O.3   1167  GTP1167    -0.1143
      4  O3G       19.9810   67.3150   -8.3680 O.2   1167  GTP1167    -0.2221
      5  O3B       20.2400   66.3030   -6.0450 O.3   1167  GTP1167    -0.2258
      6  PB        20.8040   65.2990   -4.9540 P.3   1167  GTP1167     0.2277
      7  O1B       22.0290   64.5550   -5.4280 O.2   1167  GTP1167    -0.5168
      8  O2B       19.6510   64.4290   -4.5190 O.3   1167  GTP1167    -0.4368
      9  O3A       21.1770   66.2850   -3.7470 O.3   1167  GTP1167    -0.2700
     10  PA        22.6590   66.7880   -3.3720 P.3   1167  GTP1167     0.2189
     11  O1A       23.2640   67.6270   -4.4350 O.2   1167  GTP1167    -0.5170
     12  O2A       23.4750   65.6350   -2.8390 O.3   1167  GTP1167    -0.4371
     13  O5'       22.3230   67.6850   -2.0710 O.3   1167  GTP1167    -0.3112
     14  C5'       21.3940   68.7400   -2.1760 C.3   1167  GTP1167     0.1813
     15  C4'       21.6440   69.8380   -1.1540 C.3   1167  GTP1167     0.1799
     16  O4'       21.3030   69.3390    0.1260 O.3   1167  GTP1167    -0.3326
     17  C3'       23.1020   70.2640   -1.0620 C.3   1167  GTP1167     0.2158
     18  O3'       23.1490   71.6130   -0.6740 O.3   1167  GTP1167    -0.2175
     19  C2'       23.6510   69.3860    0.0450 C.3   1167  GTP1167     0.2310
     20  O2'       24.7850   69.8540    0.7630 O.3   1167  GTP1167    -0.2158
     21  C1'       22.4450   69.3330    0.9510 C.3   1167  GTP1167     0.2293
     22  N9        22.3810   68.1050    1.7320 N.pl3 1167  GTP1167    -0.2354
     23  C8        22.3970   66.8190    1.2260 C.3   1167  GTP1167     0.2246
     24  N7        22.3250   65.9350    2.2390 N.2   1167  GTP1167    -0.2322
     25  C5        22.2390   66.6720    3.3930 C.2   1167  GTP1167     0.2182
     26  C6        22.1360   66.3110    4.7390 C.1   1167  GTP1167     0.2372
     27  O6        22.0750   65.1340    5.1350 O.2   1167  GTP1167    -0.2069
     28  N1        22.0760   67.3340    5.6600 N.2   1167  GTP1167    -0.2485
     29  C2        22.1240   68.6740    5.3110 C.1   1167  GTP1167     0.2531
     30  N2        22.0680   69.6020    6.2470 N.pl3 1167  GTP1167    -0.0226
     31  N3        22.2330   69.0430    4.0010 N.2   1167  GTP1167    -0.3074
     32  C4        22.2760   68.0460    3.0830 C.2   1167  GTP1167     0.2300
@<TRIPOS>BOND
     1     4     1    2
     2     2     1    1
     3     3     1    1
     4     1     5    1
     5     5     6    1
     6     7     6    2
     7     6     8    1
     8     6     9    1
     9    11    10    2
    10     9    10    1
    11    10    12    1
    12    10    13    1
    13    14    13    1
    14    14    15    1
    15    15    17    1
    16    15    16    1
    17    17    18    1
    18    17    19    1
    19    19    20    1
    20    19    21    1
    21    16    21    1
    22    21    22    1
    23    23    22    1
    24    23    24    1
    25    22    32    1
    26    24    25    2
    27    32    25    1
    28    32    31    2
    29    25    26    1
    30    31    29    2
    31    26    27    2
    32    26    28    2
    33    29    28    2
    34    29    30    1
