@<TRIPOS>MOLECULE
2cld_GDP_X_1.pdb
 28 30 0 0 0
SMALL
GASTEIGER

@<TRIPOS>ATOM
      1  PB        21.0760   65.4400   -4.7290 P.3   180  GDP180      0.5373
      2  O1B       19.9840   64.4710   -4.2610 O.3   180  GDP180     -0.1143
      3  O2B       22.2590   64.7310   -5.2770 O.3   180  GDP180     -0.1143
      4  O3B       20.4860   66.4080   -5.7670 O.2   180  GDP180     -0.2221
      5  O3A       21.4540   66.3000   -3.4280 O.3   180  GDP180     -0.2261
      6  PA        22.9180   66.7970   -3.0220 P.3   180  GDP180      0.2231
      7  O1A       23.6030   67.5320   -4.1610 O.2   180  GDP180     -0.5169
      8  O2A       23.7130   65.7100   -2.4060 O.3   180  GDP180     -0.4370
      9  O5'       22.5140   67.7910   -1.8660 O.3   180  GDP180     -0.3111
     10  C5'       21.5720   68.7770   -2.3310 C.3   180  GDP180      0.1813
     11  C4'       21.6950   69.9070   -1.3620 C.3   180  GDP180      0.1799
     12  O4'       21.3710   69.3420   -0.0980 O.3   180  GDP180     -0.3326
     13  C3'       23.1190   70.4060   -1.2310 C.3   180  GDP180      0.2158
     14  O3'       23.0570   71.7380   -0.6680 O.3   180  GDP180     -0.2175
     15  C2'       23.7380   69.4460   -0.2400 C.3   180  GDP180      0.2310
     16  O2'       24.8900   69.9510    0.4350 O.3   180  GDP180     -0.2158
     17  C1'       22.5610   69.3090    0.6930 C.3   180  GDP180      0.2293
     18  N9        22.5690   68.0710    1.4840 N.pl3 180  GDP180     -0.2354
     19  C8        22.6390   66.7920    1.0190 C.3   180  GDP180      0.2246
     20  N7        22.5840   65.9340    2.0610 N.2   180  GDP180     -0.2322
     21  C5        22.4560   66.6630    3.1790 C.2   180  GDP180      0.2182
     22  C6        22.3490   66.3680    4.5990 C.1   180  GDP180      0.2372
     23  O6        22.3280   65.1910    4.9950 O.2   180  GDP180     -0.2069
     24  N1        22.2410   67.4060    5.4550 N.2   180  GDP180     -0.2485
     25  C2        22.2410   68.6970    5.0490 C.1   180  GDP180      0.2531
     26  N2        22.1360   69.6610    5.9820 N.pl3 180  GDP180     -0.0226
     27  N3        22.3290   69.0580    3.7540 N.2   180  GDP180     -0.3074
     28  C4        22.4570   68.0790    2.8010 C.2   180  GDP180      0.2300
@<TRIPOS>BOND
     1     4     1    2
     2     3     1    1
     3     1     2    1
     4     1     5    1
     5     7     6    2
     6     5     6    1
     7     6     8    1
     8     6     9    1
     9    10     9    1
    10    10    11    1
    11    11    13    1
    12    11    12    1
    13    13    14    1
    14    13    15    1
    15    15    16    1
    16    15    17    1
    17    12    17    1
    18    17    18    1
    19    19    18    1
    20    19    20    1
    21    18    28    1
    22    20    21    2
    23    28    21    1
    24    28    27    2
    25    21    22    1
    26    27    25    2
    27    22    23    2
    28    22    24    2
    29    25    24    2
    30    25    26    1
