@<TRIPOS>MOLECULE
2cle_F6F_A_1.pdb
 21 21 0 0 0
SMALL
GASTEIGER

@<TRIPOS>ATOM
      1  C1        51.7200   23.8780   14.4210 C.ar  1268  F6F1268     0.1468
      2  C2        50.4650   23.6580   15.0880 C.ar  1268  F6F1268     0.0370
      3  C3        49.4940   24.7100   15.1640 C.ar  1268  F6F1268     0.0027
      4  C4        49.7460   26.0110   14.5690 C.ar  1268  F6F1268     0.0248
      5  C5        51.0070   26.2460   13.8880 C.ar  1268  F6F1268     0.0027
      6  C6        51.9940   25.1730   13.8140 C.ar  1268  F6F1268     0.0370
      7  O7        52.7120   22.9250   14.3270 O.3   1268  F6F1268    -0.4045
      8  C8        52.5400   21.9660   13.2950 C.3   1268  F6F1268     0.5753
      9  F9        51.4150   21.2770   13.4470 F     1268  F6F1268    -0.1328
     10  F10       53.5420   21.1010   13.3040 F     1268  F6F1268    -0.1328
     11  F11       52.5060   22.5380   12.1010 F     1268  F6F1268    -0.1328
     12  C12       48.6630   27.0920   14.7260 C.3   1268  F6F1268     0.2487
     13  N13       48.4310   27.5240   13.4460 N.3   1268  F6F1268    -0.1827
     14  O14       47.6640   26.7460   15.3430 O.3   1268  F6F1268    -0.1986
     15  C15       47.2740   28.4610   13.3530 C.3   1268  F6F1268     0.1242
     16  C16       46.9120   28.9840   11.9940 C.3   1268  F6F1268     0.1726
     17  O17       47.6020   28.4260   10.9790 O.3   1268  F6F1268    -0.2687
     18  P18       47.9130   29.5930    9.8780 P.3   1268  F6F1268     0.5326
     19  O19       48.2130   28.9380    8.5470 O.2   1268  F6F1268    -0.2224
     20  O20       49.1300   30.2750   10.4310 O.3   1268  F6F1268    -0.1145
     21  O21       46.6000   30.3370    9.7450 O.3   1268  F6F1268    -0.1145
@<TRIPOS>BOND
     1    19    18    2
     2    21    18    1
     3    18    20    1
     4    18    17    1
     5    17    16    1
     6    16    15    1
     7    11     8    1
     8     8    10    1
     9     8     9    1
    10     8     7    1
    11    15    13    1
    12    13    12    1
    13     6     5   ar
    14     6     1   ar
    15     5     4   ar
    16     7     1    1
    17     1     2   ar
    18     4    12    1
    19     4     3   ar
    20    12    14    1
    21     2     3   ar
