@<TRIPOS>MOLECULE
2cle_PLP_B_1.pdb
 15 15 0 0 0
SMALL
GASTEIGER

@<TRIPOS>ATOM
      1  N1        84.4010   13.9310   11.9630 N.ar  1396  PLP1396    -0.2452
      2  C2        84.3210   14.2670   10.6430 C.ar  1396  PLP1396     0.0978
      3  C2A       85.5540   14.1960    9.7800 C.3   1396  PLP1396     0.0555
      4  C3        83.1340   14.7170   10.1180 C.ar  1396  PLP1396     0.2049
      5  O3        83.0600   15.0640    8.7870 O.3   1396  PLP1396    -0.2857
      6  C4        82.0240   14.8290   10.9250 C.ar  1396  PLP1396     0.0182
      7  C4A       80.6470   15.2030   10.3020 C.3   1396  PLP1396     0.0342
      8  C5        82.1240   14.5110   12.2670 C.ar  1396  PLP1396     0.0261
      9  C6        83.3060   14.0510   12.7700 C.ar  1396  PLP1396     0.0965
     10  C5A       80.9410   14.7700   13.2480 C.3   1396  PLP1396     0.1815
     11  O4P       79.7760   13.9730   13.1110 O.3   1396  PLP1396    -0.2653
     12  P         79.4560   12.6840   13.9010 P.3   1396  PLP1396     0.5329
     13  O1P       78.0850   12.4250   13.4190 O.2   1396  PLP1396    -0.2224
     14  O2P       79.5030   13.0400   15.3340 O.3   1396  PLP1396    -0.1145
     15  O3P       80.4270   11.6650   13.4830 O.3   1396  PLP1396    -0.1145
@<TRIPOS>BOND
     1     5     4    1
     2     3     2    1
     3     4     2   ar
     4     4     6   ar
     5     7     6    1
     6     2     1   ar
     7     6     8   ar
     8     1     9   ar
     9     8     9   ar
    10     8    10    1
    11    11    10    1
    12    11    12    1
    13    13    12    2
    14    15    12    1
    15    12    14    1
