@<TRIPOS>MOLECULE
2clf_F6F_A_1.pdb
 21 21 0 0 0
SMALL
GASTEIGER

@<TRIPOS>ATOM
      1  C1        51.3500   23.4790   14.9440 C.ar  1269  F6F1269     0.1468
      2  C2        50.0870   23.5570   15.6120 C.ar  1269  F6F1269     0.0370
      3  C3        49.2840   24.7300   15.5160 C.ar  1269  F6F1269     0.0027
      4  C4        49.7070   25.8750   14.7460 C.ar  1269  F6F1269     0.0248
      5  C5        50.9820   25.8270   14.0430 C.ar  1269  F6F1269     0.0027
      6  C6        51.8100   24.6160   14.1450 C.ar  1269  F6F1269     0.0370
      7  O7        52.1640   22.3670   15.0480 O.3   1269  F6F1269    -0.4045
      8  C8        51.9490   21.3240   14.1170 C.3   1269  F6F1269     0.5753
      9  F9        50.6980   20.8780   14.1730 F     1269  F6F1269    -0.1328
     10  F10       52.7490   20.3000   14.3780 F     1269  F6F1269    -0.1328
     11  F11       52.1630   21.7260   12.8760 F     1269  F6F1269    -0.1328
     12  C12       48.7640   27.0930   14.7660 C.3   1269  F6F1269     0.2487
     13  N13       48.5000   27.3830   13.4590 N.3   1269  F6F1269    -0.1827
     14  O14       47.7570   26.9380   15.4450 O.3   1269  F6F1269    -0.1986
     15  C15       47.4010   28.3850   13.3530 C.3   1269  F6F1269     0.1242
     16  C16       46.9470   28.7850   11.9860 C.3   1269  F6F1269     0.1726
     17  O17       47.7180   28.3070   11.0060 O.3   1269  F6F1269    -0.2687
     18  P18       47.9670   29.4990    9.9410 P.3   1269  F6F1269     0.5326
     19  O19       48.2450   28.8830    8.5880 O.2   1269  F6F1269    -0.2224
     20  O20       49.1810   30.1960   10.4810 O.3   1269  F6F1269    -0.1145
     21  O21       46.6310   30.2190    9.8620 O.3   1269  F6F1269    -0.1145
@<TRIPOS>BOND
     1    19    18    2
     2    21    18    1
     3    18    20    1
     4    18    17    1
     5    17    16    1
     6    16    15    1
     7    11     8    1
     8    15    13    1
     9    13    12    1
    10     5     6   ar
    11     5     4   ar
    12     8     9    1
    13     8    10    1
    14     8     7    1
    15     6     1   ar
    16     4    12    1
    17     4     3   ar
    18    12    14    1
    19     1     7    1
    20     1     2   ar
    21     3     2   ar
