@<TRIPOS>MOLECULE
2clf_PLP_B_1.pdb
 15 15 0 0 0
SMALL
GASTEIGER

@<TRIPOS>ATOM
      1  N1        84.5870   13.9900   11.9450 N.ar  1397  PLP1397    -0.2452
      2  C2        84.5030   14.3720   10.6390 C.ar  1397  PLP1397     0.0978
      3  C2A       85.7360   14.2880    9.7510 C.3   1397  PLP1397     0.0555
      4  C3        83.3170   14.8540   10.1390 C.ar  1397  PLP1397     0.2049
      5  O3        83.2420   15.2780    8.8230 O.3   1397  PLP1397    -0.2857
      6  C4        82.2190   14.9600   10.9600 C.ar  1397  PLP1397     0.0182
      7  C4A       80.8170   15.3270   10.3460 C.3   1397  PLP1397     0.0342
      8  C5        82.3230   14.5940   12.2890 C.ar  1397  PLP1397     0.0261
      9  C6        83.5030   14.1040   12.7680 C.ar  1397  PLP1397     0.0965
     10  C5A       81.1430   14.8330   13.2820 C.3   1397  PLP1397     0.1815
     11  O4P       79.9760   14.0400   13.1510 O.3   1397  PLP1397    -0.2653
     12  P         79.6660   12.7040   13.9070 P.3   1397  PLP1397     0.5329
     13  O1P       78.3050   12.5020   13.4030 O.2   1397  PLP1397    -0.2224
     14  O2P       79.7490   13.0250   15.3460 O.3   1397  PLP1397    -0.1145
     15  O3P       80.6430   11.7280   13.4360 O.3   1397  PLP1397    -0.1145
@<TRIPOS>BOND
     1     5     4    1
     2     3     2    1
     3     4     2   ar
     4     4     6   ar
     5     7     6    1
     6     2     1   ar
     7     6     8   ar
     8     1     9   ar
     9     8     9   ar
    10     8    10    1
    11    11    10    1
    12    11    12    1
    13    13    12    2
    14    15    12    1
    15    12    14    1
