@<TRIPOS>MOLECULE
2clh_PLP_B_1.pdb
 15 15 0 0 0
SMALL
GASTEIGER

@<TRIPOS>ATOM
      1  N1        84.0410   13.9570   11.9660 N.ar  1396  PLP1396    -0.2452
      2  C2        83.9570   14.2870   10.6450 C.ar  1396  PLP1396     0.0978
      3  C2A       85.2090   14.1780    9.7510 C.3   1396  PLP1396     0.0555
      4  C3        82.7670   14.7360   10.1250 C.ar  1396  PLP1396     0.2049
      5  O3        82.6860   15.0810    8.7910 O.3   1396  PLP1396    -0.2857
      6  C4        81.6620   14.8570   10.9410 C.ar  1396  PLP1396     0.0182
      7  C4A       80.2710   15.2290   10.3220 C.3   1396  PLP1396     0.0342
      8  C5        81.7660   14.5370   12.2830 C.ar  1396  PLP1396     0.0261
      9  C6        82.9500   14.0810   12.7780 C.ar  1396  PLP1396     0.0965
     10  C5A       80.5800   14.7910   13.2740 C.3   1396  PLP1396     0.1815
     11  O4P       79.3970   14.0280   13.2140 O.3   1396  PLP1396    -0.2653
     12  P         79.1040   12.6570   13.9050 P.3   1396  PLP1396     0.5329
     13  O1P       77.7350   12.4530   13.4050 O.3   1396  PLP1396    -0.1145
     14  O2P       79.2160   12.9080   15.3570 O.3   1396  PLP1396    -0.1145
     15  O3P       80.0740   11.6770   13.3940 O.2   1396  PLP1396    -0.2224
@<TRIPOS>BOND
     1     5     4    1
     2     3     2    1
     3     4     2   ar
     4     4     6   ar
     5     7     6    1
     6     2     1   ar
     7     6     8   ar
     8     1     9   ar
     9     8     9   ar
    10     8    10    1
    11    11    10    1
    12    11    12    1
    13    15    12    2
    14    13    12    1
    15    12    14    1
