@<TRIPOS>MOLECULE
2clh_F19_A_1.pdb
 21 22 0 0 0
SMALL
GASTEIGER

@<TRIPOS>ATOM
      1  C1        51.4300   24.8680   14.8070 C.ar  1268  F191268     0.0014
      2  C2        50.5780   25.8790   15.2670 C.ar  1268  F191268     0.0200
      3  C3        49.1770   25.6170   15.5370 C.ar  1268  F191268     0.1236
      4  C4        48.7780   24.2650   15.6510 C.ar  1268  F191268     0.0200
      5  C5        49.6120   23.1800   15.1620 C.ar  1268  F191268     0.0013
      6  C6        50.9740   23.4920   14.7470 C.ar  1268  F191268     0.0001
      7  C7        51.8550   22.4590   14.2870 C.ar  1268  F191268     0.0000
      8  C8        51.2870   20.9950   14.3830 C.ar  1268  F191268     0.0000
      9  C9        50.0040   20.6580   14.9310 C.ar  1268  F191268     0.0000
     10  C10       49.1220   21.8170   15.0610 C.ar  1268  F191268     0.0000
     11  S11       48.0150   26.9810   15.7360 S.O2  1268  F191268     0.0769
     12  O12       46.6800   26.4500   15.4520 O.2   1268  F191268    -0.1516
     13  O13       48.1490   27.4850   17.0820 O.2   1268  F191268    -0.1516
     14  C16       47.9510   28.9050   12.4260 C.3   1268  F191268     0.1745
     15  O17       47.9350   28.3420   11.1250 O.3   1268  F191268    -0.2686
     16  C18       48.7880   28.0370   13.3410 C.3   1268  F191268     0.1480
     17  N1        48.4070   28.2920   14.7270 N.3   1268  F191268    -0.0751
     18  O20       46.6860   30.2280    9.7300 O.3   1268  F191268    -0.1145
     19  O21       49.0050   30.2430   10.0020 O.3   1268  F191268    -0.1145
     20  P         47.7920   29.3570    9.8630 P.3   1268  F191268     0.5326
     21  O22       47.8990   28.5460    8.6550 O.2   1268  F191268    -0.2224
@<TRIPOS>BOND
     1    21    20    2
     2    18    20    1
     3    20    19    1
     4    20    15    1
     5    15    14    1
     6    14    16    1
     7    16    17    1
     8     7     8   ar
     9     7     6   ar
    10     8     9   ar
    11    17    11    1
    12     6     1   ar
    13     6     5   ar
    14     1     2   ar
    15     9    10   ar
    16    10     5   ar
    17     5     4   ar
    18     2     3   ar
    19    12    11    2
    20     3     4   ar
    21     3    11    1
    22    11    13    2
