@<TRIPOS>MOLECULE
2cli_PLP_B_1.pdb
 15 15 0 0 0
SMALL
GASTEIGER

@<TRIPOS>ATOM
      1  N1        84.5200   13.9640   11.9400 N.ar  1396  PLP1396    -0.2452
      2  C2        84.4480   14.3090   10.6220 C.ar  1396  PLP1396     0.0978
      3  C2A       85.6850   14.2230    9.7550 C.3   1396  PLP1396     0.0555
      4  C3        83.2690   14.7830   10.1000 C.ar  1396  PLP1396     0.2049
      5  O3        83.1880   15.1030    8.7750 O.3   1396  PLP1396    -0.2857
      6  C4        82.1640   14.9140   10.9060 C.ar  1396  PLP1396     0.0182
      7  C4A       80.8050   15.4020   10.2780 C.3   1396  PLP1396     0.0342
      8  C5        82.2500   14.5790   12.2450 C.ar  1396  PLP1396     0.0261
      9  C6        83.4240   14.0940   12.7480 C.ar  1396  PLP1396     0.0965
     10  C5A       81.0410   14.8220   13.2260 C.3   1396  PLP1396     0.1815
     11  O4P       79.8750   14.0380   13.1190 O.3   1396  PLP1396    -0.2653
     12  P         79.5810   12.6870   13.8780 P.3   1396  PLP1396     0.5329
     13  O1P       78.2050   12.4320   13.3810 O.2   1396  PLP1396    -0.2224
     14  O2P       79.6720   13.0450   15.3100 O.3   1396  PLP1396    -0.1145
     15  O3P       80.5660   11.6970   13.4210 O.3   1396  PLP1396    -0.1145
@<TRIPOS>BOND
     1     5     4    1
     2     3     2    1
     3     4     2   ar
     4     4     6   ar
     5     7     6    1
     6     2     1   ar
     7     6     8   ar
     8     1     9   ar
     9     8     9   ar
    10     8    10    1
    11    11    10    1
    12    11    12    1
    13    13    12    2
    14    15    12    1
    15    12    14    1
