@<TRIPOS>MOLECULE
2cli_F9F_A_1.pdb
 22 22 0 0 0
SMALL
GASTEIGER

@<TRIPOS>ATOM
      1  C1        50.8670   23.3970   15.0090 C.ar  1269  F9F1269     0.1469
      2  C2        49.6770   23.3090   15.8670 C.ar  1269  F9F1269     0.0386
      3  C3        48.9080   24.5840   15.9470 C.ar  1269  F9F1269     0.0231
      4  C4        49.2410   25.7730   15.3120 C.ar  1269  F9F1269     0.1238
      5  C5        50.4920   25.7890   14.4320 C.ar  1269  F9F1269     0.0231
      6  C6        51.2740   24.6020   14.3160 C.ar  1269  F9F1269     0.0386
      7  O7        51.7890   22.3450   14.7630 O.3   1269  F9F1269    -0.4045
      8  C8        51.3560   20.9420   14.5680 C.3   1269  F9F1269     0.5753
      9  F9F       52.3740   20.2670   14.0460 F     1269  F9F1269    -0.1328
     10  F10       50.3800   20.8300   13.6300 F     1269  F9F1269    -0.1328
     11  F11       50.9450   20.3080   15.6980 F     1269  F9F1269    -0.1328
     12  S12       48.1940   27.2170   15.5520 S.O2  1269  F9F1269     0.0769
     13  N13       48.7980   28.5920   14.7060 N.3   1269  F9F1269    -0.0751
     14  C14       48.9810   28.4750   13.2410 C.3   1269  F9F1269     0.1480
     15  C15       47.8140   28.9640   12.5750 C.3   1269  F9F1269     0.1745
     16  O16       47.7940   28.4390   11.2590 O.3   1269  F9F1269    -0.2686
     17  P17       48.0480   29.4660   10.0210 P.3   1269  F9F1269     0.5326
     18  O18       49.2120   30.3470   10.3130 O.3   1269  F9F1269    -0.1145
     19  O19       48.2890   28.6460    8.8260 O.2   1269  F9F1269    -0.2224
     20  O20       46.8070   30.2620    9.8870 O.3   1269  F9F1269    -0.1145
     21  O21       48.0870   27.4380   17.0120 O.2   1269  F9F1269    -0.1516
     22  O22       46.8790   26.9040   14.9320 O.2   1269  F9F1269    -0.1516
@<TRIPOS>BOND
     1    19    17    2
     2    20    17    1
     3    17    18    1
     4    17    16    1
     5    16    15    1
     6    15    14    1
     7    14    13    1
     8    10     8    1
     9     9     8    1
    10     6     5   ar
    11     6     1   ar
    12     5     4   ar
    13     8     7    1
    14     8    11    1
    15    13    12    1
    16     7     1    1
    17    22    12    2
    18     1     2   ar
    19     4    12    1
    20     4     3   ar
    21    12    21    2
    22     2     3   ar
