@<TRIPOS>MOLECULE
2clk_PLP_B_1.pdb
 15 15 0 0 0
SMALL
GASTEIGER

@<TRIPOS>ATOM
      1  N1        84.2630   13.8020   11.9890 N.ar  1392  PLP1392    -0.2452
      2  C2        84.1480   14.1650   10.6910 C.ar  1392  PLP1392     0.0978
      3  C2A       85.3690   14.0400    9.8620 C.3   1392  PLP1392     0.0555
      4  C3        82.9630   14.6910   10.1920 C.ar  1392  PLP1392     0.2049
      5  O3        82.9010   15.0520    8.8890 O.3   1392  PLP1392    -0.2857
      6  C4        81.8400   14.8090   11.0420 C.ar  1392  PLP1392     0.0182
      7  C4A       80.5170   15.3440   10.5720 C.3   1392  PLP1392     0.0342
      8  C5        81.9670   14.4420   12.3930 C.ar  1392  PLP1392     0.0261
      9  C6        83.1420   13.9410   12.8120 C.ar  1392  PLP1392     0.0965
     10  C5A       80.7970   14.6370   13.3640 C.3   1392  PLP1392     0.1815
     11  O4P       79.6180   13.9330   13.1790 O.3   1392  PLP1392    -0.2653
     12  P         79.3310   12.5990   13.9060 P.3   1392  PLP1392     0.5329
     13  O1P       77.9580   12.3070   13.4840 O.3   1392  PLP1392    -0.1145
     14  O2P       79.4790   12.8470   15.3940 O.3   1392  PLP1392    -0.1145
     15  O3P       80.3080   11.5440   13.4630 O.2   1392  PLP1392    -0.2224
@<TRIPOS>BOND
     1     5     4    1
     2     3     2    1
     3     4     2   ar
     4     4     6   ar
     5     7     6    1
     6     2     1   ar
     7     6     8   ar
     8     1     9   ar
     9     8     9   ar
    10     8    10    1
    11    11    10    1
    12    11    12    1
    13    15    12    2
    14    13    12    1
    15    12    14    1
