@<TRIPOS>MOLECULE
2clk_G3H_A_1.pdb
 10 9 0 0 0
SMALL
GASTEIGER

@<TRIPOS>ATOM
      1  O1        46.9860   27.2870   15.2650 O.3   1268  G3H1268    -0.2175
      2  C1        47.9020   28.1380   14.8630 C.3   1268  G3H1268     0.2174
      3  C2        48.3840   28.1090   13.4640 C.3   1268  G3H1268     0.2147
      4  O2        49.1880   29.3230   13.4700 O.3   1268  G3H1268    -0.2176
      5  C3        47.2500   28.2580   12.4260 C.3   1268  G3H1268     0.1892
      6  O1P       47.7060   28.0570   11.0750 O.3   1268  G3H1268    -0.2674
      7  O2P       46.7000   30.1770   10.1680 O.3   1268  G3H1268    -0.1145
      8  O3P       48.3290   28.6780    8.8370 O.2   1268  G3H1268    -0.2224
      9  O4P       49.1550   30.1180   10.7850 O.3   1268  G3H1268    -0.1145
     10  P         47.9900   29.3520   10.1650 P.3   1268  G3H1268     0.5327
@<TRIPOS>BOND
     1     8    10    2
     2    10     7    1
     3    10     9    1
     4    10     6    1
     5     6     5    1
     6     5     3    1
     7     3     4    1
     8     3     2    1
     9     2     1    1
