@<TRIPOS>MOLECULE
2cll_F9F_A_1.pdb
 22 22 0 0 0
SMALL
GASTEIGER

@<TRIPOS>ATOM
      1  C1        51.2100   23.6300   14.9810 C.ar  1268  F9F1268     0.1469
      2  C2        49.9820   23.4890   15.8260 C.ar  1268  F9F1268     0.0386
      3  C3        49.2180   24.6890   15.9940 C.ar  1268  F9F1268     0.0231
      4  C4        49.5730   25.9100   15.4160 C.ar  1268  F9F1268     0.1238
      5  C5        50.8630   26.0010   14.5500 C.ar  1268  F9F1268     0.0231
      6  C6        51.6310   24.8360   14.3760 C.ar  1268  F9F1268     0.0386
      7  O7        52.0680   22.5910   14.6990 O.3   1268  F9F1268    -0.4045
      8  C8        51.5890   21.2500   14.6450 C.3   1268  F9F1268     0.5753
      9  F9F       52.5570   20.4460   14.1890 F     1268  F9F1268    -0.1328
     10  F10       50.5440   21.0950   13.8210 F     1268  F9F1268    -0.1328
     11  F11       51.2340   20.7760   15.8540 F     1268  F9F1268    -0.1328
     12  S12       48.5290   27.3230   15.6800 S.O2  1268  F9F1268     0.0769
     13  N13       49.1470   28.6690   14.7930 N.3   1268  F9F1268    -0.0751
     14  C14       49.2120   28.5640   13.2910 C.3   1268  F9F1268     0.1480
     15  C15       47.9460   28.8470   12.6220 C.3   1268  F9F1268     0.1745
     16  O16       48.0020   28.4110   11.2390 O.3   1268  F9F1268    -0.2686
     17  P17       48.2620   29.5100   10.0110 P.3   1268  F9F1268     0.5326
     18  O18       49.4750   30.4190   10.3990 O.3   1268  F9F1268    -0.1145
     19  O19       48.5430   28.7030    8.7770 O.2   1268  F9F1268    -0.2224
     20  O20       46.9450   30.2700    9.8790 O.3   1268  F9F1268    -0.1145
     21  O21       48.6040   27.5890   17.0940 O.2   1268  F9F1268    -0.1516
     22  O22       47.2280   26.9330   15.1680 O.2   1268  F9F1268    -0.1516
@<TRIPOS>BOND
     1    19    17    2
     2    20    17    1
     3    17    18    1
     4    17    16    1
     5    16    15    1
     6    15    14    1
     7    14    13    1
     8    10     8    1
     9     9     8    1
    10     6     5   ar
    11     6     1   ar
    12     5     4   ar
    13     8     7    1
    14     8    11    1
    15     7     1    1
    16    13    12    1
    17     1     2   ar
    18    22    12    2
    19     4    12    1
    20     4     3   ar
    21    12    21    2
    22     2     3   ar
