@<TRIPOS>MOLECULE
2cll_PLS_B_1.pdb
 22 22 0 0 0
SMALL
GASTEIGER

@<TRIPOS>ATOM
      1  N         79.9230   17.0180   10.3120 N.2   1395  PLS1395    -0.2567
      2  CA        78.4750   17.5770   10.2320 C.3   1395  PLS1395     0.2384
      3  CB        78.0320   18.5120   11.2150 C.3   1395  PLS1395     0.2178
      4  OG        78.4910   19.8370   10.9130 O.3   1395  PLS1395    -0.2176
      5  C         78.2240   18.1490    8.7560 C.2   1395  PLS1395     0.3893
      6  O         79.2990   18.0760    7.7960 O.co2 1395  PLS1395    -0.2434
      7  OXT       77.1250   18.6630    8.3990 O.co2 1395  PLS1395    -0.2434
      8  N1        84.2150   14.1230   11.7620 N.ar  1395  PLS1395    -0.2452
      9  C2        84.0800   14.7910   10.4880 C.ar  1395  PLS1395     0.0981
     10  C2A       85.1090   14.7230    9.5560 C.3   1395  PLS1395     0.0555
     11  C3        82.7800   15.5390   10.2530 C.ar  1395  PLS1395     0.2103
     12  O3        82.4120   16.2430    9.1400 O.3   1395  PLS1395    -0.2853
     13  C4        81.7650   15.5200   11.3590 C.ar  1395  PLS1395     0.0587
     14  C4A       80.4440   16.2050   11.2070 C.2   1395  PLS1395     0.0968
     15  C5        82.0300   14.8150   12.6040 C.ar  1395  PLS1395     0.0316
     16  C6        83.2420   14.1280   12.7820 C.ar  1395  PLS1395     0.0968
     17  C5A       81.0020   14.8000   13.7590 C.3   1395  PLS1395     0.1819
     18  O4P       79.7790   14.0920   13.5040 O.3   1395  PLS1395    -0.2653
     19  P         79.5000   12.7220   14.0130 P.3   1395  PLS1395     0.5329
     20  O1P       79.5750   12.8420   15.4850 O.3   1395  PLS1395    -0.1145
     21  O2P       78.1390   12.4390   13.5170 O.2   1395  PLS1395    -0.2224
     22  O3P       80.3630   11.5970   13.6620 O.3   1395  PLS1395    -0.1145
@<TRIPOS>BOND
     1     6     5   ar
     2     7     5   ar
     3     5     2    1
     4    12    11    1
     5    10     9    1
     6     2     1    1
     7     2     3    1
     8    11     9   ar
     9    11    13   ar
    10     1    14    2
    11     9     8   ar
    12     4     3    1
    13    14    13    1
    14    13    15   ar
    15     8    16   ar
    16    15    16   ar
    17    15    17    1
    18    18    17    1
    19    18    19    1
    20    21    19    2
    21    22    19    1
    22    19    20    1
