@<TRIPOS>MOLECULE
2clm_PLS_B_1.pdb
 22 22 0 0 0
SMALL
GASTEIGER

@<TRIPOS>ATOM
      1  N         79.9400   17.1000   10.3220 N.2   1394  PLS1394    -0.2567
      2  CA        78.5410   17.6410   10.2630 C.3   1394  PLS1394     0.2384
      3  CB        78.2070   18.7610   11.2940 C.3   1394  PLS1394     0.2178
      4  OG        78.7300   20.0160   10.8550 O.3   1394  PLS1394    -0.2176
      5  C         78.1870   18.1510    8.7720 C.2   1394  PLS1394     0.3893
      6  O         79.1770   18.0550    7.7060 O.co2 1394  PLS1394    -0.2434
      7  OXT       77.0660   18.6390    8.4800 O.co2 1394  PLS1394    -0.2434
      8  N1        84.2240   14.1080   11.8970 N.ar  1394  PLS1394    -0.2452
      9  C2        84.1280   14.6990   10.6230 C.ar  1394  PLS1394     0.0981
     10  C2A       85.2610   14.5650    9.6620 C.3   1394  PLS1394     0.0555
     11  C3        82.8690   15.4370   10.2860 C.ar  1394  PLS1394     0.2103
     12  O3        82.5980   16.0640    9.1170 O.3   1394  PLS1394    -0.2853
     13  C4        81.7820   15.4990   11.3710 C.ar  1394  PLS1394     0.0587
     14  C4A       80.4410   16.2040   11.1670 C.2   1394  PLS1394     0.0968
     15  C5        82.0000   14.8470   12.6590 C.ar  1394  PLS1394     0.0316
     16  C6        83.2500   14.1490   12.9030 C.ar  1394  PLS1394     0.0968
     17  C5A       80.9470   14.8840   13.7730 C.3   1394  PLS1394     0.1819
     18  O4P       79.7430   14.1270   13.5500 O.3   1394  PLS1394    -0.2653
     19  P         79.4740   12.7140   14.0480 P.3   1394  PLS1394     0.5329
     20  O1P       79.4940   12.8590   15.5330 O.3   1394  PLS1394    -0.1145
     21  O2P       78.1460   12.4380   13.5700 O.2   1394  PLS1394    -0.2224
     22  O3P       80.2670   11.5840   13.7970 O.3   1394  PLS1394    -0.1145
@<TRIPOS>BOND
     1     6     5   ar
     2     7     5   ar
     3     5     2    1
     4    12    11    1
     5    10     9    1
     6     2     1    1
     7     2     3    1
     8    11     9   ar
     9    11    13   ar
    10     1    14    2
    11     9     8   ar
    12     4     3    1
    13    14    13    1
    14    13    15   ar
    15     8    16   ar
    16    15    16   ar
    17    15    17    1
    18    18    17    1
    19    18    19    1
    20    21    19    2
    21    22    19    1
    22    19    20    1
