@<TRIPOS>MOLECULE
2clm_F6F_A_1.pdb
 21 21 0 0 0
SMALL
GASTEIGER

@<TRIPOS>ATOM
      1  C1        51.3270   23.5870   15.1550 C.ar  1268  F6F1268     0.1468
      2  C2        49.9030   23.5790   15.3870 C.ar  1268  F6F1268     0.0370
      3  C3        49.1390   24.7910   15.2600 C.ar  1268  F6F1268     0.0027
      4  C4        49.7880   26.0320   14.8960 C.ar  1268  F6F1268     0.0248
      5  C5        51.2210   26.0450   14.6630 C.ar  1268  F6F1268     0.0027
      6  C6        51.9880   24.8250   14.7910 C.ar  1268  F6F1268     0.0370
      7  O7        52.1270   22.4740   15.2610 O.3   1268  F6F1268    -0.4045
      8  C8        52.1730   21.6710   14.0860 C.3   1268  F6F1268     0.5753
      9  F9        50.9710   21.2260   13.7530 F     1268  F6F1268    -0.1328
     10  F10       52.9510   20.6170   14.2800 F     1268  F6F1268    -0.1328
     11  F11       52.6500   22.3460   13.0490 F     1268  F6F1268    -0.1328
     12  C12       48.9480   27.3140   14.7720 C.3   1268  F6F1268     0.2487
     13  N13       49.3210   27.6400   13.5000 N.3   1268  F6F1268    -0.1827
     14  O14       47.7400   27.2130   14.9930 O.3   1268  F6F1268    -0.1986
     15  C15       49.3840   29.0460   13.0870 C.3   1268  F6F1268     0.1242
     16  C16       49.8190   29.1250   11.6330 C.3   1268  F6F1268     0.1726
     17  O17       49.0580   30.0500   10.9720 O.3   1268  F6F1268    -0.2687
     18  P18       47.8510   29.3390   10.1260 P.3   1268  F6F1268     0.5326
     19  O19       46.7620   30.3580    9.8740 O.3   1268  F6F1268    -0.1145
     20  O20       47.3100   28.2380   11.0120 O.3   1268  F6F1268    -0.1145
     21  O21       48.5210   29.0100    8.8110 O.2   1268  F6F1268    -0.2224
@<TRIPOS>BOND
     1    21    18    2
     2    19    18    1
     3    18    17    1
     4    18    20    1
     5    17    16    1
     6    16    15    1
     7    11     8    1
     8    15    13    1
     9    13    12    1
    10     9     8    1
    11     8    10    1
    12     8     7    1
    13     5     6   ar
    14     5     4   ar
    15    12     4    1
    16    12    14    1
    17     6     1   ar
    18     4     3   ar
    19     1     7    1
    20     1     2   ar
    21     3     2   ar
