@<TRIPOS>MOLECULE
2clo_F19_A_1.pdb
 21 22 0 0 0
SMALL
GASTEIGER

@<TRIPOS>ATOM
      1  C1        51.8040   24.8290   14.9930 C.ar  1268  F191268    -0.0032
      2  C2        50.9820   25.8810   15.4060 C.ar  1268  F191268     0.0196
      3  C3        49.5570   25.6950   15.6140 C.ar  1268  F191268     0.1232
      4  C4        49.0650   24.3780   15.6290 C.ar  1268  F191268     0.0154
      5  C5        49.8620   23.2710   15.1660 C.ar  1268  F191268    -0.0248
      6  C6        51.2900   23.4790   14.9390 C.ar  1268  F191268    -0.0261
      7  C7        52.1590   22.3520   14.6760 C.3   1268  F191268     0.0260
      8  C8        51.3630   21.0430   14.3010 C.3   1268  F191268     0.0050
      9  C9        50.0890   20.7640   14.8830 C.3   1268  F191268     0.0050
     10  C10       49.2780   21.9740   14.9090 C.3   1268  F191268     0.0261
     11  S11       48.4710   27.1280   15.8450 S.O2  1268  F191268     0.0769
     12  O12       47.1070   26.6160   15.8310 O.2   1268  F191268    -0.1516
     13  O13       48.8360   27.7440   17.1040 O.2   1268  F191268    -0.1516
     14  C16       47.8530   28.5610   12.3680 C.3   1268  F191268     0.1745
     15  O17       48.1510   28.2100   11.0300 O.3   1268  F191268    -0.2686
     16  C18       48.8440   27.8480   13.2690 C.3   1268  F191268     0.1480
     17  N1        48.6980   28.3070   14.6480 N.3   1268  F191268    -0.0751
     18  O20       49.5860   30.1620   10.4770 O.3   1268  F191268    -0.1145
     19  O21       48.7570   28.7080    8.7170 O.2   1268  F191268    -0.2224
     20  P         48.4010   29.3880    9.9410 P.3   1268  F191268     0.5326
     21  O22       47.4070   30.3470    9.6480 O.3   1268  F191268    -0.1145
@<TRIPOS>BOND
     1    19    20    2
     2    21    20    1
     3    20    18    1
     4    20    15    1
     5    15    14    1
     6    14    16    1
     7    16    17    1
     8     8     7    1
     9     8     9    1
    10    17    11    1
    11     7     6    1
    12     9    10    1
    13    10     5    1
    14     6     1   ar
    15     6     5   ar
    16     1     2   ar
    17     5     4   ar
    18     2     3   ar
    19     3     4   ar
    20     3    11    1
    21    12    11    2
    22    11    13    2
