@<TRIPOS>MOLECULE
2clo_PLS_B_1.pdb
 22 22 0 0 0
SMALL
GASTEIGER

@<TRIPOS>ATOM
      1  N         80.0170   17.1610   10.4120 N.2   1392  PLS1392    -0.2567
      2  CA        78.6180   17.6960   10.3200 C.3   1392  PLS1392     0.2384
      3  CB        78.2930   18.7560   11.2030 C.3   1392  PLS1392     0.2178
      4  OG        79.0720   19.9150   10.9060 O.3   1392  PLS1392    -0.2176
      5  C         78.2760   18.1130    8.7950 C.2   1392  PLS1392     0.3893
      6  O         79.2790   17.9420    7.7480 O.co2 1392  PLS1392    -0.2434
      7  OXT       77.1620   18.5870    8.4560 O.co2 1392  PLS1392    -0.2434
      8  N1        84.3210   14.0240   11.8750 N.ar  1392  PLS1392    -0.2452
      9  C2        84.2130   14.6340   10.6080 C.ar  1392  PLS1392     0.0981
     10  C2A       85.2470   14.5230    9.7130 C.3   1392  PLS1392     0.0555
     11  C3        82.9150   15.3940   10.2770 C.ar  1392  PLS1392     0.2103
     12  O3        82.6500   16.0330    9.1140 O.3   1392  PLS1392    -0.2853
     13  C4        81.8250   15.4500   11.3620 C.ar  1392  PLS1392     0.0587
     14  C4A       80.4810   16.1600   11.1560 C.2   1392  PLS1392     0.0968
     15  C5        82.0380   14.7870   12.6410 C.ar  1392  PLS1392     0.0316
     16  C6        83.3600   14.0500   12.8870 C.ar  1392  PLS1392     0.0968
     17  C5A       80.9880   14.8160   13.7570 C.3   1392  PLS1392     0.1819
     18  O4P       79.8000   14.0180   13.5720 O.3   1392  PLS1392    -0.2653
     19  P         79.6020   12.6840   14.0240 P.3   1392  PLS1392     0.5329
     20  O1P       79.6740   12.7960   15.5150 O.3   1392  PLS1392    -0.1145
     21  O2P       78.2680   12.3690   13.5940 O.2   1392  PLS1392    -0.2224
     22  O3P       80.4280   11.5850   13.7050 O.3   1392  PLS1392    -0.1145
@<TRIPOS>BOND
     1     6     5   ar
     2     7     5   ar
     3     5     2    1
     4    12    11    1
     5    10     9    1
     6    11     9   ar
     7    11    13   ar
     8     2     1    1
     9     2     3    1
    10     1    14    2
    11     9     8   ar
    12     4     3    1
    13    14    13    1
    14    13    15   ar
    15     8    16   ar
    16    15    16   ar
    17    15    17    1
    18    18    17    1
    19    18    19    1
    20    21    19    2
    21    22    19    1
    22    19    20    1
