@<TRIPOS>MOLECULE
2clp_NDP_A_1.pdb
 48 52 0 0 0
SMALL
GASTEIGER

@<TRIPOS>ATOM
      1  PA        -9.7890   17.1630   59.0190 P.3   1361  NDP1361     0.2189
      2  O1A      -11.2000   16.8070   58.7610 O.3   1361  NDP1361    -0.4371
      3  O2A       -8.9100   16.6840   57.9320 O.2   1361  NDP1361    -0.5170
      4  O5B       -9.2360   16.5740   60.4000 O.3   1361  NDP1361    -0.3112
      5  C5B       -7.8650   16.2770   60.6260 C.3   1361  NDP1361     0.1813
      6  C4B       -7.8110   15.0800   61.5640 C.3   1361  NDP1361     0.1820
      7  O4B       -8.0960   13.9190   60.8040 O.3   1361  NDP1361    -0.3136
      8  C3B       -6.4860   14.8330   62.2720 C.3   1361  NDP1361     0.2157
      9  O3B       -6.3660   15.4880   63.5140 O.3   1361  NDP1361    -0.2175
     10  C2B       -6.5390   13.3290   62.4190 C.3   1361  NDP1361     0.2314
     11  O2B       -7.3610   12.9510   63.4890 O.3   1361  NDP1361    -0.2630
     12  C1B       -7.2540   12.8540   61.1760 C.3   1361  NDP1361     0.3158
     13  N9A       -6.2590   12.5530   60.1380 N.pl3 1361  NDP1361    -0.1439
     14  C8A       -5.3830   13.4340   59.5770 C.3   1361  NDP1361     0.3377
     15  N7A       -4.6260   12.7650   58.6810 N.2   1361  NDP1361    -0.2095
     16  C5A       -5.0040   11.4720   58.6460 C.2   1361  NDP1361     0.2526
     17  C6A       -4.5600   10.3670   57.9040 C.2   1361  NDP1361     0.4393
     18  N6A       -3.5770   10.4640   57.0140 N.pl3 1361  NDP1361     0.2180
     19  N1A       -5.1570    9.1380   58.0960 N.2   1361  NDP1361     0.0021
     20  C2A       -6.1890    9.0260   59.0280 C.3   1361  NDP1361     0.5254
     21  N3A       -6.6300   10.1210   59.7610 N.2   1361  NDP1361    -0.0055
     22  C4A       -6.0400   11.3280   59.5680 C.2   1361  NDP1361     0.3518
     23  O3        -9.6910   18.7560   59.2060 O.3   1361  NDP1361    -0.2703
     24  PN        -9.4000   19.5100   60.5980 P.3   1361  NDP1361     0.2189
     25  O1N       -7.9820   19.4230   61.0390 O.2   1361  NDP1361    -0.5170
     26  O2N      -10.5100   19.1560   61.4990 O.3   1361  NDP1361    -0.4371
     27  O5D       -9.5320   21.0170   60.0750 O.3   1361  NDP1361    -0.3112
     28  C5D       -8.6200   21.4470   59.1090 C.3   1361  NDP1361     0.1813
     29  C4D       -7.8180   22.6560   59.5690 C.3   1361  NDP1361     0.1799
     30  O4D       -8.6390   23.7920   59.4140 O.3   1361  NDP1361    -0.3327
     31  C3D       -7.3070   22.6750   61.0030 C.3   1361  NDP1361     0.2158
     32  O3D       -6.0030   22.1800   61.1130 O.3   1361  NDP1361    -0.2175
     33  C2D       -7.3900   24.1560   61.3520 C.3   1361  NDP1361     0.2309
     34  O2D       -6.2050   24.8490   61.0200 O.3   1361  NDP1361    -0.2158
     35  C1D       -8.5430   24.6530   60.5090 C.3   1361  NDP1361     0.2263
     36  N1N       -9.8390   24.5530   61.1880 N.pl3 1361  NDP1361    -0.2787
     37  C2N      -10.5980   25.6760   61.2320 C.3   1361  NDP1361     0.1244
     38  C3N      -11.8240   25.6980   61.8670 C.2   1361  NDP1361     0.0544
     39  C7N      -12.5430   26.9990   61.9400 C.2   1361  NDP1361     0.2818
     40  O7N      -13.9100   27.0200   61.6240 O.2   1361  NDP1361    -0.2670
     41  N7N      -11.8660   28.0850   62.3010 N.am  1361  NDP1361    -0.0839
     42  C4N      -12.1870   24.6420   62.8760 C.2   1361  NDP1361     0.0033
     43  C5N      -11.2890   23.4510   62.7640 C.2   1361  NDP1361     0.0157
     44  C6N      -10.1690   23.4660   61.9430 C.2   1361  NDP1361     0.0633
     45  P2B       -6.8600   12.1140   64.7620 P.3   1361  NDP1361     0.5328
     46  O1X       -5.9290   11.0280   64.3300 O.2   1361  NDP1361    -0.2224
     47  O2X       -6.1190   12.9820   65.7690 O.3   1361  NDP1361    -0.1145
     48  O3X       -8.1120   11.4400   65.2750 O.3   1361  NDP1361    -0.1145
@<TRIPOS>BOND
     1    18    17    1
     2    17    19    2
     3    17    16    1
     4     3     1    2
     5    19    20    1
     6    16    15    2
     7    16    22    1
     8    15    14    1
     9     2     1    1
    10     1    23    1
    11     1     4    1
    12    20    21    1
    13    28    29    1
    14    28    27    1
    15    23    24    1
    16    30    29    1
    17    30    35    1
    18    22    21    2
    19    22    13    1
    20    29    31    1
    21    14    13    1
    22    27    24    1
    23    13    12    1
    24     4     5    1
    25    35    36    1
    26    35    33    1
    27    24    25    2
    28    24    26    1
    29     5     6    1
    30     7    12    1
    31     7     6    1
    32    31    32    1
    33    31    33    1
    34    34    33    1
    35    12    10    1
    36    36    37    1
    37    36    44    1
    38    37    38    1
    39     6     8    1
    40    40    39    2
    41    38    39    1
    42    38    42    2
    43    39    41   am
    44    44    43    2
    45     8    10    1
    46     8     9    1
    47    10    11    1
    48    43    42    1
    49    11    45    1
    50    46    45    2
    51    45    48    1
    52    45    47    1
