@<TRIPOS>MOLECULE
2cls_GTP_A_1.pdb
 32 34 0 0 0
SMALL
GASTEIGER

@<TRIPOS>ATOM
      1  PG         3.1520  -16.0690   17.8810 P.3   500  GTP500      0.5373
      2  O1G        4.6040  -16.2270   17.2750 O.2   500  GTP500     -0.2221
      3  O2G        2.9510  -14.5540   18.0240 O.3   500  GTP500     -0.1143
      4  O3G        3.0480  -16.8370   19.1440 O.3   500  GTP500     -0.1143
      5  O3B        2.0580  -16.5780   16.7860 O.3   500  GTP500     -0.2258
      6  PB         1.5430  -18.0780   16.4610 P.3   500  GTP500      0.2277
      7  O1B        1.7160  -19.0540   17.6460 O.3   500  GTP500     -0.4368
      8  O2B        2.3000  -18.5760   15.2850 O.2   500  GTP500     -0.5168
      9  O3A        0.0040  -17.8960   16.1760 O.3   500  GTP500     -0.2700
     10  PA        -1.2380  -18.8200   16.6840 P.3   500  GTP500      0.2189
     11  O1A       -1.6000  -18.3500   18.1730 O.3   500  GTP500     -0.4371
     12  O2A       -1.0630  -20.2820   16.6870 O.2   500  GTP500     -0.5170
     13  O5'       -2.3400  -18.4170   15.7520 O.3   500  GTP500     -0.3112
     14  C5'       -2.7260  -17.0470   15.5370 C.3   500  GTP500      0.1813
     15  C4'       -4.2940  -17.0110   15.3220 C.3   500  GTP500      0.1799
     16  O4'       -4.4190  -17.4680   13.9770 O.3   500  GTP500     -0.3326
     17  C3'       -5.0420  -18.0620   16.1420 C.3   500  GTP500      0.2158
     18  O3'       -5.4400  -17.5610   17.3960 O.3   500  GTP500     -0.2175
     19  C2'       -6.2390  -18.3390   15.2820 C.3   500  GTP500      0.2310
     20  O2'       -7.2020  -17.2330   15.3870 O.3   500  GTP500     -0.2158
     21  C1'       -5.5670  -18.3350   13.8950 C.3   500  GTP500      0.2293
     22  N9        -5.3010  -19.7610   13.4130 N.pl3 500  GTP500     -0.2354
     23  C8        -4.4820  -20.6880   13.9170 C.3   500  GTP500      0.2246
     24  N7        -4.5990  -21.7830   13.1860 N.2   500  GTP500     -0.2322
     25  C5        -5.4860  -21.5720   12.2210 C.2   500  GTP500      0.2182
     26  C6        -5.9970  -22.3560   11.1720 C.1   500  GTP500      0.2372
     27  O6        -5.6680  -23.5220   11.0090 O.2   500  GTP500     -0.2069
     28  N1        -6.9420  -21.7920   10.3270 N.2   500  GTP500     -0.2485
     29  C2        -7.3740  -20.4770   10.5350 C.1   500  GTP500      0.2531
     30  N2        -8.2660  -19.9530    9.7130 N.pl3 500  GTP500     -0.0226
     31  N3        -6.8670  -19.7390   11.5470 N.2   500  GTP500     -0.3074
     32  C4        -5.9460  -20.2770   12.3780 C.2   500  GTP500      0.2300
@<TRIPOS>BOND
     1    30    29    1
     2    28    29    2
     3    28    26    2
     4    29    31    2
     5    27    26    2
     6    26    25    1
     7    31    32    2
     8    25    32    1
     9    25    24    2
    10    32    22    1
    11    24    23    1
    12    22    21    1
    13    22    23    1
    14    21    16    1
    15    21    19    1
    16    16    15    1
    17    19    20    1
    18    19    17    1
    19     8     6    2
    20    15    14    1
    21    15    17    1
    22    14    13    1
    23    13    10    1
    24    17    18    1
    25     9     6    1
    26     9    10    1
    27     6     5    1
    28     6     7    1
    29    10    12    2
    30    10    11    1
    31     5     1    1
    32     2     1    2
    33     1     3    1
    34     1     4    1
