@<TRIPOS>MOLECULE
2clx_F18_A_1.pdb
 16 17 0 0 0
SMALL
GASTEIGER

@<TRIPOS>ATOM
      1  C3        23.7680   30.7400   10.4770 C.ar  1299  F181299     0.1958
      2  C6        24.5630   31.3440    9.5070 C.ar  1299  F181299     0.0434
      3  C2        25.6130   30.6820    8.8890 C.ar  1299  F181299     0.0215
      4  O3        22.7460   31.4000   11.0880 O.3   1299  F181299    -0.2866
      5  C5        25.8460   29.3760    9.3070 C.ar  1299  F181299     0.0917
      6  C4        25.0650   28.7730   10.2850 C.ar  1299  F181299     0.0215
      7  C1        24.0150   29.4400   10.8800 C.ar  1299  F181299     0.0434
      8  N9        26.7560   28.5340    8.8590 N.pl3 1299  F181299    -0.1167
      9  N13       27.6960   28.6120    8.0750 N.2   1299  F181299    -0.1428
     10  C14       28.2820   29.5600    7.3460 C.2   1299  F181299     0.2896
     11  C19       28.1350   30.9030    6.9920 C.2   1299  F181299     0.4921
     12  N16       27.2620   31.8370    7.3420 N.pl3 1299  F181299     0.2233
     13  N20       29.1580   31.1640    6.2020 N.2   1299  F181299     0.2042
     14  N17       29.9000   30.1950    5.9980 N.2   1299  F181299     0.2042
     15  C15       29.4310   29.1640    6.6850 C.2   1299  F181299     0.4921
     16  N18       29.9900   27.9590    6.7150 N.pl3 1299  F181299     0.2233
@<TRIPOS>BOND
     1    14    13    1
     2    14    15    2
     3    13    11    2
     4    15    16    1
     5    15    10    1
     6    11    12    1
     7    11    10    1
     8    10     9    2
     9     9     8    1
    10     8     5    1
    11     3     5   ar
    12     3     2   ar
    13     5     6   ar
    14     2     1   ar
    15     6     7   ar
    16     1     7   ar
    17     1     4    1
