@<TRIPOS>MOLECULE
2cm4_RCL_A_1.pdb
 21 20 0 0 0
SMALL
GASTEIGER

@<TRIPOS>ATOM
      1  O1        30.1190   28.6200   11.5620 O.co2 1170  RCL1170    -0.2457
      2  C1        28.9450   28.4510   12.0080 C.2   1170  RCL1170     0.3649
      3  O2        28.2990   27.3570   11.7620 O.co2 1170  RCL1170    -0.2457
      4  C2        28.3130   29.5850   12.8520 C.3   1170  RCL1170     0.1141
      5  C3        28.2380   29.1710   14.3290 C.3   1170  RCL1170     0.0118
      6  C4        29.6370   29.1070   14.9680 C.3   1170  RCL1170     0.0006
      7  C5        29.4720   28.6000   16.4250 C.3   1170  RCL1170     0.0000
      8  C6        29.4800   29.8140   17.3890 C.3   1170  RCL1170     0.0003
      9  C7        29.2100   29.3680   18.8590 C.3   1170  RCL1170     0.0047
     10  C8        29.0040   30.6550   19.7190 C.3   1170  RCL1170     0.0257
     11  C9        29.0380   30.3470   21.2120 C.2   1170  RCL1170    -0.0306
     12  C10       28.7160   31.4210   22.1610 C.2   1170  RCL1170    -0.0281
     13  C11       28.3640   32.8600   21.5930 C.3   1170  RCL1170     0.0585
     14  C12       27.4160   33.6550   22.5520 C.3   1170  RCL1170     0.1563
     15  O12       28.1150   33.9030   23.8170 O.3   1170  RCL1170    -0.2228
     16  C13       26.3050   32.7370   23.1030 C.3   1170  RCL1170     0.0332
     17  C14       25.1020   32.6990   22.1560 C.3   1170  RCL1170     0.0026
     18  C15       23.9000   32.1390   22.9780 C.3   1170  RCL1170     0.0001
     19  C16       22.9150   31.5140   22.0140 C.3   1170  RCL1170     0.0000
     20  C17       21.6890   31.0000   22.8060 C.3   1170  RCL1170     0.0000
     21  C18       22.1420   29.9650   23.8350 C.3   1170  RCL1170     0.0000
@<TRIPOS>BOND
     1     1     2   ar
     2     3     2   ar
     3     2     4    1
     4     4     5    1
     5     5     6    1
     6     6     7    1
     7     7     8    1
     8     8     9    1
     9     9    10    1
    10    10    11    1
    11    11    12    2
    12    13    12    1
    13    13    14    1
    14    19    20    1
    15    19    18    1
    16    17    18    1
    17    17    16    1
    18    14    16    1
    19    14    15    1
    20    20    21    1
