@<TRIPOS>MOLECULE
2cm7_IZD_A_1.pdb
 34 36 0 0 0
SMALL
GASTEIGER

@<TRIPOS>ATOM
      1  C1        16.7560   -1.4220   -0.4900 C.3   1299  IZD1299     0.1923
      2  C2        17.4780   -1.9420    0.7130 C.3   1299  IZD1299     0.1535
      3  C3        16.9200   -1.2760    1.9380 C.1   1299  IZD1299     0.1504
      4  N4        15.7130   -0.7120    1.7690 N.2   1299  IZD1299    -0.0608
      5  S5        15.0880   -1.1180    0.1110 S.O2  1299  IZD1299     0.0928
      6  O6        14.3300    0.1280   -0.6880 O.2   1299  IZD1299    -0.1499
      7  O7        14.2690   -2.5450    0.0980 O.2   1299  IZD1299    -0.1499
      8  O9        17.4860   -1.2290    3.0250 O.2   1299  IZD1299    -0.2253
      9  C11       16.7540   -2.2920   -1.7380 C.ar  1299  IZD1299     0.0025
     10  C12       16.8020   -3.7550   -1.6280 C.ar  1299  IZD1299    -0.0029
     11  C13       16.7910   -4.5710   -2.8470 C.ar  1299  IZD1299    -0.0045
     12  C14       16.7210   -3.9070   -4.1690 C.ar  1299  IZD1299    -0.0200
     13  C15       16.7080   -2.4540   -4.2630 C.ar  1299  IZD1299    -0.0045
     14  C16       16.7190   -1.6480   -3.0550 C.ar  1299  IZD1299    -0.0029
     15  C21       16.7000   -4.7240   -5.4230 C.3   1299  IZD1299     0.0575
     16  C22       17.9020   -4.4400   -6.3270 C.3   1299  IZD1299     0.1787
     17  C25       19.1440   -5.0350   -5.7140 C.2   1299  IZD1299     0.2809
     18  O26       19.8780   -4.3810   -4.9910 O.2   1299  IZD1299    -0.2698
     19  N27       19.3790   -6.3290   -5.9240 N.am  1299  IZD1299    -0.0863
     20  N45       17.6330   -5.0260   -7.6450 N.am  1299  IZD1299    -0.1959
     21  C47       18.4700   -4.6570   -8.6110 C.2   1299  IZD1299     0.2620
     22  C48       18.2690   -5.2610   -9.9800 C.3   1299  IZD1299     0.1770
     23  O49       19.3690   -3.8640   -8.3870 O.2   1299  IZD1299    -0.2715
     24  N51       18.3060   -4.2250  -11.0260 N.am  1299  IZD1299    -0.1974
     25  C4        19.3730   -6.2750  -10.2500 C.3   1299  IZD1299     0.0574
     26  C5        19.0120   -7.2610  -11.3200 C.ar  1299  IZD1299    -0.0200
     27  C30       18.3320   -8.5130  -10.9580 C.ar  1299  IZD1299    -0.0042
     28  C31       17.9810   -9.4780  -11.9960 C.ar  1299  IZD1299    -0.0003
     29  C6        18.3050   -9.1930  -13.4040 C.ar  1299  IZD1299    -0.0000
     30  C33       18.9900   -7.9430  -13.7700 C.ar  1299  IZD1299    -0.0003
     31  C34       19.3470   -6.9780  -12.7290 C.ar  1299  IZD1299    -0.0042
     32  C67       17.1950   -3.8710  -11.6780 C.2   1299  IZD1299     0.2423
     33  O70       16.1030   -4.3900  -11.3950 O.2   1299  IZD1299    -0.2733
     34  C71       17.2840   -2.8710  -12.8180 C.3   1299  IZD1299     0.0964
@<TRIPOS>BOND
     1    30    29   ar
     2    30    31   ar
     3    29    28   ar
     4    34    32    1
     5    31    26   ar
     6    28    27   ar
     7    32    33    2
     8    32    24   am
     9    26    27   ar
    10    26    25    1
    11    24    22    1
    12    25    22    1
    13    22    21    1
    14    21    23    2
    15    21    20   am
    16    20    16    1
    17    16    17    1
    18    16    15    1
    19    19    17   am
    20    17    18    2
    21    15    12    1
    22    13    12   ar
    23    13    14   ar
    24    12    11   ar
    25    14     9   ar
    26    11    10   ar
    27     9    10   ar
    28     9     1    1
    29     6     5    2
    30     1     5    1
    31     1     2    1
    32     7     5    2
    33     5     4    1
    34     2     3    1
    35     4     3    2
    36     3     8    2
