@<TRIPOS>MOLECULE
2cm8_F16_A_1.pdb
 15 16 0 0 0
SMALL
GASTEIGER

@<TRIPOS>ATOM
      1  C1        46.4620   15.4340    3.9400 C.2   1299  F161299     0.1416
      2  C3        47.6680   16.1830    3.7160 C.2   1299  F161299     0.1157
      3  C4        47.8320   17.0770    4.8510 C.1   1299  F161299     0.1743
      4  N5        46.8430   17.0340    5.8710 N.2   1299  F161299    -0.0526
      5  S6        45.6240   15.8500    5.4680 S.O2  1299  F161299     0.1102
      6  O7        44.0340   16.5070    5.1850 O.2   1299  F161299    -0.1456
      7  O8        45.6450   14.4680    6.4180 O.2   1299  F161299    -0.1456
      8  O9        48.7880   17.8380    4.9280 O.2   1299  F161299    -0.2206
      9  C10       45.9650   14.4120    3.0230 C.ar  1299  F161299     0.0231
     10  C11       44.7520   14.6610    2.2320 C.ar  1299  F161299     0.0016
     11  C12       44.2480   13.6250    1.3130 C.ar  1299  F161299     0.0033
     12  C13       44.9570   12.3400    1.1850 C.ar  1299  F161299     0.0420
     13  C14       46.1700   12.0930    1.9760 C.ar  1299  F161299     0.1958
     14  C15       46.6780   13.1250    2.8950 C.ar  1299  F161299     0.0434
     15  O1        46.8200   10.9240    1.8610 O.3   1299  F161299    -0.2866
@<TRIPOS>BOND
     1    12    11   ar
     2    12    13   ar
     3    11    10   ar
     4    15    13    1
     5    13    14   ar
     6    10     9   ar
     7    14     9   ar
     8     9     1    1
     9     2     1    2
    10     2     3    1
    11     1     5    1
    12     3     8    2
    13     3     4    2
    14     6     5    2
    15     5     4    1
    16     5     7    2
