@<TRIPOS>MOLECULE
2cm9_RCL_A_1.pdb
 21 20 0 0 0
SMALL
GASTEIGER

@<TRIPOS>ATOM
      1  O1        14.3060    0.5110  -16.3940 O.co2 1169  RCL1169    -0.2457
      2  C1        15.5450    0.3520  -16.7970 C.2   1169  RCL1169     0.3649
      3  O2        16.0280    1.1140  -17.6080 O.co2 1169  RCL1169    -0.2457
      4  C2        16.3890   -0.8070  -16.2350 C.3   1169  RCL1169     0.1141
      5  C3        16.7120   -0.5110  -14.7600 C.3   1169  RCL1169     0.0118
      6  C4        15.3920   -0.3630  -13.9820 C.3   1169  RCL1169     0.0006
      7  C5        15.7010    0.1150  -12.5520 C.3   1169  RCL1169     0.0000
      8  C6        15.2330   -0.9630  -11.5580 C.3   1169  RCL1169     0.0003
      9  C7        15.8150   -0.6560  -10.1650 C.3   1169  RCL1169     0.0047
     10  C8        16.1320   -1.9900   -9.4600 C.3   1169  RCL1169     0.0257
     11  C9        16.0870   -1.7980   -7.9620 C.2   1169  RCL1169    -0.0306
     12  C10       16.2560   -2.8500   -7.1520 C.2   1169  RCL1169    -0.0281
     13  C11       16.4790   -4.2320   -7.7400 C.3   1169  RCL1169     0.0585
     14  C12       17.5320   -4.9900   -6.9090 C.3   1169  RCL1169     0.1563
     15  O12       16.9130   -5.5530   -5.7370 O.3   1169  RCL1169    -0.2228
     16  C13       18.6250   -4.0040   -6.4700 C.3   1169  RCL1169     0.0332
     17  C14       19.9760   -4.4950   -7.0140 C.3   1169  RCL1169     0.0026
     18  C15       21.0960   -3.9990   -6.0820 C.3   1169  RCL1169     0.0001
     19  C16       21.9610   -2.9870   -6.8530 C.3   1169  RCL1169     0.0000
     20  C17       23.1270   -2.5310   -5.9550 C.3   1169  RCL1169     0.0000
     21  C18       22.6860   -1.3000   -5.1440 C.3   1169  RCL1169     0.0000
@<TRIPOS>BOND
     1     3     2   ar
     2     2     1   ar
     3     2     4    1
     4     4     5    1
     5     5     6    1
     6     6     7    1
     7     7     8    1
     8     8     9    1
     9     9    10    1
    10    10    11    1
    11    11    12    2
    12    13    12    1
    13    13    14    1
    14    17    16    1
    15    17    18    1
    16    14    16    1
    17    14    15    1
    18    19    18    1
    19    19    20    1
    20    20    21    1
