@<TRIPOS>MOLECULE
2cma_F20_A_1.pdb
 39 42 0 0 0
SMALL
GASTEIGER

@<TRIPOS>ATOM
      1  C1        16.7790   -1.1930   -0.4460 C.3   1299  F201299     0.1923
      2  C2        17.5500   -1.6890    0.7400 C.3   1299  F201299     0.1535
      3  C3        16.9930   -1.0620    1.9880 C.1   1299  F201299     0.1504
      4  N4        15.7280   -0.6420    1.8780 N.2   1299  F201299    -0.0608
      5  S5        15.1410   -1.0130    0.1980 S.O2  1299  F201299     0.0928
      6  O6        14.3360    0.1510   -0.6560 O.2   1299  F201299    -0.1499
      7  O7        14.4660   -2.5670    0.1630 O.2   1299  F201299    -0.1499
      8  O9        17.6160   -0.9280    3.0460 O.2   1299  F201299    -0.2253
      9  C11       16.8130   -2.0720   -1.6900 C.ar  1299  F201299     0.0025
     10  C12       16.9630   -3.5220   -1.5670 C.ar  1299  F201299    -0.0029
     11  C13       16.9930   -4.3510   -2.7730 C.ar  1299  F201299    -0.0045
     12  C14       16.8750   -3.7210   -4.0980 C.ar  1299  F201299    -0.0200
     13  C15       16.7360   -2.2790   -4.2140 C.ar  1299  F201299    -0.0045
     14  C16       16.7050   -1.4510   -3.0140 C.ar  1299  F201299    -0.0029
     15  C21       16.8980   -4.5750   -5.3470 C.3   1299  F201299     0.0575
     16  C22       18.1770   -4.4050   -6.1640 C.3   1299  F201299     0.1787
     17  C25       19.3620   -4.9870   -5.4220 C.2   1299  F201299     0.2809
     18  O26       20.1700   -4.2830   -4.8590 O.2   1299  F201299    -0.2698
     19  N27       19.5020   -6.3100   -5.4160 N.am  1299  F201299    -0.0863
     20  N45       18.0110   -5.1280   -7.4270 N.am  1299  F201299    -0.1959
     21  C47       18.5810   -4.5830   -8.4900 C.2   1299  F201299     0.2620
     22  C48       18.4160   -5.3010   -9.8150 C.3   1299  F201299     0.1773
     23  O49       19.1930   -3.5280   -8.3890 O.2   1299  F201299    -0.2715
     24  N51       18.6710   -4.4010  -10.9470 N.am  1299  F201299    -0.1937
     25  C4        19.3870   -6.4710   -9.9040 C.3   1299  F201299     0.0574
     26  C5        19.0540   -7.4340  -11.0120 C.ar  1299  F201299    -0.0200
     27  C30       18.2550   -8.6330  -10.7220 C.ar  1299  F201299    -0.0042
     28  C31       17.9330   -9.5760  -11.7980 C.ar  1299  F201299    -0.0003
     29  C6        18.4140   -9.3200  -13.1600 C.ar  1299  F201299    -0.0000
     30  C33       19.2080   -8.1140  -13.4540 C.ar  1299  F201299    -0.0003
     31  C34       19.5290   -7.1750  -12.3800 C.ar  1299  F201299    -0.0042
     32  C67       17.5200   -4.1500  -11.5670 C.2   1299  F201299     0.2652
     33  O70       16.4730   -4.6440  -11.1390 O.2   1299  F201299    -0.2684
     34  C71       17.4920   -3.2570  -12.7970 C.ar  1299  F201299     0.0551
     35  C74       16.3280   -2.3940  -13.0480 C.ar  1299  F201299     0.0046
     36  C75       16.3230   -1.4880  -14.2040 C.ar  1299  F201299     0.0001
     37  C76       17.4780   -1.4530  -15.1130 C.ar  1299  F201299     0.0000
     38  C77       18.6250   -2.3450  -14.8850 C.ar  1299  F201299     0.0001
     39  C78       18.6270   -3.2550  -13.7320 C.ar  1299  F201299     0.0046
@<TRIPOS>BOND
     1    37    38   ar
     2    37    36   ar
     3    38    39   ar
     4    36    35   ar
     5    39    34   ar
     6    30    29   ar
     7    30    31   ar
     8    29    28   ar
     9    35    34   ar
    10    34    32    1
    11    31    26   ar
    12    28    27   ar
    13    32    33    2
    14    32    24   am
    15    26    27   ar
    16    26    25    1
    17    24    22    1
    18    25    22    1
    19    22    21    1
    20    21    23    2
    21    21    20   am
    22    20    16    1
    23    16    17    1
    24    16    15    1
    25    17    19   am
    26    17    18    2
    27    15    12    1
    28    13    12   ar
    29    13    14   ar
    30    12    11   ar
    31    14     9   ar
    32    11    10   ar
    33     9    10   ar
    34     9     1    1
    35     6     5    2
    36     1     5    1
    37     1     2    1
    38     7     5    2
    39     5     4    1
    40     2     3    1
    41     4     3    2
    42     3     8    2
