@<TRIPOS>MOLECULE
2cmb_F17_A_1.pdb
 48 52 0 0 0
SMALL
GASTEIGER

@<TRIPOS>ATOM
      1  C1        12.1090   34.7750   14.6540 C.ar  1282  F171282     0.0011
      2  C2        11.4890   34.8390   13.4000 C.ar  1282  F171282     0.0199
      3  C3        12.2520   35.1000   12.2530 C.ar  1282  F171282     0.0011
      4  C4        13.6370   35.2890   12.3590 C.ar  1282  F171282    -0.0037
      5  C5        14.2580   35.2140   13.6130 C.ar  1282  F171282    -0.0130
      6  C6        13.4930   34.9630   14.7600 C.ar  1282  F171282    -0.0037
      7  C20       15.7630   35.3870   13.7280 C.3   1282  F171282     0.1131
      8  C21       16.2280   33.9220   13.6550 C.2   1282  F171282     0.2462
      9  O24       15.6280   33.0430   14.2720 O.2   1282  F171282    -0.2730
     10  N25       17.3090   33.6690   12.9150 N.am  1282  F171282    -0.1971
     11  C26       17.8290   32.2930   12.9130 C.3   1282  F171282     0.1770
     12  C27       19.2070   32.3860   13.5310 C.2   1282  F171282     0.2620
     13  O30       20.0390   33.1740   13.0870 O.2   1282  F171282    -0.2715
     14  N31       19.4480   31.5810   14.5730 N.am  1282  F171282    -0.1959
     15  C32       20.7900   31.6630   15.1500 C.3   1282  F171282     0.1787
     16  C33       21.8200   30.7320   14.4940 C.2   1282  F171282     0.2809
     17  O34       22.9450   31.1490   14.2010 O.2   1282  F171282    -0.2698
     18  C35       20.6330   31.3440   16.6410 C.3   1282  F171282     0.0575
     19  N40       21.4050   29.4750   14.2970 N.am  1282  F171282    -0.0863
     20  C43       18.5380   30.3450   11.4180 C.ar  1282  F171282    -0.0200
     21  C46       17.7440   29.2300   11.7190 C.ar  1282  F171282    -0.0042
     22  C47       18.2910   27.9440   11.6660 C.ar  1282  F171282    -0.0003
     23  C48       19.6370   27.7920   11.3100 C.ar  1282  F171282    -0.0000
     24  C49       20.4420   28.8960   11.0070 C.ar  1282  F171282    -0.0003
     25  C50       19.8840   30.1790   11.0630 C.ar  1282  F171282    -0.0042
     26  C7        17.9320   31.7530   11.4790 C.3   1282  F171282     0.0574
     27  C71       25.4900   31.5340   19.7980 C.2   1282  F171282     0.1415
     28  C72       26.8490   31.2240   19.5100 C.2   1282  F171282     0.1157
     29  C73       27.5610   31.3300   20.8210 C.1   1282  F171282     0.1743
     30  N74       26.8440   31.6780   21.9060 N.2   1282  F171282    -0.0526
     31  S75       25.3420   31.8850   21.4740 S.O2  1282  F171282     0.1102
     32  O67       24.9180   33.2260   21.6930 O.2   1282  F171282    -0.1456
     33  O77       24.4740   30.9430   22.1140 O.2   1282  F171282    -0.1456
     34  O78       28.7580   31.0540   20.8700 O.2   1282  F171282    -0.2206
     35  C61       24.2650   31.4950   18.9610 C.ar  1282  F171282     0.0199
     36  C62       23.6730   30.2640   18.6620 C.ar  1282  F171282     0.0010
     37  C63       22.4980   30.2170   17.9060 C.ar  1282  F171282    -0.0042
     38  C64       21.9110   31.4000   17.4470 C.ar  1282  F171282    -0.0200
     39  C65       22.5040   32.6370   17.7380 C.ar  1282  F171282    -0.0042
     40  C66       23.6840   32.6860   18.4980 C.ar  1282  F171282     0.0010
     41  C8         7.9750   33.6630   12.9000 C.1   1282  F171282     0.1743
     42  C9         9.4150   33.3630   12.8390 C.2   1282  F171282     0.1157
     43  C10       10.0140   34.5970   13.2780 C.2   1282  F171282     0.1415
     44  S1         8.8840   35.7510   13.6390 S.O2  1282  F171282     0.1102
     45  N1         7.5520   34.9050   13.3100 N.2   1282  F171282    -0.0526
     46  O1         7.2440   32.7400   12.5470 O.2   1282  F171282    -0.2206
     47  O2         9.0120   36.8900   12.7770 O.2   1282  F171282    -0.1456
     48  O3         8.9470   36.1200   15.0230 O.2   1282  F171282    -0.1456
@<TRIPOS>BOND
     1    24    25   ar
     2    24    23   ar
     3    25    20   ar
     4    23    22   ar
     5    20    26    1
     6    20    21   ar
     7    26    11    1
     8    22    21   ar
     9     3     4   ar
    10     3     2   ar
    11     4     5   ar
    12    46    41    2
    13    47    44    2
    14    42    41    1
    15    42    43    2
    16    41    45    2
    17    11    10    1
    18    11    12    1
    19    10     8   am
    20    13    12    2
    21    43     2    1
    22    43    44    1
    23    45    44    1
    24     2     1   ar
    25    12    14   am
    26     5     7    1
    27     5     6   ar
    28    44    48    2
    29     8     7    1
    30     8     9    2
    31    17    16    2
    32    19    16   am
    33    16    15    1
    34    14    15    1
    35     1     6   ar
    36    15    18    1
    37    18    38    1
    38    38    39   ar
    39    38    37   ar
    40    39    40   ar
    41    37    36   ar
    42    40    35   ar
    43    36    35   ar
    44    35    27    1
    45    28    27    2
    46    28    29    1
    47    27    31    1
    48    29    34    2
    49    29    30    2
    50    31    32    2
    51    31    30    1
    52    31    33    2
