@<TRIPOS>MOLECULE
2cmc_DFM_A_1.pdb
 33 34 0 0 0
SMALL
GASTEIGER

@<TRIPOS>ATOM
      1  C1        26.0720   31.4290   19.6100 C.3   1281  DFM1281     0.3249
      2  O6        25.1730   33.2820   21.6650 O.2   1281  DFM1281    -0.4543
      3  O7        24.5670   30.5810   21.9400 O.3   1281  DFM1281    -0.3533
      4  O9        27.2370   31.5510   22.2720 O.3   1281  DFM1281    -0.3533
      5  C11       24.9110   31.3600   18.7420 C.ar  1281  DFM1281     0.0444
      6  C12       24.5070   32.5990   18.1050 C.ar  1281  DFM1281     0.0011
      7  C13       23.3020   32.5620   17.2740 C.ar  1281  DFM1281    -0.0043
      8  C14       22.5770   31.3040   17.1090 C.ar  1281  DFM1281    -0.0200
      9  C15       22.9810   30.0390   17.7230 C.ar  1281  DFM1281    -0.0043
     10  C16       24.1920   30.0930   18.5560 C.ar  1281  DFM1281     0.0011
     11  C21       21.3350   31.2400   16.2410 C.3   1281  DFM1281     0.0575
     12  C22       21.5800   31.6810   14.7840 C.3   1281  DFM1281     0.1787
     13  C25       22.6220   30.7880   14.1050 C.2   1281  DFM1281     0.2809
     14  O26       23.7620   31.1880   13.8780 O.2   1281  DFM1281    -0.2698
     15  N27       22.2700   29.5400   13.7890 N.am  1281  DFM1281    -0.0863
     16  N45       20.2880   31.6360   14.0730 N.am  1281  DFM1281    -0.1959
     17  C47       20.0540   32.5190   13.1110 C.2   1281  DFM1281     0.2620
     18  C48       18.7670   32.3920   12.3350 C.3   1281  DFM1281     0.1770
     19  O49       20.8520   33.4120   12.8770 O.2   1281  DFM1281    -0.2715
     20  N51       18.1210   33.7080   12.3230 N.am  1281  DFM1281    -0.1974
     21  C4        19.0410   31.9870   10.8870 C.3   1281  DFM1281     0.0574
     22  C5        19.8140   30.6960   10.7650 C.ar  1281  DFM1281    -0.0200
     23  C30       19.1900   29.4410   11.1700 C.ar  1281  DFM1281    -0.0042
     24  C31       19.9620   28.2010   11.1100 C.ar  1281  DFM1281    -0.0003
     25  C6        21.3420   28.2970   10.6360 C.ar  1281  DFM1281    -0.0000
     26  C33       21.9730   29.5520   10.2210 C.ar  1281  DFM1281    -0.0003
     27  C34       21.1900   30.7910   10.2780 C.ar  1281  DFM1281    -0.0042
     28  C67       17.0130   33.9010   13.0310 C.2   1281  DFM1281     0.2423
     29  O70       16.3970   32.9360   13.5170 O.2   1281  DFM1281    -0.2733
     30  C71       16.4910   35.3100   13.2140 C.3   1281  DFM1281     0.0964
     31  F66       27.0840   32.4280   19.1320 F     1281  DFM1281    -0.1920
     32  F67       26.8280   30.1590   19.4610 F     1281  DFM1281    -0.1920
     33  P68       25.7440   31.7240   21.3980 P.3   1281  DFM1281     0.1831
@<TRIPOS>BOND
     1    26    27   ar
     2    26    25   ar
     3    27    22   ar
     4    25    24   ar
     5    22    21    1
     6    22    23   ar
     7    21    18    1
     8    24    23   ar
     9    20    18    1
    10    20    28   am
    11    18    17    1
    12    19    17    2
    13    28    30    1
    14    28    29    2
    15    17    16   am
    16    15    13   am
    17    14    13    2
    18    16    12    1
    19    13    12    1
    20    12    11    1
    21    11     8    1
    22     8     7   ar
    23     8     9   ar
    24     7     6   ar
    25     9    10   ar
    26     6     5   ar
    27    10     5   ar
    28     5     1    1
    29    31     1    1
    30    32     1    1
    31     1    33    1
    32    33     2    2
    33    33     3    1
    34    33     4    1
