@<TRIPOS>MOLECULE
2cmd_CIT_A_1.pdb
 15 14 0 0 0
SMALL
GASTEIGER

@<TRIPOS>ATOM
      1  C1         5.0960   -7.6980   15.7690 C.2   313  CIT313      0.3168
      2  O1         4.5650   -7.3140   16.7990 O.2   313  CIT313     -0.2502
      3  O2         5.5560   -8.9470   15.7340 O.3   313  CIT313     -0.4801
      4  C2         5.3160   -6.8540   14.5600 C.3   313  CIT313      0.1478
      5  C3         5.8300   -5.4300   14.9510 C.3   313  CIT313      0.2027
      6  O7         7.0100   -5.5630   15.7930 O.3   313  CIT313     -0.3755
      7  C4         6.2390   -4.7060   13.7100 C.3   313  CIT313      0.1525
      8  C5         7.3680   -5.4400   12.9720 C.2   313  CIT313      0.3678
      9  O3         8.4930   -5.4480   13.5070 O.co2 313  CIT313     -0.2455
     10  O4         7.2480   -5.6210   11.7300 O.co2 313  CIT313     -0.2455
     11  C6         4.7540   -4.6240   15.6550 C.2   313  CIT313      0.3893
     12  O5         5.0300   -3.9320   16.6890 O.co2 313  CIT313     -0.2430
     13  O6         3.6070   -4.6990   15.1790 O.co2 313  CIT313     -0.2430
     14  HO2        5.2930   -9.2820   14.8930 H     313  CIT313      0.2951
     15  HO7        7.0740   -6.5050   15.9510 H     313  CIT313      0.2110
@<TRIPOS>BOND
     1    10     8   ar
     2     8     9   ar
     3     8     7    1
     4     7     5    1
     5     4     5    1
     6     4     1    1
     7    14     3    1
     8     5    11    1
     9     5     6    1
    10    13    11   ar
    11    11    12   ar
    12     3     1    1
    13     1     2    2
    14     6    15    1
