@<TRIPOS>MOLECULE
2cmf_F11_A_1.pdb
 35 40 0 0 0
SMALL
GASTEIGER

@<TRIPOS>ATOM
      1  C1         2.6810   61.3490   70.9040 C.2   1536  F111536     0.1055
      2  C2         2.3550   62.6420   70.3940 C.2   1536  F111536     0.0147
      3  C3         3.3490   63.3290   69.4540 C.3   1536  F111536     0.0296
      4  C4         4.4740   62.4170   68.8940 C.3   1536  F111536     0.0052
      5  C5         5.1080   61.5750   70.0400 C.3   1536  F111536     0.0078
      6  C6         4.0090   60.6260   70.5830 C.3   1536  F111536     0.0587
      7  N7         1.7750   60.7160   71.7460 N.2   1536  F111536    -0.4102
      8  C8         0.5370   61.2540   72.1410 C.2   1536  F111536     0.1176
      9  C9         0.1790   62.5740   71.6560 C.3   1536  F111536     0.1112
     10  C10        1.1290   63.2700   70.7990 C.2   1536  F111536     0.0515
     11  N11        0.7260   64.5200   70.5170 N.pl3 1536  F111536    -0.2414
     12  C14       -1.1180   63.0830   72.0800 C.2   1536  F111536    -0.0137
     13  C15       -1.9500   62.3430   72.9190 C.2   1536  F111536    -0.0037
     14  C16       -1.5580   61.0380   73.4010 C.2   1536  F111536     0.0020
     15  C17       -0.3220   60.4970   73.0080 C.2   1536  F111536     0.0282
     16  C19        1.4380   69.1680   67.4270 C.3   1536  F111536     0.1118
     17  C20        1.1400   67.6800   67.4510 C.3   1536  F111536     0.0234
     18  C21        1.3180   67.1910   68.8680 C.3   1536  F111536     0.0036
     19  C24        0.1030   66.5030   69.3850 C.3   1536  F111536     0.0234
     20  C25        0.2530   65.0040   69.2530 C.3   1536  F111536     0.1118
     21  C26        5.1810   69.2610   64.0180 C.2   1536  F111536     0.1055
     22  C27        3.8250   69.1890   64.4150 C.2   1536  F111536     0.0147
     23  C28        2.8140   68.7040   63.4030 C.3   1536  F111536     0.0296
     24  C29        3.3870   67.9880   62.1990 C.3   1536  F111536     0.0052
     25  C30        4.4890   68.8380   61.6000 C.3   1536  F111536     0.0078
     26  C31        5.6450   68.9320   62.6300 C.3   1536  F111536     0.0587
     27  N32        6.1300   69.6630   64.9300 N.2   1536  F111536    -0.4102
     28  C33        5.8830   69.9980   66.2490 C.2   1536  F111536     0.1176
     29  C34        4.5120   69.9460   66.7380 C.3   1536  F111536     0.1112
     30  C35        3.4360   69.5740   65.7400 C.2   1536  F111536     0.0515
     31  N36        2.1020   69.6260   66.1850 N.pl3 1536  F111536    -0.2414
     32  C39        4.3660   70.3060   68.1340 C.2   1536  F111536    -0.0137
     33  C40        5.4600   70.6940   68.9400 C.2   1536  F111536    -0.0037
     34  C41        6.7980   70.7530   68.4120 C.2   1536  F111536     0.0020
     35  C42        7.0090   70.3990   67.0750 C.2   1536  F111536     0.0282
@<TRIPOS>BOND
     1    25    24    1
     2    25    26    1
     3    24    23    1
     4    26    21    1
     5    23    22    1
     6    21    22    1
     7    21    27    2
     8    22    30    2
     9    27    28    2
    10    30    31    1
    11    30    29    1
    12    31    16    1
    13    28    29    1
    14    28    35    1
    15    29    32    1
    16    35    34    2
    17    16    17    1
    18    17    18    1
    19    32    33    2
    20    34    33    1
    21    18    19    1
    22     4     3    1
    23     4     5    1
    24    20    19    1
    25    20    11    1
    26     3     2    1
    27     5     6    1
    28     2    10    2
    29     2     1    1
    30    11    10    1
    31     6     1    1
    32    10     9    1
    33     1     7    2
    34     9    12    1
    35     9     8    1
    36     7     8    2
    37    12    13    2
    38     8    15    1
    39    13    14    1
    40    15    14    2
