@<TRIPOS>MOLECULE
2cmj_NAP_A_1.pdb
 48 52 0 0 0
SMALL
GASTEIGER

@<TRIPOS>ATOM
      1  PA       -15.1650    8.1790   28.1810 P.3   1414  NAP1414     0.2189
      2  O1A      -15.1120    6.7870   27.6680 O.3   1414  NAP1414    -0.4371
      3  O2A      -14.1130    9.0110   27.5710 O.2   1414  NAP1414    -0.5170
      4  O5B      -14.9400    8.1520   29.7780 O.3   1414  NAP1414    -0.3112
      5  C5B      -15.9800    7.7970   30.6610 C.3   1414  NAP1414     0.1813
      6  C4B      -15.3930    7.1780   31.9180 C.3   1414  NAP1414     0.1820
      7  O4B      -15.0880    5.8240   31.6790 O.3   1414  NAP1414    -0.3136
      8  C3B      -14.0740    7.7650   32.4170 C.3   1414  NAP1414     0.2157
      9  O3B      -14.3050    8.9130   33.1750 O.3   1414  NAP1414    -0.2175
     10  C2B      -13.5260    6.5990   33.2190 C.3   1414  NAP1414     0.2314
     11  O2B      -14.2880    6.3310   34.3730 O.3   1414  NAP1414    -0.2630
     12  C1B      -13.8690    5.4390   32.3090 C.3   1414  NAP1414     0.3158
     13  N9A      -12.7810    5.2130   31.3250 N.pl3 1414  NAP1414    -0.1439
     14  C8A      -12.8790    5.3180   29.9500 C.3   1414  NAP1414     0.3377
     15  N7A      -11.6830    5.0170   29.4020 N.2   1414  NAP1414    -0.2095
     16  C5A      -10.8070    4.7230   30.3960 C.2   1414  NAP1414     0.2526
     17  C6A       -9.4640    4.3530   30.4040 C.2   1414  NAP1414     0.4393
     18  N6A       -8.7740    4.2420   29.2760 N.pl3 1414  NAP1414     0.2180
     19  N1A       -8.8300    4.1090   31.6170 N.2   1414  NAP1414     0.0021
     20  C2A       -9.5160    4.2150   32.8200 C.3   1414  NAP1414     0.5254
     21  N3A      -10.8510    4.5740   32.8030 N.2   1414  NAP1414    -0.0055
     22  C4A      -11.4870    4.8310   31.6190 C.2   1414  NAP1414     0.3518
     23  O3       -16.6650    8.7640   28.0290 O.3   1414  NAP1414    -0.2703
     24  PN       -17.2760   10.2420   28.2590 P.3   1414  NAP1414     0.2189
     25  O1N      -18.7570   10.0740   28.2240 O.2   1414  NAP1414    -0.5170
     26  O2N      -16.6420   10.9010   29.4340 O.3   1414  NAP1414    -0.4371
     27  O5D      -16.8350   11.0060   26.9290 O.3   1414  NAP1414    -0.3112
     28  C5D      -15.6850   11.8450   26.9170 C.3   1414  NAP1414     0.1813
     29  C4D      -15.4480   12.3560   25.5000 C.3   1414  NAP1414     0.1799
     30  O4D      -15.1360   11.2450   24.6780 O.3   1414  NAP1414    -0.3327
     31  C3D      -16.7030   12.9870   24.9310 C.3   1414  NAP1414     0.2158
     32  O3D      -16.3920   14.2440   24.3360 O.3   1414  NAP1414    -0.2175
     33  C2D      -17.2140   11.9640   23.9270 C.3   1414  NAP1414     0.2309
     34  O2D      -17.8090   12.5530   22.8030 O.3   1414  NAP1414    -0.2158
     35  C1D      -15.9520   11.2320   23.5210 C.3   1414  NAP1414     0.2263
     36  N1N      -16.1050    9.8200   23.1290 N.pl3 1414  NAP1414    -0.2787
     37  C2N      -15.4160    9.4230   22.0180 C.3   1414  NAP1414     0.1244
     38  C3N      -15.4440    8.1030   21.5910 C.2   1414  NAP1414     0.0544
     39  C7N      -14.5790    7.7100   20.4350 C.2   1414  NAP1414     0.2818
     40  O7N      -14.4720    6.3480   20.0910 O.2   1414  NAP1414    -0.2670
     41  N7N      -13.9400    8.6650   19.7790 N.am  1414  NAP1414    -0.0839
     42  C4N      -16.1760    7.1610   22.3280 C.2   1414  NAP1414     0.0033
     43  C5N      -16.8470    7.5560   23.4840 C.2   1414  NAP1414     0.0157
     44  C6N      -16.8030    8.8990   23.8800 C.2   1414  NAP1414     0.0633
     45  P2B      -14.0480    7.0510   35.7990 P.3   1414  NAP1414     0.5328
     46  O1X      -14.9640    6.4080   36.7980 O.3   1414  NAP1414    -0.1145
     47  O2X      -12.6130    6.8410   36.2030 O.3   1414  NAP1414    -0.1145
     48  O3X      -14.3250    8.5190   35.6360 O.2   1414  NAP1414    -0.2224
@<TRIPOS>BOND
     1    41    39   am
     2    40    39    2
     3    39    38    1
     4    38    37    1
     5    38    42    2
     6    37    36    1
     7    42    43    1
     8    34    33    1
     9    36    35    1
    10    36    44    1
    11    43    44    2
    12    35    33    1
    13    35    30    1
    14    33    31    1
    15    32    31    1
    16    30    29    1
    17    31    29    1
    18    29    28    1
    19    28    27    1
    20    27    24    1
    21     3     1    2
    22     2     1    1
    23    23     1    1
    24    23    24    1
    25     1     4    1
    26    25    24    2
    27    24    26    1
    28    18    17    1
    29    15    14    1
    30    15    16    2
    31     4     5    1
    32    14    13    1
    33    16    17    1
    34    16    22    1
    35    17    19    2
    36     5     6    1
    37    13    22    1
    38    13    12    1
    39    19    20    1
    40    22    21    2
    41     7     6    1
    42     7    12    1
    43     6     8    1
    44    12    10    1
    45     8     9    1
    46     8    10    1
    47    21    20    1
    48    10    11    1
    49    11    45    1
    50    48    45    2
    51    45    47    1
    52    45    46    1
