@<TRIPOS>MOLECULE
2cmk_CDP_A_1.pdb
 25 26 0 0 0
SMALL
GASTEIGER

@<TRIPOS>ATOM
      1  O3B       63.2230   54.7240   25.0160 O.2   407  CDP407     -0.2221
      2  PB        61.7650   54.9800   25.7810 P.3   407  CDP407      0.5373
      3  O1B       60.6790   54.0610   25.0720 O.3   407  CDP407     -0.1143
      4  O2B       61.8540   54.5610   27.3250 O.3   407  CDP407     -0.1143
      5  O3A       61.3600   56.6450   25.6960 O.3   407  CDP407     -0.2261
      6  PA        61.1180   57.4410   24.2320 P.3   407  CDP407      0.2231
      7  O1A       62.1510   56.9780   23.1910 O.2   407  CDP407     -0.5169
      8  O2A       61.1690   58.9710   24.4120 O.3   407  CDP407     -0.4370
      9  O5'       59.6280   57.1620   23.6080 O.3   407  CDP407     -0.3111
     10  C5'       58.9130   56.0870   24.1540 C.3   407  CDP407      0.1813
     11  C4'       57.9010   55.5260   23.2430 C.3   407  CDP407      0.1799
     12  O4'       57.7560   56.2580   22.0340 O.3   407  CDP407     -0.3320
     13  C3'       58.6640   54.2530   22.8520 C.3   407  CDP407      0.2158
     14  O3'       57.7760   53.1780   23.0860 O.3   407  CDP407     -0.2175
     15  C2'       58.9850   54.4200   21.3950 C.3   407  CDP407      0.2319
     16  O2'       58.8550   53.2380   20.6410 O.3   407  CDP407     -0.2157
     17  C1'       57.9650   55.4180   20.9270 C.3   407  CDP407      0.2400
     18  N1        58.4740   56.1940   19.7830 N.am  407  CDP407     -0.1778
     19  C2        58.1580   55.8840   18.4720 C.1   407  CDP407      0.2756
     20  O2        57.4520   54.9030   18.1980 O.2   407  CDP407     -0.1925
     21  N3        58.5760   56.6160   17.4130 N.2   407  CDP407     -0.3024
     22  C4        59.3400   57.7030   17.6410 C.2   407  CDP407      0.2346
     23  N4        59.7570   58.4310   16.6030 N.pl3 407  CDP407     -0.0921
     24  C5        59.6800   58.0540   18.9430 C.2   407  CDP407      0.0687
     25  C6        59.2240   57.2660   19.9670 C.2   407  CDP407      0.0836
@<TRIPOS>BOND
     1    23    22    1
     2    21    22    2
     3    21    19    2
     4    22    24    1
     5    20    19    2
     6    19    18   am
     7    24    25    2
     8    18    25    1
     9    18    17    1
    10    16    15    1
    11    17    15    1
    12    17    12    1
    13    15    13    1
    14    12    11    1
    15    13    14    1
    16    13    11    1
    17     7     6    2
    18    11    10    1
    19     9    10    1
    20     9     6    1
    21     6     8    1
    22     6     5    1
    23     1     2    2
    24     3     2    1
    25     5     2    1
    26     2     4    1
