@<TRIPOS>MOLECULE
2cml_ZMR_A_1.pdb
 23 23 0 0 0
SMALL
GASTEIGER

@<TRIPOS>ATOM
      1  C1        33.3280    9.7770   50.5190 C.2   1477  ZMR1477     0.4209
      2  O1A       32.5000   10.1950   51.3630 O.co2 1477  ZMR1477    -0.2371
      3  O1B       33.1810    9.9780   49.2750 O.co2 1477  ZMR1477    -0.2371
      4  C2        34.5380    9.0270   50.9250 C.2   1477  ZMR1477     0.2176
      5  C3        34.8560    8.5500   52.1350 C.2   1477  ZMR1477     0.0620
      6  C4        36.0860    7.6910   52.3200 C.3   1477  ZMR1477     0.2301
      7  C5        37.1800    8.0580   51.2950 C.3   1477  ZMR1477     0.1863
      8  N5        38.1390    6.9530   51.3310 N.am  1477  ZMR1477    -0.1990
      9  C10       39.3100    7.1320   51.9260 C.2   1477  ZMR1477     0.2421
     10  O10       39.6220    8.1960   52.4650 O.2   1477  ZMR1477    -0.2733
     11  C11       40.2400    5.9640   51.9040 C.3   1477  ZMR1477     0.0964
     12  C6        36.5780    8.0440   49.8870 C.3   1477  ZMR1477     0.2488
     13  O6        35.4020    8.8390   49.8300 O.2   1477  ZMR1477    -0.4634
     14  C7        37.3800    8.7130   48.7930 C.2   1477  ZMR1477     0.2248
     15  O7        38.0370    9.7150   49.0350 O.2   1477  ZMR1477    -0.2895
     16  C8        37.2170    8.2740   47.5280 C.3   1477  ZMR1477     0.2450
     17  O8        36.4460    7.2290   47.2300 O.3   1477  ZMR1477    -0.2121
     18  C9        37.9820    8.8910   46.3790 C.3   1477  ZMR1477     0.2225
     19  O9        39.0970    8.0210   46.0710 O.3   1477  ZMR1477    -0.2171
     20  NE        36.6840    7.8120   53.6420 N.pl3 1477  ZMR1477    -0.0835
     21  CZ        37.2210    6.7880   54.3520 C.cat 1477  ZMR1477     0.5348
     22  NH1       37.7920    7.0360   55.5510 N.pl3 1477  ZMR1477     0.1354
     23  NH2       37.2240    5.5300   53.8850 N.pl3 1477  ZMR1477     0.1354
@<TRIPOS>BOND
     1    19    18    1
     2    18    16    1
     3    17    16    1
     4    16    14    1
     5    14    15    2
     6    14    12    1
     7     3     1   ar
     8    13    12    1
     9    13     4    1
    10    12     7    1
    11     1     4    1
    12     1     2   ar
    13     4     5    2
    14     7     8    1
    15     7     6    1
    16     8     9   am
    17    11     9    1
    18     9    10    2
    19     5     6    1
    20     6    20    1
    21    20    21    2
    22    23    21    1
    23    21    22    1
