@<TRIPOS>MOLECULE
2cml_BMA_A_1.pdb
 11 11 0 0 0
SMALL
GASTEIGER

@<TRIPOS>ATOM
      1  C1         5.0040    0.0200   40.4090 C.3   1709  BMA1709     0.1777
      2  C2         4.0460    0.6370   39.3980 C.3   1709  BMA1709     0.2141
      3  C3         4.6340    0.2410   38.0280 C.3   1709  BMA1709     0.2173
      4  C4         6.0390    0.8920   37.8410 C.3   1709  BMA1709     0.2142
      5  C5         6.8800    0.3170   38.9860 C.3   1709  BMA1709     0.1810
      6  C6         8.3090    0.7820   39.0010 C.3   1709  BMA1709     0.2141
      7  O2         3.9320    2.0610   39.6550 O.3   1709  BMA1709    -0.2176
      8  O3         3.6450    0.3110   36.9560 O.3   1709  BMA1709    -0.2175
      9  O4         6.6990    0.5690   36.6090 O.3   1709  BMA1709    -0.2176
     10  O5         6.3180    0.6050   40.2750 O.3   1709  BMA1709    -0.3481
     11  O6         8.2860    1.9620   39.7860 O.3   1709  BMA1709    -0.2176
@<TRIPOS>BOND
     1     9     4    1
     2     8     3    1
     3     4     3    1
     4     4     5    1
     5     3     2    1
     6     5     6    1
     7     5    10    1
     8     6    11    1
     9     2     7    1
    10     2     1    1
    11    10     1    1
