@<TRIPOS>MOLECULE
2cml_MAN_A_1.pdb
 11 11 0 0 0
SMALL
GASTEIGER

@<TRIPOS>ATOM
      1  C1        10.1710    2.8070   39.8430 C.3   1485  MAN1485     0.1777
      2  C2        10.0090    4.1490   40.5230 C.3   1485  MAN1485     0.2141
      3  C3         9.1710    5.1540   39.6930 C.3   1485  MAN1485     0.2173
      4  C4         9.6360    5.2320   38.2350 C.3   1485  MAN1485     0.2142
      5  C5         9.5240    3.7860   37.7170 C.3   1485  MAN1485     0.1810
      6  C6         9.8910    3.6800   36.2460 C.3   1485  MAN1485     0.2141
      7  O2        11.3190    4.6100   40.8740 O.3   1485  MAN1485    -0.2176
      8  O3         9.1850    6.4280   40.3170 O.3   1485  MAN1485    -0.2175
      9  O4         8.9500    6.2120   37.4150 O.3   1485  MAN1485    -0.2176
     10  O5        10.4310    2.9520   38.4570 O.3   1485  MAN1485    -0.3481
     11  O6        11.1150    4.4080   36.2010 O.3   1485  MAN1485    -0.2176
@<TRIPOS>BOND
     1    11     6    1
     2     6     5    1
     3     9     4    1
     4     5     4    1
     5     5    10    1
     6     4     3    1
     7    10     1    1
     8     3     8    1
     9     3     2    1
    10     1     2    1
    11     2     7    1
