@<TRIPOS>MOLECULE
2cmm_POR_A_1.pdb
 25 32 0 0 0
SMALL
GASTEIGER

@<TRIPOS>ATOM
      1 FE         23.3650   35.8330   16.6730 Fe    155  POR155      0.0000
      2  CHA       22.9590   39.1910   17.1830 C.2   155  POR155      0.0000
      3  CHB       21.0280   35.1690   19.0550 C.2   155  POR155      0.0000
      4  CHC       23.6620   32.4350   16.0300 C.2   155  POR155      0.0000
      5  CHD       25.6540   36.4570   14.2980 C.2   155  POR155      0.0000
      6  NA        22.2990   36.9510   17.9530 N.2   155  POR155      0.0000
      7  C1A       22.3020   38.3510   18.0190 C.2   155  POR155      0.0000
      8  C2A       21.2940   38.7570   18.9710 C.2   155  POR155      0.0000
      9  C3A       20.6910   37.6470   19.3500 C.2   155  POR155      0.0000
     10  C4A       21.5090   36.5010   19.0130 C.2   155  POR155      0.0000
     11  NB        22.6020   34.1560   17.4630 N.ar  155  POR155      0.0000
     12  C1B       21.4840   34.1040   18.2990 C.ar  155  POR155      0.0000
     13  C2B       21.4090   32.7050   18.7390 C.ar  155  POR155      0.0000
     14  C3B       22.0030   31.9590   17.7910 C.ar  155  POR155      0.0000
     15  C4B       22.8960   32.8300   17.1250 C.ar  155  POR155      0.0000
     16  NC        24.3960   34.6910   15.3600 N.2   155  POR155      0.0000
     17  C1C       24.4590   33.2830   15.3040 C.2   155  POR155      0.0000
     18  C2C       25.6380   32.9020   14.5700 C.2   155  POR155      0.0000
     19  C3C       26.1030   34.0220   13.9580 C.2   155  POR155      0.0000
     20  C4C       25.4360   35.1460   14.5710 C.2   155  POR155      0.0000
     21  ND        24.1010   37.4760   15.8310 N.ar  155  POR155      0.0000
     22  C1D       25.1640   37.5360   14.9390 C.ar  155  POR155      0.0000
     23  C2D       25.6410   38.8730   14.8140 C.ar  155  POR155      0.0000
     24  C3D       24.8690   39.6140   15.6490 C.ar  155  POR155      0.0000
     25  C4D       23.8030   38.7880   16.1620 C.ar  155  POR155      0.0000
@<TRIPOS>BOND
     1    19    18    2
     2    19    20    1
     3     5    20    1
     4     5    22    2
     5    18    17    1
     6    20    16    2
     7    23    22   ar
     8    23    24   ar
     9    22    21   ar
    10    17    16    1
    11    17     4    2
    12    16     1    1
    13    24    25   ar
    14    21    25   ar
    15    21     1    1
    16     4    15    1
    17    25     2    2
    18     1    11    1
    19     1     6    1
    20    15    11   ar
    21    15    14   ar
    22     2     7    1
    23    11    12   ar
    24    14    13   ar
    25     6     7    2
    26     6    10    1
    27     7     8    1
    28    12    13   ar
    29    12     3    1
    30     8     9    2
    31    10     3    2
    32    10     9    1
