@<TRIPOS>MOLECULE
2cmn_HEM_A_1.pdb
 43 50 0 0 0
SMALL
GASTEIGER

@<TRIPOS>ATOM
      1 FE         48.0660   55.7860   33.6930 Fe    1271  HEM1271     0.0000
      2  CHA       45.0340   54.2910   32.8840 C.2   1271  HEM1271     0.0000
      3  CHB       49.4700   54.3190   30.9070 C.2   1271  HEM1271     0.0000
      4  CHC       51.1910   56.4810   34.9340 C.2   1271  HEM1271     0.0000
      5  CHD       46.6430   57.0410   36.6200 C.2   1271  HEM1271     0.0000
      6  NA        47.3830   54.5460   32.1510 N.ar  1271  HEM1271     0.0000
      7  C1A       46.1200   53.9800   32.0780 C.ar  1271  HEM1271     0.0000
      8  C2A       46.1160   53.0450   30.9470 C.ar  1271  HEM1271     0.0000
      9  C3A       47.3480   53.0550   30.3880 C.ar  1271  HEM1271     0.0000
     10  C4A       48.1570   53.9990   31.1370 C.ar  1271  HEM1271     0.0000
     11  CMA       47.8350   52.2170   29.1790 C.3   1271  HEM1271     0.0000
     12  CAA       44.8860   52.1690   30.5450 C.3   1271  HEM1271     0.0000
     13  CBA       44.2530   52.4760   29.1970 C.3   1271  HEM1271     0.0000
     14  CGA       43.5760   51.2230   28.6890 C.2   1271  HEM1271     0.0000
     15  O1A       42.4240   51.3150   28.2050 O.co2 1271  HEM1271     0.0000
     16  O2A       44.1740   50.1180   28.7520 O.co2 1271  HEM1271     0.0000
     17  NB        50.0000   55.4170   33.0600 N.2   1271  HEM1271     0.0000
     18  C1B       50.3340   54.9070   31.8160 C.2   1271  HEM1271     0.0000
     19  C2B       51.7440   55.1250   31.6140 C.2   1271  HEM1271     0.0000
     20  C3B       52.2360   55.7160   32.7170 C.2   1271  HEM1271     0.0000
     21  C4B       51.1380   55.9060   33.6620 C.2   1271  HEM1271     0.0000
     22  CMB       52.5050   54.7350   30.3140 C.3   1271  HEM1271     0.0000
     23  CAB       53.7140   56.1270   32.9250 C.2   1271  HEM1271     0.0000
     24  CBB       54.1200   57.0870   33.7730 C.2   1271  HEM1271     0.0000
     25  NC        48.7900   56.6160   35.4500 N.ar  1271  HEM1271     0.0000
     26  C1C       50.1200   56.7650   35.7720 C.ar  1271  HEM1271     0.0000
     27  C2C       50.1880   57.2540   37.1290 C.ar  1271  HEM1271     0.0000
     28  C3C       48.9230   57.3980   37.5930 C.ar  1271  HEM1271     0.0000
     29  C4C       48.0270   57.0110   36.5330 C.ar  1271  HEM1271     0.0000
     30  CMC       51.5160   57.5330   37.8880 C.3   1271  HEM1271     0.0000
     31  CAC       48.3940   57.8510   38.9860 C.2   1271  HEM1271     0.0000
     32  CBC       49.0590   58.7250   39.7370 C.2   1271  HEM1271     0.0000
     33  ND        46.1410   55.6660   34.6180 N.2   1271  HEM1271     0.0000
     34  C1D       45.7880   56.3610   35.7710 C.2   1271  HEM1271     0.0000
     35  C2D       44.3660   56.2770   35.9520 C.2   1271  HEM1271     0.0000
     36  C3D       43.8410   55.4280   34.7950 C.2   1271  HEM1271     0.0000
     37  C4D       45.0200   55.0900   34.0150 C.2   1271  HEM1271     0.0000
     38  CMD       43.5720   56.9200   37.0900 C.3   1271  HEM1271     0.0000
     39  CAD       42.3670   55.0380   34.5290 C.3   1271  HEM1271     0.0000
     40  CBD       42.0030   53.8250   35.3960 C.3   1271  HEM1271     0.0000
     41  CGD       42.1860   52.4890   34.7020 C.2   1271  HEM1271     0.0000
     42  O1D       42.4690   51.4820   35.4200 O.co2 1271  HEM1271     0.0000
     43  O2D       42.0410   52.4020   33.4530 O.co2 1271  HEM1271     0.0000
@<TRIPOS>BOND
     1    15    14   ar
     2    14    16   ar
     3    14    13    1
     4    11     9    1
     5    13    12    1
     6    22    19    1
     7     9     8   ar
     8     9    10   ar
     9    12     8    1
    10     3    10    2
    11     3    18    1
    12     8     7   ar
    13    10     6   ar
    14    19    18    1
    15    19    20    2
    16    18    17    2
    17     7     6   ar
    18     7     2    2
    19     6     1    1
    20    20    23    1
    21    20    21    1
    22     2    37    1
    23    23    24    2
    24    17    21    1
    25    17     1    1
    26    43    41   ar
    27    21     4    2
    28     1    33    1
    29     1    25    1
    30    37    33    2
    31    37    36    1
    32    39    36    1
    33    39    40    1
    34    33    34    1
    35    41    40    1
    36    41    42   ar
    37    36    35    2
    38     4    26    1
    39    25    26   ar
    40    25    29   ar
    41    34    35    1
    42    34     5    2
    43    26    27   ar
    44    35    38    1
    45    29     5    1
    46    29    28   ar
    47    27    28   ar
    48    27    30    1
    49    28    31    1
    50    31    32    2
