@<TRIPOS>MOLECULE
2cmo_M1L_A_1.pdb
 36 39 0 0 0
SMALL
GASTEIGER

@<TRIPOS>ATOM
      1  C1         3.8380   30.6400   25.6870 C.3   1112  M1L1112     0.0398
      2  C2         5.6850   28.9420   22.6550 C.2   1112  M1L1112    -0.0130
      3  C3         6.1790   30.0820   21.9990 C.2   1112  M1L1112     0.0597
      4  C4         5.9460   31.3830   22.5080 C.2   1112  M1L1112     0.1431
      5  C5         5.1940   31.6010   23.6910 C.2   1112  M1L1112     0.0173
      6  C6         4.6660   30.4370   24.3900 C.2   1112  M1L1112    -0.0352
      7  C7         4.9180   29.0890   23.8560 C.3   1112  M1L1112     0.0625
      8  C8         3.5040   32.1040   26.0480 C.3   1112  M1L1112     0.0768
      9  N1         4.6560   33.0140   25.6950 N.3   1112  M1L1112    -0.2674
     10  C10        4.9440   32.9920   24.2180 C.3   1112  M1L1112     0.1012
     11  N2         6.5350   32.3450   21.6870 N.2   1112  M1L1112    -0.3319
     12  C11        7.1810   31.7660   20.6180 C.1   1112  M1L1112     0.2262
     13  O1         7.7900   32.3090   19.7210 O.2   1112  M1L1112    -0.2076
     14  C12        6.9820   30.2470   20.7710 C.2   1112  M1L1112     0.2152
     15  N3         7.4860   29.4200   19.8840 N.2   1112  M1L1112    -0.0695
     16  C13        4.4010   34.4110   26.1520 C.3   1112  M1L1112     0.0899
     17  C14        4.5370   26.1010   26.2450 C.ar  1112  M1L1112     0.0196
     18  C15        5.0480   27.2880   25.6510 C.ar  1112  M1L1112    -0.0023
     19  C16        4.4120   27.8530   24.4930 C.ar  1112  M1L1112    -0.0146
     20  C17        3.2580   27.1970   23.9500 C.ar  1112  M1L1112    -0.0023
     21  C18        2.7480   26.0140   24.5390 C.ar  1112  M1L1112     0.0196
     22  C19        3.3860   25.4690   25.6840 C.ar  1112  M1L1112     0.1222
     23  S1         2.7370   23.9890   26.4220 S.O2  1112  M1L1112     0.0634
     24  N4         3.4860   22.7780   25.5210 N.3   1112  M1L1112    -0.1526
     25  O2         1.3050   23.9500   26.1630 O.2   1112  M1L1112    -0.1528
     26  O3         3.2040   23.9260   27.7970 O.2   1112  M1L1112    -0.1528
     27  C20        2.7760   22.0550   24.4610 C.3   1112  M1L1112     0.1150
     28  C21        4.8800   22.3840   25.7470 C.3   1112  M1L1112     0.1150
     29  O4         7.2140   28.0640   20.1490 O.2   1112  M1L1112    -0.3687
     30  C22        7.8000   27.2240   19.1280 C.3   1112  M1L1112     0.3004
     31  C23        7.9200   25.7860   19.6740 C.3   1112  M1L1112     0.0939
     32  C24        8.7750   25.6810   20.9400 C.3   1112  M1L1112     0.1865
     33  O5        10.0190   26.3620   20.7750 O.3   1112  M1L1112    -0.2203
     34  C25        6.9130   27.2150   17.8580 C.2   1112  M1L1112     0.4069
     35  O6         7.5040   27.3820   16.7500 O.co2 1112  M1L1112    -0.2415
     36  O7         5.6620   27.0490   17.9910 O.co2 1112  M1L1112    -0.2415
@<TRIPOS>BOND
     1    35    34   ar
     2    34    36   ar
     3    34    30    1
     4    30    31    1
     5    30    29    1
     6    31    32    1
     7    13    12    2
     8    15    29    1
     9    15    14    2
    10    12    14    1
    11    12    11    2
    12    14     3    1
    13    33    32    1
    14    11     4    2
    15     3     4    1
    16     3     2    2
    17     4     5    1
    18     2     7    1
    19     5    10    1
    20     5     6    2
    21     7     6    1
    22     7    19    1
    23    20    19   ar
    24    20    21   ar
    25    10     9    1
    26     6     1    1
    27    27    24    1
    28    19    18   ar
    29    21    22   ar
    30    24    28    1
    31    24    23    1
    32    18    17   ar
    33    22    17   ar
    34    22    23    1
    35     1     8    1
    36     9     8    1
    37     9    16    1
    38    25    23    2
    39    23    26    2
