@<TRIPOS>MOLECULE
2cmo_GLU_B_1.pdb
 10 9 0 0 0
SMALL
GASTEIGER

@<TRIPOS>ATOM
      1  N         22.1740   56.2430   22.9280 N.3   1111  GLU1111    -0.1208
      2  CA        21.9210   57.6710   22.6770 C.3   1111  GLU1111     0.1949
      3  C         21.7110   57.9160   21.1910 C.2   1111  GLU1111     0.3819
      4  O         21.3850   59.0450   20.7970 O.co2 1111  GLU1111    -0.2441
      5  CB        23.0970   58.5060   23.1780 C.3   1111  GLU1111     0.0424
      6  CG        23.2570   58.5240   24.6890 C.3   1111  GLU1111     0.1161
      7  CD        22.1850   59.3430   25.3860 C.2   1111  GLU1111     0.3649
      8  OE1       22.1700   59.3550   26.6350 O.co2 1111  GLU1111    -0.2457
      9  OE2       21.3620   59.9790   24.6920 O.co2 1111  GLU1111    -0.2457
     10  OXT       21.8880   56.9570   20.4160 O.co2 1111  GLU1111    -0.2441
@<TRIPOS>BOND
     1    10     3   ar
     2     4     3   ar
     3     3     2    1
     4     2     1    1
     5     2     5    1
     6     5     6    1
     7     6     7    1
     8     9     7   ar
     9     7     8   ar
