@<TRIPOS>MOLECULE
2cmv_FLC_A_1.pdb
 13 12 0 0 0
SMALL
GASTEIGER

@<TRIPOS>ATOM
      1  CAC       -3.7120    4.0490   30.0440 C.2   1416  FLC1416     0.3680
      2  CA        -3.9140    5.3790   30.7080 C.3   1416  FLC1416     0.1560
      3  CB        -2.7930    6.3930   30.4740 C.3   1416  FLC1416     0.2402
      4  CBC       -1.4680    5.9090   30.9810 C.2   1416  FLC1416     0.3927
      5  CG        -3.2460    7.6330   31.2280 C.3   1416  FLC1416     0.1560
      6  CGC       -2.5550    8.9230   30.8940 C.2   1416  FLC1416     0.3680
      7  OA1       -2.9540    3.9540   29.0640 O.co2 1416  FLC1416    -0.2455
      8  OA2       -4.3330    3.0800   30.5150 O.co2 1416  FLC1416    -0.2455
      9  OB1       -1.4280    5.1700   32.0020 O.co2 1416  FLC1416    -0.2429
     10  OB2       -0.4710    6.2770   30.3090 O.co2 1416  FLC1416    -0.2429
     11  OG1       -2.3800    9.6330   31.8840 O.co2 1416  FLC1416    -0.2455
     12  OG2       -2.2270    9.2750   29.7310 O.co2 1416  FLC1416    -0.2455
     13  OHB       -2.5930    6.6480   29.0840 O.3   1416  FLC1416    -0.2129
@<TRIPOS>BOND
     1     7     1   ar
     2    13     3    1
     3    12     6   ar
     4     1     8   ar
     5     1     2    1
     6    10     4   ar
     7     3     2    1
     8     3     4    1
     9     3     5    1
    10     6     5    1
    11     6    11   ar
    12     4     9   ar
