@<TRIPOS>MOLECULE
2cmv_NAP_A_1.pdb
 48 52 0 0 0
SMALL
GASTEIGER

@<TRIPOS>ATOM
      1  PA        -6.4130    7.4220   21.9090 P.3   1415  NAP1415     0.2189
      2  O1A       -6.6150    6.0850   22.5300 O.3   1415  NAP1415    -0.4371
      3  O2A       -7.4730    8.3220   22.4050 O.2   1415  NAP1415    -0.5170
      4  O5B       -6.5070    7.3550   20.3030 O.3   1415  NAP1415    -0.3112
      5  C5B       -5.4770    6.8620   19.4820 C.3   1415  NAP1415     0.1813
      6  C4B       -6.1060    6.2530   18.2350 C.3   1415  NAP1415     0.1820
      7  O4B       -6.4980    4.9050   18.4740 O.3   1415  NAP1415    -0.3136
      8  C3B       -7.3740    6.9590   17.7160 C.3   1415  NAP1415     0.2157
      9  O3B       -7.1030    8.0920   16.8950 O.3   1415  NAP1415    -0.2175
     10  C2B       -8.0380    5.8180   16.9730 C.3   1415  NAP1415     0.2314
     11  O2B       -7.2540    5.5120   15.8410 O.3   1415  NAP1415    -0.2630
     12  C1B       -7.7500    4.6240   17.8580 C.3   1415  NAP1415     0.3158
     13  N9A       -8.8270    4.4470   18.8560 N.pl3 1415  NAP1415    -0.1439
     14  C8A       -8.7620    4.6590   20.2290 C.3   1415  NAP1415     0.3377
     15  N7A       -9.9760    4.3870   20.7710 N.2   1415  NAP1415    -0.2095
     16  C5A      -10.8090    3.9970   19.7640 C.2   1415  NAP1415     0.2526
     17  C6A      -12.1500    3.6130   19.7330 C.2   1415  NAP1415     0.4393
     18  N6A      -12.8460    3.4310   20.8520 N.pl3 1415  NAP1415     0.2180
     19  N1A      -12.7320    3.2860   18.5280 N.2   1415  NAP1415     0.0021
     20  C2A      -12.0060    3.3290   17.3460 C.3   1415  NAP1415     0.5254
     21  N3A      -10.6910    3.7150   17.3690 N.2   1415  NAP1415    -0.0055
     22  C4A      -10.1010    4.0340   18.5600 C.2   1415  NAP1415     0.3518
     23  O3        -4.9390    7.9360   22.1860 O.3   1415  NAP1415    -0.2703
     24  PN        -4.4090    9.3940   21.8100 P.3   1415  NAP1415     0.2189
     25  O1N       -2.9340    9.3790   21.7440 O.3   1415  NAP1415    -0.4371
     26  O2N       -5.1410    9.8640   20.6020 O.2   1415  NAP1415    -0.5170
     27  O5D       -4.8560   10.1870   23.1400 O.3   1415  NAP1415    -0.3112
     28  C5D       -5.8970   11.1310   23.1430 C.3   1415  NAP1415     0.1813
     29  C4D       -6.0600   11.7360   24.5260 C.3   1415  NAP1415     0.1799
     30  O4D       -6.5020   10.7550   25.4500 O.3   1415  NAP1415    -0.3327
     31  C3D       -4.7860   12.3290   25.1050 C.3   1415  NAP1415     0.2158
     32  O3D       -5.1770   13.5560   25.6790 O.3   1415  NAP1415    -0.2175
     33  C2D       -4.3330   11.3590   26.2040 C.3   1415  NAP1415     0.2309
     34  O2D       -3.8550   12.0050   27.3710 O.3   1415  NAP1415    -0.2158
     35  C1D       -5.6240   10.6830   26.5820 C.3   1415  NAP1415     0.2263
     36  N1N       -5.4860    9.2750   26.9940 N.pl3 1415  NAP1415    -0.2787
     37  C2N       -6.3050    8.8860   28.0280 C.3   1415  NAP1415     0.1244
     38  C3N       -6.3060    7.5720   28.4800 C.2   1415  NAP1415     0.0544
     39  C7N       -7.1400    7.2320   29.6840 C.2   1415  NAP1415     0.2818
     40  O7N       -7.3120    5.8920   30.0360 O.2   1415  NAP1415    -0.2670
     41  N7N       -7.7110    8.1940   30.3930 N.am  1415  NAP1415    -0.0839
     42  C4N       -5.4800    6.6330   27.8520 C.2   1415  NAP1415     0.0033
     43  C5N       -4.6630    7.0330   26.7920 C.2   1415  NAP1415     0.0157
     44  C6N       -4.6830    8.3660   26.3620 C.2   1415  NAP1415     0.0633
     45  P2B       -7.5000    6.1630   14.3900 P.3   1415  NAP1415     0.5328
     46  O1X       -6.5880    5.4180   13.4470 O.2   1415  NAP1415    -0.2224
     47  O2X       -8.9620    5.9450   14.0590 O.3   1415  NAP1415    -0.1145
     48  O3X       -7.1110    7.6270   14.3900 O.3   1415  NAP1415    -0.1145
@<TRIPOS>BOND
     1    46    45    2
     2    47    45    1
     3    48    45    1
     4    45    11    1
     5    11    10    1
     6     9     8    1
     7    10     8    1
     8    10    12    1
     9    20    21    1
    10    20    19    1
    11    21    22    2
    12     8     6    1
    13    12     7    1
    14    12    13    1
    15     6     7    1
    16     6     5    1
    17    19    17    2
    18    22    13    1
    19    22    16    1
    20    13    14    1
    21     5     4    1
    22    17    16    1
    23    17    18    1
    24    16    15    2
    25    14    15    1
    26     4     1    1
    27    26    24    2
    28    25    24    1
    29    24    23    1
    30    24    27    1
    31     1    23    1
    32     1     3    2
    33     1     2    1
    34    27    28    1
    35    28    29    1
    36    29    31    1
    37    29    30    1
    38    31    32    1
    39    31    33    1
    40    30    35    1
    41    33    35    1
    42    33    34    1
    43    44    43    2
    44    44    36    1
    45    35    36    1
    46    43    42    1
    47    36    37    1
    48    42    38    2
    49    37    38    1
    50    38    39    1
    51    39    40    2
    52    39    41   am
