@<TRIPOS>MOLECULE
2cmw_OLP_A_1.pdb
 24 26 0 0 0
SMALL
GASTEIGER

@<TRIPOS>ATOM
      1  CAH       30.6960   48.0310    2.4420 C.ar  1340  OLP1340     0.0280
      2  CAQ       31.8280   47.7950    1.6530 C.ar  1340  OLP1340     0.0590
      3 CL         32.4770   49.0750    0.7280 Cl    1340  OLP1340    -0.0822
      4  CAF       32.3760   46.5200    1.6290 C.ar  1340  OLP1340     0.0115
      5  CAE       31.8520   45.4770    2.3640 C.ar  1340  OLP1340     0.0022
      6  CAG       30.7260   45.7220    3.1550 C.ar  1340  OLP1340     0.0166
      7  CAR       30.1560   46.9860    3.2110 C.ar  1340  OLP1340     0.0740
      8  N6        29.0050   47.1790    3.9830 N.pl3 1340  OLP1340    -0.1814
      9  C6        28.9020   46.8650    5.2790 C.2   1340  OLP1340     0.2383
     10  N1        29.9420   46.3840    5.9940 N.2   1340  OLP1340    -0.3081
     11  C5        27.6760   47.0360    5.9720 C.2   1340  OLP1340     0.1693
     12  N7        26.4490   47.5120    5.6050 N.2   1340  OLP1340    -0.2402
     13  C8        25.6540   47.4550    6.6910 C.3   1340  OLP1340     0.2220
     14  N9        26.3910   47.0060    7.7410 N.pl3 1340  OLP1340    -0.2624
     15  CAW       25.9230   46.7480    9.1260 C.3   1340  OLP1340     0.0770
     16  CAB       24.8170   47.7440    9.5880 C.3   1340  OLP1340     0.0216
     17  CAA       25.4850   45.2780    9.2670 C.3   1340  OLP1340     0.0216
     18  C4        27.6210   46.7190    7.3290 C.2   1340  OLP1340     0.2197
     19  N3        28.7030   46.2410    8.0030 N.2   1340  OLP1340    -0.3099
     20  C2        29.8630   46.0790    7.3040 C.1   1340  OLP1340     0.2228
     21  N2        30.9460   45.6050    7.9600 N.pl3 1340  OLP1340    -0.1489
     22  CAK       32.1980   45.3730    7.2170 C.3   1340  OLP1340     0.1617
     23  CAJ       32.1690   43.9910    6.5860 C.3   1340  OLP1340     0.2063
     24  OAC       32.6850   44.0230    5.2800 O.3   1340  OLP1340    -0.2184
@<TRIPOS>BOND
     1     3     2    1
     2     4     2   ar
     3     4     5   ar
     4     2     1   ar
     5     5     6   ar
     6     1     7   ar
     7     6     7   ar
     8     7     8    1
     9     8     9    1
    10     9    11    1
    11     9    10    2
    12    24    23    1
    13    12    11    2
    14    12    13    1
    15    11    18    1
    16    10    20    2
    17    23    22    1
    18    13    14    1
    19    22    21    1
    20    20    21    1
    21    20    19    2
    22    18    14    1
    23    18    19    2
    24    14    15    1
    25    15    17    1
    26    15    16    1
