@<TRIPOS>MOLECULE
2cn3_GAL_A_1.pdb
 11 11 0 0 0
SMALL
GASTEIGER

@<TRIPOS>ATOM
      1  C1       -21.0770   54.7970   34.6860 C.3   1776  GAL1776     0.1777
      2  C2       -21.0060   53.4090   35.3490 C.3   1776  GAL1776     0.2141
      3  C3       -20.1380   53.4150   36.6130 C.3   1776  GAL1776     0.2173
      4  C4       -18.8310   54.1830   36.4040 C.3   1776  GAL1776     0.2142
      5  C5       -19.1160   55.5410   35.7600 C.3   1776  GAL1776     0.1810
      6  C6       -17.8500   56.3620   35.5440 C.3   1776  GAL1776     0.2141
      7  O2       -22.3030   52.9490   35.6740 O.3   1776  GAL1776    -0.2176
      8  O3       -19.8360   52.0830   36.9740 O.3   1776  GAL1776    -0.2175
      9  O4       -17.9750   53.4200   35.5760 O.3   1776  GAL1776    -0.2176
     10  O5       -19.7720   55.3400   34.5250 O.3   1776  GAL1776    -0.3481
     11  O6       -17.4850   56.9350   36.7820 O.3   1776  GAL1776    -0.2176
@<TRIPOS>BOND
     1    10     1    1
     2    10     5    1
     3     1     2    1
     4     2     7    1
     5     2     3    1
     6     6     5    1
     7     6    11    1
     8     9     4    1
     9     5     4    1
    10     4     3    1
    11     3     8    1
