@<TRIPOS>MOLECULE
2cn3_GLC_A_1.pdb
 12 12 0 0 0
SMALL
GASTEIGER

@<TRIPOS>ATOM
      1  C1       -26.9570   54.5170   25.9830 C.3   1769  GLC1769     0.3024
      2  C2       -26.4130   55.3990   27.1130 C.3   1769  GLC1769     0.2434
      3  C3       -24.8890   55.4700   27.0100 C.3   1769  GLC1769     0.2199
      4  C4       -24.2230   54.0910   26.8810 C.3   1769  GLC1769     0.2144
      5  C5       -24.9950   53.2360   25.8600 C.3   1769  GLC1769     0.1836
      6  C6       -24.5060   51.7940   25.7490 C.3   1769  GLC1769     0.2142
      7  O1       -28.3610   54.4000   26.0720 O.3   1769  GLC1769    -0.1869
      8  O2       -26.9350   56.7050   27.0100 O.3   1769  GLC1769    -0.2148
      9  O3       -24.3610   56.1880   28.1140 O.3   1769  GLC1769    -0.2174
     10  O4       -22.9260   54.3280   26.3690 O.3   1769  GLC1769    -0.2176
     11  O5       -26.3840   53.2350   26.1410 O.3   1769  GLC1769    -0.3236
     12  O6       -24.6470   51.1380   26.9900 O.3   1769  GLC1769    -0.2176
@<TRIPOS>BOND
     1     6     5    1
     2     6    12    1
     3     5    11    1
     4     5     4    1
     5     1     7    1
     6     1    11    1
     7     1     2    1
     8    10     4    1
     9     4     3    1
    10     3     2    1
    11     3     9    1
    12     8     2    1
