@<TRIPOS>MOLECULE
2cn3_BGC_A_1.pdb
 11 11 0 0 0
SMALL
GASTEIGER

@<TRIPOS>ATOM
      1  C2       -36.6920   49.9840   38.1270 C.3   1762  BGC1762     0.2141
      2  C3       -35.3640   49.6650   37.4460 C.3   1762  BGC1762     0.2173
      3  C4       -34.3950   50.8410   37.6050 C.3   1762  BGC1762     0.2142
      4  C5       -34.2970   51.2230   39.0810 C.3   1762  BGC1762     0.1810
      5  C6       -33.4080   52.4330   39.2920 C.3   1762  BGC1762     0.2141
      6  C1       -36.4420   50.3790   39.5850 C.3   1762  BGC1762     0.1777
      7  O2       -37.5490   48.8640   38.0640 O.3   1762  BGC1762    -0.2176
      8  O3       -35.5740   49.3650   36.0820 O.3   1762  BGC1762    -0.2175
      9  O4       -33.1040   50.4430   37.2170 O.3   1762  BGC1762    -0.2176
     10  O5       -35.5710   51.4950   39.6270 O.3   1762  BGC1762    -0.3481
     11  O6       -33.3320   52.6600   40.6810 O.3   1762  BGC1762    -0.2176
@<TRIPOS>BOND
     1     8     2    1
     2     9     3    1
     3     2     3    1
     4     2     1    1
     5     3     4    1
     6     7     1    1
     7     1     6    1
     8     4     5    1
     9     4    10    1
    10     5    11    1
    11     6    10    1
