@<TRIPOS>MOLECULE
2cn4_HEM_A_1.pdb
 43 50 0 0 0
SMALL
GASTEIGER

@<TRIPOS>ATOM
      1 FE        -17.5790   28.8300  -15.3370 Fe    1175  HEM1175     0.0000
      2  CHA      -20.0190   27.8290  -17.5860 C.2   1175  HEM1175     0.0000
      3  CHB      -16.0330   30.5840  -17.8370 C.2   1175  HEM1175     0.0000
      4  CHC      -14.8890   29.3870  -13.2630 C.2   1175  HEM1175     0.0000
      5  CHD      -19.2500   27.3140  -12.7600 C.2   1175  HEM1175     0.0000
      6  NA       -17.9430   29.1250  -17.3480 N.ar  1175  HEM1175     0.0000
      7  C1A      -19.0460   28.6830  -18.0620 C.ar  1175  HEM1175     0.0000
      8  C2A      -19.0030   29.2770  -19.3820 C.ar  1175  HEM1175     0.0000
      9  C3A      -17.9100   30.0300  -19.4490 C.ar  1175  HEM1175     0.0000
     10  C4A      -17.2130   29.9540  -18.1750 C.ar  1175  HEM1175     0.0000
     11  CMA      -17.4810   30.8410  -20.6870 C.3   1175  HEM1175     0.0000
     12  CAA      -20.0350   29.0720  -20.5160 C.3   1175  HEM1175     0.0000
     13  CBA      -19.4200   28.2890  -21.6720 C.3   1175  HEM1175     0.0000
     14  CGA      -20.4910   27.6450  -22.5310 C.2   1175  HEM1175     0.0000
     15  O1A      -21.5490   28.2850  -22.7600 O.co2 1175  HEM1175     0.0000
     16  O2A      -20.2990   26.4930  -22.9950 O.co2 1175  HEM1175     0.0000
     17  NB       -15.7790   29.7760  -15.5370 N.2   1175  HEM1175     0.0000
     18  C1B      -15.3620   30.4860  -16.6370 C.2   1175  HEM1175     0.0000
     19  C2B      -14.1050   31.1320  -16.3020 C.2   1175  HEM1175     0.0000
     20  C3B      -13.7910   30.8080  -15.0530 C.2   1175  HEM1175     0.0000
     21  C4B      -14.8360   29.9480  -14.5330 C.2   1175  HEM1175     0.0000
     22  CMB      -13.2530   32.0300  -17.2320 C.3   1175  HEM1175     0.0000
     23  CAB      -12.5220   31.2750  -14.3080 C.2   1175  HEM1175     0.0000
     24  CBB      -12.5800   31.5720  -13.0060 C.2   1175  HEM1175     0.0000
     25  NC       -17.1270   28.3840  -13.3830 N.ar  1175  HEM1175     0.0000
     26  C1C      -16.0010   28.7970  -12.6970 C.ar  1175  HEM1175     0.0000
     27  C2C      -16.1930   28.5040  -11.2890 C.ar  1175  HEM1175     0.0000
     28  C3C      -17.3880   27.9340  -11.1460 C.ar  1175  HEM1175     0.0000
     29  C4C      -18.0090   27.8450  -12.4640 C.ar  1175  HEM1175     0.0000
     30  CMC      -15.1950   28.7870  -10.1360 C.3   1175  HEM1175     0.0000
     31  CAC      -17.9660   27.5000   -9.7660 C.2   1175  HEM1175     0.0000
     32  CBC      -18.1240   26.2200   -9.4240 C.2   1175  HEM1175     0.0000
     33  ND       -19.3500   27.7130  -15.2020 N.2   1175  HEM1175     0.0000
     34  C1D      -19.8630   27.2250  -14.0050 C.2   1175  HEM1175     0.0000
     35  C2D      -21.1450   26.5990  -14.2740 C.2   1175  HEM1175     0.0000
     36  C3D      -21.3670   26.7610  -15.7950 C.2   1175  HEM1175     0.0000
     37  C4D      -20.2040   27.4670  -16.2710 C.2   1175  HEM1175     0.0000
     38  CMD      -22.0550   25.9280  -13.2170 C.3   1175  HEM1175     0.0000
     39  CAD      -22.5130   26.3660  -16.7630 C.3   1175  HEM1175     0.0000
     40  CBD      -23.7520   25.7990  -16.1090 C.3   1175  HEM1175     0.0000
     41  CGD      -24.8290   25.6440  -17.1580 C.2   1175  HEM1175     0.0000
     42  O1D      -25.1490   24.4740  -17.4960 O.co2 1175  HEM1175     0.0000
     43  O2D      -25.3760   26.6720  -17.6390 O.co2 1175  HEM1175     0.0000
@<TRIPOS>BOND
     1    16    14   ar
     2    15    14   ar
     3    14    13    1
     4    13    12    1
     5    11     9    1
     6    12     8    1
     7     9     8   ar
     8     9    10   ar
     9     8     7   ar
    10    10     3    2
    11    10     6   ar
    12     7     2    2
    13     7     6   ar
    14     3    18    1
    15    43    41   ar
    16     2    37    1
    17    42    41   ar
    18     6     1    1
    19    22    19    1
    20    41    40    1
    21    39    40    1
    22    39    36    1
    23    18    19    1
    24    18    17    2
    25    19    20    2
    26    37    36    1
    27    37    33    2
    28    36    35    2
    29    17     1    1
    30    17    21    1
    31     1    33    1
    32     1    25    1
    33    33    34    1
    34    20    21    1
    35    20    23    1
    36    21     4    2
    37    23    24    2
    38    35    34    1
    39    35    38    1
    40    34     5    2
    41    25    26   ar
    42    25    29   ar
    43     4    26    1
    44     5    29    1
    45    26    27   ar
    46    29    28   ar
    47    27    28   ar
    48    27    30    1
    49    28    31    1
    50    31    32    2
