@<TRIPOS>MOLECULE
2cn5_ADP_A_1.pdb
 27 29 0 0 0
SMALL
GASTEIGER

@<TRIPOS>ATOM
      1  PB        81.8450  -48.2620   14.4940 P.3   1509  ADP1509     0.5373
      2  O1B       80.9520  -47.3310   13.6960 O.2   1509  ADP1509    -0.2221
      3  O2B       83.2160  -48.4030   13.8600 O.3   1509  ADP1509    -0.1143
      4  O3B       81.2930  -49.5760   15.0050 O.3   1509  ADP1509    -0.1143
      5  PA        81.3620  -47.1580   17.2200 P.3   1509  ADP1509     0.2231
      6  O1A       80.4840  -48.3760   17.4320 O.3   1509  ADP1509    -0.4370
      7  O2A       80.7580  -45.7920   17.2530 O.2   1509  ADP1509    -0.5169
      8  O3A       82.2170  -47.3880   15.8480 O.3   1509  ADP1509    -0.2261
      9  O5'       82.5810  -47.2040   18.2670 O.3   1509  ADP1509    -0.3111
     10  C5'       83.4930  -48.3220   18.1920 C.3   1509  ADP1509     0.1813
     11  C4'       83.8860  -48.8170   19.5840 C.3   1509  ADP1509     0.1821
     12  O4'       84.6110  -47.7860   20.3190 O.3   1509  ADP1509    -0.3135
     13  C3'       82.7070  -49.1880   20.4750 C.3   1509  ADP1509     0.2184
     14  O3'       82.1850  -50.5030   20.2860 O.3   1509  ADP1509    -0.2174
     15  C2'       83.2680  -48.9520   21.8680 C.3   1509  ADP1509     0.2570
     16  O2'       83.9970  -50.0950   22.2800 O.3   1509  ADP1509    -0.2130
     17  C1'       84.2280  -47.7700   21.6920 C.3   1509  ADP1509     0.3186
     18  N9        83.4720  -46.5140   21.9320 N.pl3 1509  ADP1509    -0.1439
     19  C8        82.6930  -45.8780   21.0330 C.3   1509  ADP1509     0.3377
     20  N7        82.1260  -44.7820   21.5400 N.2   1509  ADP1509    -0.2095
     21  C5        82.5860  -44.6940   22.8100 C.2   1509  ADP1509     0.2526
     22  C6        82.3790  -43.7700   23.9220 C.2   1509  ADP1509     0.4393
     23  N6        81.5790  -42.6930   23.7460 N.pl3 1509  ADP1509     0.2180
     24  N1        83.0170  -44.0300   25.0840 N.2   1509  ADP1509     0.0021
     25  C2        83.8350  -45.0890   25.2650 C.3   1509  ADP1509     0.5254
     26  N3        84.0590  -45.9870   24.2940 N.2   1509  ADP1509    -0.0055
     27  C4        83.4730  -45.8280   23.0700 C.2   1509  ADP1509     0.3518
@<TRIPOS>BOND
     1     2     1    2
     2     3     1    1
     3     1     4    1
     4     1     8    1
     5     8     5    1
     6     5     7    2
     7     5     6    1
     8     5     9    1
     9    10     9    1
    10    10    11    1
    11    11    12    1
    12    11    13    1
    13    14    13    1
    14    12    17    1
    15    13    15    1
    16    19    20    1
    17    19    18    1
    18    20    21    2
    19    17    15    1
    20    17    18    1
    21    15    16    1
    22    18    27    1
    23    21    27    1
    24    21    22    1
    25    27    26    2
    26    23    22    1
    27    22    24    2
    28    26    25    1
    29    24    25    1
