@<TRIPOS>MOLECULE
2cn8_DBQ_A_1.pdb
 18 20 0 0 0
SMALL
GASTEIGER

@<TRIPOS>ATOM
      1  O1       -13.7570   47.1530   10.5760 O.2   1506  DBQ1506    -0.2207
      2  C5       -13.7220   46.6870    9.4630 C.1   1506  DBQ1506     0.1675
      3  N2       -14.8750   46.3520    8.8530 N.2   1506  DBQ1506    -0.2013
      4  C6       -15.1450   45.7880    7.5560 C.3   1506  DBQ1506     0.1387
      5  C7       -14.2640   46.3260    6.4500 C.3   1506  DBQ1506     0.0395
      6  C4       -12.3650   46.5790    8.9350 C.2   1506  DBQ1506     0.1549
      7  N1       -11.3060   46.8500    9.6900 N.2   1506  DBQ1506    -0.2545
      8  C1       -10.1040   46.9130    8.8400 C.3   1506  DBQ1506     0.1522
      9  C2       -10.5270   46.4480    7.4510 C.2   1506  DBQ1506    -0.0017
     10  C3       -11.9940   46.2590    7.6900 C.2   1506  DBQ1506     0.0111
     11  C8       -12.8700   45.7750    6.6520 C.3   1506  DBQ1506     0.0922
     12  C9       -12.3450   44.7100    5.7660 C.2   1506  DBQ1506     0.2204
     13  N4       -11.1510   44.0540    5.6930 N.2   1506  DBQ1506    -0.3165
     14  C11      -11.3070   43.2100    4.6450 C.1   1506  DBQ1506     0.2523
     15  N5       -10.3070   42.3740    4.2860 N.pl3 1506  DBQ1506    -0.0226
     16  N3       -12.4590   43.2380    3.9790 N.2   1506  DBQ1506    -0.2479
     17  C10      -13.1260   44.1760    4.6640 C.1   1506  DBQ1506     0.2428
     18  O2       -14.3130   44.5980    4.4590 O.2   1506  DBQ1506    -0.2062
@<TRIPOS>BOND
     1    16    14    2
     2    16    17    2
     3    15    14    1
     4    18    17    2
     5    14    13    2
     6    17    12    1
     7    13    12    2
     8    12    11    1
     9     5    11    1
    10     5     4    1
    11    11    10    1
    12     9    10    2
    13     9     8    1
    14     4     3    1
    15    10     6    1
    16     8     7    1
    17     3     2    2
    18     6     2    1
    19     6     7    2
    20     2     1    2
