@<TRIPOS>MOLECULE
2cnb_UFG_A_1.pdb
 36 38 0 0 0
SMALL
GASTEIGER

@<TRIPOS>ATOM
      1  N1        61.3300   53.6720  130.3720 N.am  1382  UFG1382    -0.1766
      2  C2        60.1500   53.5290  131.1410 C.1   1382  UFG1382     0.2845
      3  N3        60.0820   54.1640  132.3850 N.2   1382  UFG1382    -0.2452
      4  C4        61.1570   54.9280  132.8650 C.1   1382  UFG1382     0.2182
      5  C5        62.3350   55.0720  132.1120 C.2   1382  UFG1382     0.1242
      6  C6        62.4230   54.4450  130.8680 C.2   1382  UFG1382     0.0929
      7  O2        59.1880   52.8590  130.7530 O.2   1382  UFG1382    -0.1918
      8  O4        61.0260   55.4670  133.9640 O.2   1382  UFG1382    -0.2085
      9  C1D       61.3970   52.9720  129.0580 C.3   1382  UFG1382     0.2401
     10  C2D       61.8120   53.6830  127.7790 C.3   1382  UFG1382     0.2319
     11  O2D       60.7610   54.4910  127.2700 O.3   1382  UFG1382    -0.2157
     12  C3D       61.9940   52.4460  126.9240 C.3   1382  UFG1382     0.2158
     13  C4D       62.8410   51.5390  127.8560 C.3   1382  UFG1382     0.1799
     14  O4'       62.4380   51.9340  129.1930 O.3   1382  UFG1382    -0.3320
     15  O3D       60.6940   51.8760  126.7540 O.3   1382  UFG1382    -0.2175
     16  C5D       64.3770   51.6580  127.8480 C.3   1382  UFG1382     0.1813
     17  O5D       64.7640   52.9940  128.0020 O.3   1382  UFG1382    -0.3112
     18  PA        66.3220   53.5260  128.1170 P.3   1382  UFG1382     0.2189
     19  O1A       66.3320   55.0110  128.1620 O.2   1382  UFG1382    -0.5170
     20  O2A       67.0530   52.7620  129.1660 O.3   1382  UFG1382    -0.4371
     21  O3A       67.0780   53.0400  126.7740 O.3   1382  UFG1382    -0.2703
     22  PB        66.5820   53.2820  125.3060 P.3   1382  UFG1382     0.2208
     23  O1B       65.7950   52.0890  124.8820 O.2   1382  UFG1382    -0.5170
     24  O2B       66.0390   54.6580  125.1650 O.3   1382  UFG1382    -0.4371
     25  O3B       67.9730   53.2340  124.6130 O.3   1382  UFG1382    -0.2857
     26  C1'       68.3590   54.0980  123.5630 C.3   1382  UFG1382     0.2742
     27  C2'       68.9750   53.2210  122.4570 C.3   1382  UFG1382     0.2411
     28  C3'       70.2810   52.5220  122.9550 C.3   1382  UFG1382     0.2220
     29  C4'       71.2370   53.5120  123.6330 C.3   1382  UFG1382     0.2233
     30  C5'       70.5410   54.4170  124.6640 C.3   1382  UFG1382     0.1857
     31  C6'       71.5340   55.5360  124.9940 C.3   1382  UFG1382     0.2144
     32  O2'       68.0170   52.2400  122.0730 O.3   1382  UFG1382    -0.2148
     33  O3'       70.9830   51.8490  121.8860 O.3   1382  UFG1382    -0.2172
     34  O5'       69.2850   55.0170  124.2030 O.3   1382  UFG1382    -0.3252
     35  O6'       71.0220   56.3250  126.0710 O.3   1382  UFG1382    -0.2176
     36  F4'       71.8510   54.2780  122.6740 F     1382  UFG1382    -0.2317
@<TRIPOS>BOND
     1    33    28    1
     2    32    27    1
     3    27    28    1
     4    27    26    1
     5    36    29    1
     6    28    29    1
     7    26    34    1
     8    26    25    1
     9    29    30    1
    10    34    30    1
    11    25    22    1
    12    30    31    1
    13    23    22    2
    14    31    35    1
    15    24    22    1
    16    22    21    1
    17    15    12    1
    18    21    18    1
    19    12    10    1
    20    12    13    1
    21    11    10    1
    22    10     9    1
    23    16    13    1
    24    16    17    1
    25    13    14    1
    26    17    18    1
    27    18    19    2
    28    18    20    1
    29     9    14    1
    30     9     1    1
    31     1     6    1
    32     1     2   am
    33     7     2    2
    34     6     5    2
    35     2     3    2
    36     5     4    1
    37     3     4    2
    38     4     8    2
