@<TRIPOS>MOLECULE
2cnb_NAD_A_1.pdb
 44 48 0 0 0
SMALL
GASTEIGER

@<TRIPOS>ATOM
      1  PA        78.2520   58.2900  129.6390 P.3   1383  NAD1383     0.2189
      2  O1A       77.7570   59.6850  129.7720 O.2   1383  NAD1383    -0.5170
      3  O2A       78.4120   57.5390  130.9120 O.3   1383  NAD1383    -0.4371
      4  O5B       79.7370   58.3780  129.0310 O.3   1383  NAD1383    -0.3112
      5  C5B       80.0620   59.1870  127.9330 C.3   1383  NAD1383     0.1813
      6  C4B       81.2360   60.0190  128.3880 C.3   1383  NAD1383     0.1821
      7  O4B       81.4930   60.9870  127.4140 O.3   1383  NAD1383    -0.3135
      8  C3B       80.9610   60.7750  129.6770 C.3   1383  NAD1383     0.2184
      9  O3B       81.9940   60.4290  130.5640 O.3   1383  NAD1383    -0.2174
     10  C2B       81.0130   62.2510  129.3110 C.3   1383  NAD1383     0.2570
     11  O2B       81.6670   63.0560  130.2560 O.3   1383  NAD1383    -0.2130
     12  C1B       81.8370   62.2010  128.0570 C.3   1383  NAD1383     0.3186
     13  N9A       81.6240   63.3040  127.1150 N.pl3 1383  NAD1383    -0.1439
     14  C8A       80.4520   63.7450  126.5620 C.3   1383  NAD1383     0.3377
     15  N7A       80.7530   64.7680  125.7260 N.2   1383  NAD1383    -0.2095
     16  C5A       82.0970   64.9540  125.7220 C.2   1383  NAD1383     0.2526
     17  C6A       82.9300   65.8450  125.0470 C.2   1383  NAD1383     0.4393
     18  N6A       82.4630   66.5490  124.0130 N.pl3 1383  NAD1383     0.2180
     19  N1A       84.2980   65.7770  125.2730 N.2   1383  NAD1383     0.0021
     20  C2A       84.8170   64.8360  126.1470 C.3   1383  NAD1383     0.5254
     21  N3A       83.9780   63.9680  126.8120 N.2   1383  NAD1383    -0.0055
     22  C4A       82.6520   64.0320  126.5960 C.2   1383  NAD1383     0.3518
     23  O3        77.4180   57.4040  128.5710 O.3   1383  NAD1383    -0.2703
     24  PN        77.7040   55.8220  128.3580 P.3   1383  NAD1383     0.2189
     25  O1N       76.4600   55.0680  128.6720 O.2   1383  NAD1383    -0.5170
     26  O2N       78.9960   55.4400  128.9730 O.3   1383  NAD1383    -0.4371
     27  O5D       77.9170   55.5860  126.7690 O.3   1383  NAD1383    -0.3112
     28  C5D       79.0670   56.0090  126.0860 C.3   1383  NAD1383     0.1813
     29  C4D       78.8510   55.9530  124.5740 C.3   1383  NAD1383     0.1799
     30  O4D       78.1020   54.8410  124.1150 O.3   1383  NAD1383    -0.3327
     31  C3D       78.1010   57.1660  124.0900 C.3   1383  NAD1383     0.2158
     32  O3D       78.7910   57.5090  122.9160 O.3   1383  NAD1383    -0.2175
     33  C2D       76.6880   56.6790  123.7990 C.3   1383  NAD1383     0.2309
     34  O2D       76.0880   57.3870  122.7420 O.3   1383  NAD1383    -0.2158
     35  C1D       76.9600   55.2590  123.3710 C.3   1383  NAD1383     0.2263
     36  N1N       75.8930   54.3010  123.6580 N.pl3 1383  NAD1383    -0.2787
     37  C2N       75.5140   54.0290  124.9460 C.3   1383  NAD1383     0.1244
     38  C3N       74.5510   53.0660  125.2190 C.2   1383  NAD1383     0.0544
     39  C7N       73.8590   53.0430  126.5400 C.2   1383  NAD1383     0.2818
     40  O7N       72.7240   52.2260  126.6740 O.2   1383  NAD1383    -0.2670
     41  N7N       74.3220   53.7950  127.5420 N.am  1383  NAD1383    -0.0839
     42  C4N       73.9800   52.3740  124.1650 C.2   1383  NAD1383     0.0033
     43  C5N       74.3750   52.6620  122.8590 C.2   1383  NAD1383     0.0157
     44  C6N       75.3490   53.6270  122.6140 C.2   1383  NAD1383     0.0633
@<TRIPOS>BOND
     1    44    43    2
     2    44    36    1
     3    34    33    1
     4    43    42    1
     5    32    31    1
     6    35    36    1
     7    35    33    1
     8    35    30    1
     9    36    37    1
    10    33    31    1
    11    18    17    1
    12    31    29    1
    13    30    29    1
    14    42    38    2
    15    29    28    1
    16    37    38    1
    17    17    19    2
    18    17    16    1
    19    38    39    1
    20    19    20    1
    21    16    15    2
    22    16    22    1
    23    15    14    1
    24    28    27    1
    25    20    21    1
    26    39    40    2
    27    39    41   am
    28    14    13    1
    29    22    21    2
    30    22    13    1
    31    27    24    1
    32    13    12    1
    33     7    12    1
    34     7     6    1
    35     5     6    1
    36     5     4    1
    37    12    10    1
    38    24    23    1
    39    24    25    2
    40    24    26    1
    41     6     8    1
    42    23     1    1
    43     4     1    1
    44    10     8    1
    45    10    11    1
    46     1     2    2
    47     1     3    1
    48     8     9    1
