@<TRIPOS>MOLECULE
2cnc_XYS_A_1.pdb
 10 10 0 0 0
SMALL
GASTEIGER

@<TRIPOS>ATOM
      1  C1        21.0820    0.3690   16.2790 C.3   1386  XYS1386     0.3024
      2  C2        21.2470   -0.6400   15.1820 C.3   1386  XYS1386     0.2434
      3  C3        20.4670   -1.8660   15.6590 C.3   1386  XYS1386     0.2199
      4  C4        20.9630   -2.2740   17.0330 C.3   1386  XYS1386     0.2143
      5  C5        20.8640   -1.1320   18.0560 C.3   1386  XYS1386     0.1804
      6  O1        19.7120    0.8050   16.3960 O.3   1386  XYS1386    -0.1869
      7  O2        20.6930   -0.0820   14.0060 O.3   1386  XYS1386    -0.2148
      8  O3        20.6120   -2.9850   14.8350 O.3   1386  XYS1386    -0.2174
      9  O4        20.1770   -3.3670   17.4220 O.3   1386  XYS1386    -0.2176
     10  O5        21.6260   -0.1450   17.4400 O.3   1386  XYS1386    -0.3237
@<TRIPOS>BOND
     1     7     2    1
     2     8     3    1
     3     2     3    1
     4     2     1    1
     5     3     4    1
     6     1     6    1
     7     1    10    1
     8     4     9    1
     9     4     5    1
    10    10     5    1
