@<TRIPOS>MOLECULE
2cne_DFJ_A_1.pdb
 46 48 0 0 0
SMALL
GASTEIGER

@<TRIPOS>ATOM
      1  C1        13.3590   35.6090   10.9980 C.ar  1281  DFJ1281     0.0011
      2  C2        12.1980   35.1520   11.7760 C.ar  1281  DFJ1281     0.0444
      3  C3        12.2750   34.7180   13.1850 C.ar  1281  DFJ1281     0.0011
      4  C4        13.5730   34.7350   13.8620 C.ar  1281  DFJ1281    -0.0039
      5  C5        14.6960   35.1980   13.0360 C.ar  1281  DFJ1281    -0.0130
      6  C6        14.6730   35.6400   11.6380 C.ar  1281  DFJ1281    -0.0039
      7  C11       10.9000   35.1230   11.0900 C.3   1281  DFJ1281     0.3249
      8  P12        9.7480   36.4580   11.3080 P.3   1281  DFJ1281     0.1831
      9  F13       10.0360   33.9560   11.3790 F     1281  DFJ1281    -0.1920
     10  F14       10.9350   35.0640    9.6000 F     1281  DFJ1281    -0.1920
     11  O15        8.5250   35.8930   10.1260 O.2   1281  DFJ1281    -0.4543
     12  O16       10.6050   37.8510   10.6480 O.3   1281  DFJ1281    -0.3533
     13  O17        9.3350   36.4470   13.0170 O.3   1281  DFJ1281    -0.3533
     14  C20       16.0570   35.2170   13.6850 C.3   1281  DFJ1281     0.1131
     15  C21       16.7360   33.8660   13.5470 C.2   1281  DFJ1281     0.2462
     16  O24       16.2190   32.8530   14.0100 O.2   1281  DFJ1281    -0.2730
     17  N25       17.8790   33.7800   12.8630 N.am  1281  DFJ1281    -0.1971
     18  C26       18.4990   32.4410   12.8070 C.3   1281  DFJ1281     0.1770
     19  C27       19.8890   32.4330   13.4400 C.2   1281  DFJ1281     0.2620
     20  O30       20.7870   33.1670   13.0260 O.2   1281  DFJ1281    -0.2715
     21  N31       20.1080   31.6020   14.4670 N.am  1281  DFJ1281    -0.1959
     22  C32       21.4100   31.6260   15.1680 C.3   1281  DFJ1281     0.1787
     23  C33       22.4800   30.8140   14.4540 C.2   1281  DFJ1281     0.2809
     24  O34       23.5960   31.2800   14.2660 O.2   1281  DFJ1281    -0.2698
     25  C35       21.2070   31.0720   16.5860 C.3   1281  DFJ1281     0.0575
     26  C37       22.4600   31.1370   17.4330 C.ar  1281  DFJ1281    -0.0200
     27  N40       22.1440   29.5910   14.0700 N.am  1281  DFJ1281    -0.0863
     28  C43       19.3040   30.6560   11.2050 C.ar  1281  DFJ1281    -0.0200
     29  C46       18.5060   29.4660   11.5210 C.ar  1281  DFJ1281    -0.0042
     30  C47       19.1770   28.1610   11.3950 C.ar  1281  DFJ1281    -0.0003
     31  C48       20.5830   28.1180   10.9690 C.ar  1281  DFJ1281    -0.0000
     32  C49       21.3560   29.3300   10.6590 C.ar  1281  DFJ1281    -0.0003
     33  C50       20.7140   30.6470   10.7740 C.ar  1281  DFJ1281    -0.0042
     34  C56       22.9310   29.8780   18.0110 C.ar  1281  DFJ1281    -0.0043
     35  C57       24.1370   29.9620   18.8330 C.ar  1281  DFJ1281     0.0011
     36  C58       24.7610   31.2830   19.0050 C.ar  1281  DFJ1281     0.0444
     37  C59       24.2600   32.5300   18.4060 C.ar  1281  DFJ1281     0.0011
     38  C60       23.0610   32.4610   17.5870 C.ar  1281  DFJ1281    -0.0043
     39  C65       25.9550   31.3200   19.8400 C.3   1281  DFJ1281     0.3249
     40  F66       26.8380   32.3440   19.3730 F     1281  DFJ1281    -0.1920
     41  F67       26.6290   30.0390   19.8640 F     1281  DFJ1281    -0.1920
     42  P68       25.7480   31.6130   21.7170 P.3   1281  DFJ1281     0.1831
     43  O69       27.3030   31.3940   22.3270 O.3   1281  DFJ1281    -0.3533
     44  O70       24.6360   30.4250   22.1690 O.3   1281  DFJ1281    -0.3533
     45  O71       25.2030   33.2350   21.8840 O.2   1281  DFJ1281    -0.4543
     46  C7        18.6140   32.0010   11.3410 C.3   1281  DFJ1281     0.0574
@<TRIPOS>BOND
     1    10     7    1
     2    11     8    2
     3    12     8    1
     4    32    33   ar
     5    32    31   ar
     6    33    28   ar
     7    31    30   ar
     8     1     6   ar
     9     1     2   ar
    10     7     8    1
    11     7     9    1
    12     7     2    1
    13    28    46    1
    14    28    29   ar
    15     8    13    1
    16    46    18    1
    17    30    29   ar
    18     6     5   ar
    19     2     3   ar
    20    18    17    1
    21    18    19    1
    22    17    15   am
    23    20    19    2
    24     5    14    1
    25     5     4   ar
    26     3     4   ar
    27    19    21   am
    28    15    14    1
    29    15    16    2
    30    27    23   am
    31    24    23    2
    32    23    22    1
    33    21    22    1
    34    22    25    1
    35    25    26    1
    36    26    38   ar
    37    26    34   ar
    38    38    37   ar
    39    34    35   ar
    40    37    36   ar
    41    35    36   ar
    42    36    39    1
    43    40    39    1
    44    39    41    1
    45    39    42    1
    46    42    45    2
    47    42    44    1
    48    42    43    1
