@<TRIPOS>MOLECULE
2cnf_F32_A_1.pdb
 35 40 0 0 0
SMALL
GASTEIGER

@<TRIPOS>ATOM
      1  C1        19.4170   16.5400   83.2150 C.3   1299  F321299     0.1923
      2  C2        20.7530   17.0010   82.6910 C.3   1299  F321299     0.1535
      3  C3        21.8460   16.1690   83.3330 C.1   1299  F321299     0.1504
      4  N4        21.4190   15.0290   83.8800 N.2   1299  F321299    -0.0608
      5  S5        19.6810   14.8000   83.5140 S.O2  1299  F321299     0.0928
      6  O6        18.8400   14.2580   84.8410 O.2   1299  F321299    -0.1499
      7  O7        19.4790   13.8540   82.1290 O.2   1299  F321299    -0.1499
      8  O9        23.0360   16.4570   83.3580 O.2   1299  F321299    -0.2253
      9  C11       18.1700   16.8260   82.3540 C.ar  1299  F321299     0.0025
     10  C12       18.2520   16.7570   80.8900 C.ar  1299  F321299    -0.0029
     11  C13       17.0490   17.0150   80.0840 C.ar  1299  F321299    -0.0044
     12  C14       15.7750   17.3390   80.7530 C.ar  1299  F321299    -0.0193
     13  C15       15.7010   17.4080   82.2110 C.ar  1299  F321299    -0.0044
     14  C16       16.8980   17.1510   83.0050 C.ar  1299  F321299    -0.0029
     15  C21       14.5420   17.6010   79.9300 C.3   1299  F321299     0.0655
     16  C22       13.9430   18.9810   80.1960 C.3   1299  F321299     0.2073
     17  N45       12.5920   18.9940   79.6370 N.pl3 1299  F321299    -0.1881
     18  C17       17.7700   23.2890   78.2110 C.ar  1299  F321299     0.0028
     19  C19       17.2380   22.6620   79.4490 C.ar  1299  F321299     0.0357
     20  C23       16.2260   21.6070   79.3080 C.ar  1299  F321299     0.1738
     21  C4        15.7510   21.1790   78.0210 C.ar  1299  F321299     0.1738
     22  C5        16.2500   21.7770   76.7720 C.ar  1299  F321299     0.0357
     23  C6        17.2770   22.8470   76.8770 C.ar  1299  F321299     0.0028
     24  N11       15.6230   20.8880   80.3550 N.2   1299  F321299    -0.3394
     25  C25       14.8080   20.0560   79.5430 C.1   1299  F321299     0.1333
     26  N13       14.8000   20.1500   78.1260 N.2   1299  F321299    -0.3394
     27  C7         7.4390   21.3340   82.5600 C.3   1299  F321299     0.0527
     28  C8         7.7420   20.6070   81.3090 C.2   1299  F321299    -0.0123
     29  C9         9.1430   20.2410   80.9950 C.2   1299  F321299     0.0588
     30  C18       10.2320   20.5970   81.9220 C.2   1299  F321299     0.1391
     31  C20        9.9310   21.3190   83.1670 C.2   1299  F321299     0.0284
     32  C24        8.5370   21.6890   83.4890 C.2   1299  F321299    -0.0188
     33  S1         9.8740   19.3740   79.6030 S.3   1299  F321299    -0.0364
     34  C10       11.5040   19.5490   80.3360 C.2   1299  F321299     0.2315
     35  N1        11.5550   20.2250   81.5780 N.2   1299  F321299    -0.3786
@<TRIPOS>BOND
     1    22    23   ar
     2    22    21   ar
     3    23    18   ar
     4    21    26    2
     5    21    20   ar
     6    26    25    2
     7    18    19   ar
     8    20    19   ar
     9    20    24    2
    10    25    16    1
    11    25    24    2
    12    33    34    1
    13    33    29    1
    14    17    16    1
    15    17    34    1
    16    15    16    1
    17    15    12    1
    18    11    12   ar
    19    11    10   ar
    20    34    35    2
    21    12    13   ar
    22    10     9   ar
    23    29    28    2
    24    29    30    1
    25    28    27    1
    26    35    30    2
    27    30    31    1
    28     7     5    2
    29    13    14   ar
    30     9    14   ar
    31     9     1    1
    32    27    32    1
    33     2     1    1
    34     2     3    1
    35    31    32    2
    36     1     5    1
    37     3     8    2
    38     3     4    2
    39     5     4    1
    40     5     6    2
