@<TRIPOS>MOLECULE
2cng_IZE_A_1.pdb
 36 39 0 0 0
SMALL
GASTEIGER

@<TRIPOS>ATOM
      1  C1         5.9160   10.8390   49.1060 C.3   1299  IZE1299     0.1923
      2  C2         6.1830   12.2230   48.6140 C.3   1299  IZE1299     0.1535
      3  C3         7.3920   12.7570   49.3270 C.1   1299  IZE1299     0.1504
      4  N4         8.1520   11.8190   49.8670 N.2   1299  IZE1299    -0.0608
      5  S5         7.5610   10.1750   49.4430 S.O2  1299  IZE1299     0.0928
      6  O6         7.4850    9.0530   50.6310 O.2   1299  IZE1299    -0.1499
      7  O7         8.0970    9.5930   48.0470 O.2   1299  IZE1299    -0.1499
      8  O9         7.6920   13.9370   49.4500 O.2   1299  IZE1299    -0.2253
      9  C11        5.0870    9.9100   48.2600 C.ar  1299  IZE1299     0.0025
     10  C12        5.2100    9.9330   46.7940 C.ar  1299  IZE1299    -0.0029
     11  C13        4.4050    9.0210   45.9870 C.ar  1299  IZE1299    -0.0044
     12  C14        3.4790    8.0900   46.6460 C.ar  1299  IZE1299    -0.0193
     13  C15        3.3640    8.0780   48.1010 C.ar  1299  IZE1299    -0.0044
     14  C16        4.1640    8.9850   48.9030 C.ar  1299  IZE1299    -0.0029
     15  C21        2.6470    7.1410   45.8240 C.3   1299  IZE1299     0.0655
     16  C22        1.1450    7.3090   46.1010 C.3   1299  IZE1299     0.2073
     17  N45        0.4280    6.2270   45.4160 N.am  1299  IZE1299    -0.1823
     18  C17       -0.4890   12.9260   44.3330 C.ar  1299  IZE1299     0.0742
     19  C19       -0.3270   12.0680   45.5210 C.ar  1299  IZE1299     0.0395
     20  C23        0.0620   10.6740   45.3630 C.ar  1299  IZE1299     0.1738
     21  C4         0.2570   10.1370   44.0200 C.ar  1299  IZE1299     0.1738
     22  C5         0.0680   10.9650   42.8330 C.ar  1299  IZE1299     0.0356
     23  C6        -0.2900   12.3660   42.9840 C.ar  1299  IZE1299     0.0067
     24  N11        0.3420    9.7300   46.3550 N.2   1299  IZE1299    -0.3394
     25  C25        0.7170    8.6520   45.5310 C.1   1299  IZE1299     0.1333
     26  N13        0.7010    8.8140   44.1310 N.2   1299  IZE1299    -0.3394
     27  C28       -0.8430   14.3180   44.5330 C.3   1299  IZE1299     0.4187
     28  F1        -0.1750   15.2050   43.6320 F     1299  IZE1299    -0.1659
     29  F3        -0.4500   14.8640   45.7810 F     1299  IZE1299    -0.1659
     30  F2        -2.2330   14.5230   44.3920 F     1299  IZE1299    -0.1659
     31  C7        -0.8310    5.9530   45.7520 C.2   1299  IZE1299     0.3377
     32  C8        -1.5740    4.8780   45.0040 C.3   1299  IZE1299     0.4712
     33  O1        -1.3940    6.5790   46.6590 O.2   1299  IZE1299    -0.2642
     34  F4        -2.9420    4.8140   45.3780 F     1299  IZE1299    -0.1620
     35  F6        -0.9190    3.6360   45.0130 F     1299  IZE1299    -0.1620
     36  F5        -1.6050    5.1590   43.6240 F     1299  IZE1299    -0.1620
@<TRIPOS>BOND
     1    22    23   ar
     2    22    21   ar
     3    23    18   ar
     4    36    32    1
     5    28    27    1
     6    21    26    2
     7    21    20   ar
     8    26    25    2
     9    18    27    1
    10    18    19   ar
    11    30    27    1
    12    27    29    1
    13    32    35    1
    14    32    34    1
    15    32    31    1
    16    20    19   ar
    17    20    24    2
    18    17    31   am
    19    17    16    1
    20    25    16    1
    21    25    24    2
    22    31    33    2
    23    15    16    1
    24    15    12    1
    25    11    12   ar
    26    11    10   ar
    27    12    13   ar
    28    10     9   ar
    29     7     5    2
    30    13    14   ar
    31     9    14   ar
    32     9     1    1
    33     2     1    1
    34     2     3    1
    35     1     5    1
    36     3     8    2
    37     3     4    2
    38     5     4    1
    39     5     6    2
