@<TRIPOS>MOLECULE
2cnh_IZB_A_1.pdb
 40 45 0 0 0
SMALL
GASTEIGER

@<TRIPOS>ATOM
      1  C1        19.4890   16.6620   81.4060 C.3   1300  IZB1300     0.1923
      2  C2        20.8210   17.1900   80.9500 C.3   1300  IZB1300     0.1535
      3  C3        21.8930   16.3940   81.6000 C.1   1300  IZB1300     0.1504
      4  N4        21.5010   15.1850   82.0170 N.2   1300  IZB1300    -0.0608
      5  S5        19.7760   14.9170   81.6510 S.O2  1300  IZB1300     0.0928
      6  O6        18.9720   14.4430   82.9620 O.2   1300  IZB1300    -0.1499
      7  O7        19.6420   14.0860   80.2520 O.2   1300  IZB1300    -0.1499
      8  O9        23.0440   16.7680   81.7700 O.2   1300  IZB1300    -0.2253
      9  C11       18.2840   16.9220   80.5280 C.ar  1300  IZB1300     0.0025
     10  C12       18.4170   16.8970   79.0690 C.ar  1300  IZB1300    -0.0029
     11  C13       17.2350   17.1070   78.2290 C.ar  1300  IZB1300    -0.0045
     12  C14       15.9240   17.3440   78.8560 C.ar  1300  IZB1300    -0.0196
     13  C15       15.7990   17.3710   80.3120 C.ar  1300  IZB1300    -0.0045
     14  C16       16.9720   17.1610   81.1470 C.ar  1300  IZB1300    -0.0029
     15  C21       14.7130   17.5900   77.9990 C.3   1300  IZB1300     0.0631
     16  C22       14.1330   18.9900   78.2310 C.3   1300  IZB1300     0.2096
     17  N45       12.8100   19.0650   77.5950 N.3   1300  IZB1300    -0.0615
     18  S1        11.7160   20.3830   78.0110 S.O2  1300  IZB1300     0.0779
     19  O1        10.2450   19.7860   77.5090 O.2   1300  IZB1300    -0.1516
     20  O2        11.8340   20.6580   79.6590 O.2   1300  IZB1300    -0.1516
     21  C17       17.9850   23.5440   76.3940 C.ar  1300  IZB1300     0.0028
     22  C19       17.4790   22.8450   77.5990 C.ar  1300  IZB1300     0.0357
     23  C23       16.5060   21.7390   77.4550 C.ar  1300  IZB1300     0.1738
     24  C4        16.0420   21.3370   76.1210 C.ar  1300  IZB1300     0.1738
     25  C5        16.5420   22.0310   74.9170 C.ar  1300  IZB1300     0.0357
     26  C6        17.5160   23.1380   75.0540 C.ar  1300  IZB1300     0.0028
     27  N11       15.8760   20.9260   78.4170 N.2   1300  IZB1300    -0.3396
     28  C25       15.0580   20.0610   77.6580 C.1   1300  IZB1300     0.1311
     29  N13       15.1290   20.2730   76.2620 N.2   1300  IZB1300    -0.3396
     30  C18       15.2120   25.6060   77.1330 C.3   1300  IZB1300     0.2268
     31  O3        14.2070   24.8990   77.8540 O.3   1300  IZB1300    -0.4723
     32  C24       13.5820   23.9570   77.1360 C.ar  1300  IZB1300     0.1531
     33  C26       13.4300   24.0590   75.6800 C.ar  1300  IZB1300     0.0825
     34  N5        14.0660   25.1090   74.9920 N.pl3 1300  IZB1300    -0.3001
     35  C27       14.7030   26.1560   75.8070 C.3   1300  IZB1300     0.1386
     36  C7        13.0460   22.8010   77.8440 C.ar  1300  IZB1300     0.0581
     37  C8        12.3010   21.7820   77.1110 C.ar  1300  IZB1300     0.1267
     38  C9        12.0750   21.9270   75.6680 C.ar  1300  IZB1300     0.0214
     39  C10       12.6300   23.0730   74.9560 C.ar  1300  IZB1300     0.0190
     40  C20       14.2300   25.0330   73.5380 C.3   1300  IZB1300     0.1124
@<TRIPOS>BOND
     1    40    34    1
     2    25    26   ar
     3    25    24   ar
     4    39    38   ar
     5    39    33   ar
     6    34    33    1
     7    34    35    1
     8    26    21   ar
     9    38    37   ar
    10    33    32   ar
    11    35    30    1
    12    24    29    2
    13    24    23   ar
    14    29    28    2
    15    21    22   ar
    16    37    36   ar
    17    37    18    1
    18    30    31    1
    19    32    36   ar
    20    32    31    1
    21    23    22   ar
    22    23    27    2
    23    19    18    2
    24    17    18    1
    25    17    16    1
    26    28    16    1
    27    28    27    2
    28    15    16    1
    29    15    12    1
    30    18    20    2
    31    11    12   ar
    32    11    10   ar
    33    12    13   ar
    34    10     9   ar
    35     7     5    2
    36    13    14   ar
    37     9    14   ar
    38     9     1    1
    39     2     1    1
    40     2     3    1
    41     1     5    1
    42     3     8    2
    43     3     4    2
    44     5     4    1
    45     5     6    2
