@<TRIPOS>MOLECULE
2cni_IZF_A_1.pdb
 47 50 0 0 0
SMALL
GASTEIGER

@<TRIPOS>ATOM
      1  C1        18.9790   16.7510   82.0810 C.3   1301  IZF1301     0.1931
      2  C2        20.2880   17.3520   81.6380 C.3   1301  IZF1301     0.1536
      3  C3        21.3960   16.6130   82.2880 C.1   1301  IZF1301     0.1504
      4  N4        21.0720   15.3830   82.6970 N.2   1301  IZF1301    -0.0608
      5  S5        19.3600   14.9850   82.3430 S.O2  1301  IZF1301     0.0928
      6  O6        18.4980   14.5970   83.7200 O.2   1301  IZF1301    -0.1499
      7  O7        19.0820   14.1180   80.9170 O.2   1301  IZF1301    -0.1499
      8  O9        22.5140   17.0710   82.4850 O.2   1301  IZF1301    -0.2253
      9  C11       17.7890   16.9800   81.1460 C.ar  1301  IZF1301     0.0131
     10  C12       17.9760   16.9510   79.6950 C.ar  1301  IZF1301    -0.0020
     11  C13       16.8220   17.1470   78.8100 C.ar  1301  IZF1301    -0.0044
     12  C14       15.4890   17.3690   79.3870 C.ar  1301  IZF1301    -0.0194
     13  C15       15.3140   17.4010   80.8330 C.ar  1301  IZF1301     0.0069
     14  C16       16.4550   17.2090   81.7090 C.ar  1301  IZF1301     0.0551
     15  C21       14.2990   17.5610   78.4870 C.3   1301  IZF1301     0.0551
     16  C22       13.6960   18.9600   78.6360 C.3   1301  IZF1301     0.1794
     17  N45       12.3880   18.9820   77.9620 N.3   1301  IZF1301    -0.0695
     18  S1        11.2440   20.2700   78.2180 S.O2  1301  IZF1301     0.0772
     19  O1         9.6420   19.6250   78.0160 O.2   1301  IZF1301    -0.1516
     20  O2        11.5240   20.8180   79.7740 O.2   1301  IZF1301    -0.1516
     21  C23       15.6240   21.0190   76.0430 C.3   1301  IZF1301     0.1152
     22  N11       14.7900   20.0250   76.7400 N.am  1301  IZF1301    -0.2042
     23  C25       14.6740   19.9710   78.0630 C.2   1301  IZF1301     0.2594
     24  C24       11.5530   22.3420   74.5890 C.ar  1301  IZF1301     0.0014
     25  C26       12.4470   23.4430   74.9620 C.ar  1301  IZF1301     0.0001
     26  C7        11.1610   21.3480   75.5920 C.ar  1301  IZF1301     0.0200
     27  C8        11.6610   21.4580   76.9640 C.ar  1301  IZF1301     0.1236
     28  C9        12.5520   22.5580   77.3380 C.ar  1301  IZF1301     0.0200
     29  C10       12.9470   23.5510   76.3360 C.ar  1301  IZF1301     0.0014
     30  C27       16.8840   19.3850   74.5090 C.3   1301  IZF1301     0.0056
     31  C18       16.9930   20.4720   75.5760 C.3   1301  IZF1301     0.0236
     32  O3        15.3550   20.6900   78.7890 O.2   1301  IZF1301    -0.2718
     33 CL1        16.2490   17.2640   83.3700 Cl    1301  IZF1301    -0.0825
     34  C4        16.6110   18.0160   75.1240 C.3   1301  IZF1301     0.0474
     35  C5        16.5800   16.9240   74.0610 C.3   1301  IZF1301     0.2054
     36  C32       18.0560   16.2540   72.2310 C.ar  1301  IZF1301     0.1479
     37  C33       17.0590   15.4080   71.5800 C.ar  1301  IZF1301     0.0373
     38  C34       17.2940   14.9160   70.2220 C.ar  1301  IZF1301     0.0064
     39  C35       18.5240   15.2680   69.5230 C.ar  1301  IZF1301     0.0425
     40  C36       19.5160   16.1110   70.1790 C.ar  1301  IZF1301     0.2049
     41  C37       19.2750   16.6050   71.5350 C.ar  1301  IZF1301     0.1482
     42  C38       20.2970   17.4880   72.2110 C.2   1301  IZF1301     0.3475
     43  O11       21.4760   17.0340   72.4170 O.2   1301  IZF1301    -0.2447
     44  O4        19.9200   18.6190   72.6640 O.3   1301  IZF1301    -0.4412
     45  C39       20.8060   19.3240   73.3860 C.3   1301  IZF1301     0.2560
     46  O14       20.6570   16.4220   69.5450 O.3   1301  IZF1301    -0.2862
     47  O5        17.8500   16.6970   73.4780 O.3   1301  IZF1301    -0.4751
@<TRIPOS>BOND
     1    39    40   ar
     2    39    38   ar
     3    46    40    1
     4    40    41   ar
     5    38    37   ar
     6    41    42    1
     7    41    36   ar
     8    37    36   ar
     9    42    43    2
    10    42    44    1
    11    36    47    1
    12    44    45    1
    13    47    35    1
    14    35    34    1
    15    30    34    1
    16    30    31    1
    17    24    25   ar
    18    24    26   ar
    19    25    29   ar
    20    31    21    1
    21    26    27   ar
    22    21    22    1
    23    29    28   ar
    24    22    23   am
    25    27    28   ar
    26    27    18    1
    27    17    18    1
    28    17    16    1
    29    19    18    2
    30    23    16    1
    31    23    32    2
    32    18    20    2
    33    15    16    1
    34    15    12    1
    35    11    12   ar
    36    11    10   ar
    37    12    13   ar
    38    10     9   ar
    39    13    14   ar
    40     7     5    2
    41     9    14   ar
    42     9     1    1
    43     2     1    1
    44     2     3    1
    45    14    33    1
    46     1     5    1
    47     3     8    2
    48     3     4    2
    49     5     4    1
    50     5     6    2
