@<TRIPOS>MOLECULE
2cnm_COA_D_1.pdb
 48 50 0 0 0
SMALL
GASTEIGER

@<TRIPOS>ATOM
      1  N1A      -13.5140  -23.8820   50.6320 N.2     0  COA0        0.0021
      2  C2A      -12.2350  -23.5920   50.4290 C.3     0  COA0        0.5254
      3  N3A      -11.8650  -23.1140   49.2560 N.2     0  COA0       -0.0055
      4  C4A      -12.7530  -22.9090   48.2530 C.2     0  COA0        0.3518
      5  C5A      -14.0920  -23.2000   48.4310 C.2     0  COA0        0.2526
      6  C6A      -14.4540  -23.7010   49.6800 C.2     0  COA0        0.4393
      7  N6A      -15.7110  -24.0070   49.9460 N.pl3   0  COA0        0.2180
      8  N7A      -14.7290  -22.9170   47.2840 N.2     0  COA0       -0.2095
      9  C8A      -13.8330  -22.4510   46.4080 C.3     0  COA0        0.3377
     10  N9A      -12.6260  -22.4510   47.0080 N.pl3   0  COA0       -0.1439
     11  C1B      -11.3040  -22.0350   46.4150 C.3     0  COA0        0.3185
     12  C2B      -11.2410  -20.5160   46.3230 C.3     0  COA0        0.2543
     13  O2B      -10.4450  -20.1010   45.1950 O.3     0  COA0       -0.2131
     14  C3B      -10.5720  -20.1890   47.6580 C.3     0  COA0        0.1928
     15  O3B      -10.0070  -18.8780   47.6130 O.3     0  COA0       -0.2673
     16  P3B      -11.0180  -17.6840   47.9990 P.3     0  COA0        0.5327
     17  O7A      -10.5740  -16.5310   46.9500 O.2     0  COA0       -0.2224
     18  O8A      -10.5600  -17.2540   49.4960 O.3     0  COA0       -0.1145
     19  O9A      -12.4660  -18.0480   47.9200 O.3     0  COA0       -0.1145
     20  C4B       -9.5230  -21.2890   47.8330 C.3     0  COA0        0.1795
     21  O4B      -10.1560  -22.4690   47.2670 O.3     0  COA0       -0.3136
     22  C5B       -9.3170  -21.5720   49.3140 C.3     0  COA0        0.1812
     23  O5B       -8.6320  -20.5240   49.9500 O.3     0  COA0       -0.3112
     24  P1A       -7.8680  -20.8120   51.3000 P.3     0  COA0        0.2189
     25  O1A       -8.6160  -20.3120   52.4810 O.3     0  COA0       -0.4371
     26  O2A       -6.4510  -20.4180   51.1000 O.2     0  COA0       -0.5170
     27  O3A       -7.9270  -22.3770   51.3670 O.3     0  COA0       -0.2703
     28  P2A       -7.8070  -23.2490   52.6990 P.3     0  COA0        0.2188
     29  O4A       -6.5790  -22.9880   53.4690 O.3     0  COA0       -0.4371
     30  O5A       -9.0800  -23.2260   53.3990 O.2     0  COA0       -0.5170
     31  O6A       -7.8280  -24.6140   51.9470 O.3     0  COA0       -0.3138
     32  CBP       -6.9810  -26.7240   51.2670 C.3     0  COA0        0.0645
     33  CCP       -6.8020  -25.1990   51.2260 C.3     0  COA0        0.1519
     34  CDP       -7.8840  -27.2400   50.1400 C.3     0  COA0        0.0056
     35  CEP       -5.5660  -27.2580   51.1030 C.3     0  COA0        0.0056
     36  CAP       -7.6300  -27.1410   52.6270 C.3     0  COA0        0.2312
     37  OAP       -9.0270  -26.7970   52.6560 O.3     0  COA0       -0.2131
     38  C9P       -7.5050  -28.6190   52.9920 C.2     0  COA0        0.2719
     39  O9P       -6.5240  -29.0100   53.6200 O.2     0  COA0       -0.2706
     40  N8P       -8.5320  -29.4000   52.6230 N.am    0  COA0       -0.2028
     41  C7P       -8.5850  -30.8440   52.8930 C.3     0  COA0        0.1248
     42  C6P       -7.3280  -31.5630   52.3580 C.3     0  COA0        0.1102
     43  C5P       -7.1920  -31.3680   50.8450 C.2     0  COA0        0.2432
     44  O5P       -8.1760  -31.5100   50.1220 O.2     0  COA0       -0.2733
     45  N4P       -5.9660  -31.0340   50.4300 N.am    0  COA0       -0.2044
     46  C3P       -5.5780  -30.7850   49.0330 C.3     0  COA0        0.1276
     47  C2P       -5.5650  -32.1150   48.2870 C.3     0  COA0        0.0920
     48  S1P       -5.0910  -31.9070   46.5400 S.3     0  COA0       -0.0802
@<TRIPOS>BOND
     1    13    12    1
     2    12    11    1
     3    12    14    1
     4     9    10    1
     5     9     8    1
     6    11    10    1
     7    11    21    1
     8    48    47    1
     9    17    16    2
    10    10     4    1
    11    21    20    1
    12     8     5    2
    13    15    14    1
    14    15    16    1
    15    14    20    1
    16    20    22    1
    17    19    16    1
    18    16    18    1
    19     4     5    1
    20     4     3    2
    21    47    46    1
    22     5     6    1
    23    46    45    1
    24     3     2    1
    25    22    23    1
    26     6     7    1
    27     6     1    2
    28    23    24    1
    29    44    43    2
    30    34    32    1
    31     2     1    1
    32    45    43   am
    33    43    42    1
    34    26    24    2
    35    35    32    1
    36    33    32    1
    37    33    31    1
    38    32    36    1
    39    24    27    1
    40    24    25    1
    41    27    28    1
    42    31    28    1
    43    42    41    1
    44    40    41    1
    45    40    38   am
    46    36    37    1
    47    36    38    1
    48    28    30    2
    49    28    29    1
    50    38    39    2
