@<TRIPOS>MOLECULE
2cno_M60_A_1.pdb
 48 49 0 0 0
SMALL
GASTEIGER

@<TRIPOS>ATOM
      1  C11       42.0050   30.7600   23.9860 C.2   1180  M601180     0.4218
      2  O11       42.5400   31.6100   23.2840 O.2   1180  M601180    -0.2245
      3  O21       42.4120   29.4610   24.1660 O.3   1180  M601180    -0.4285
      4  C21       43.5980   29.0170   23.4450 C.3   1180  M601180     0.2368
      5  C31       43.9770   27.5460   23.7270 C.ar  1180  M601180     0.0213
      6  C81       45.1390   27.0090   23.0510 C.ar  1180  M601180    -0.0007
      7  C71       45.5560   25.6390   23.2670 C.ar  1180  M601180    -0.0002
      8  C61       44.8090   24.7920   24.1690 C.ar  1180  M601180    -0.0000
      9  C51       43.6430   25.3160   24.8520 C.ar  1180  M601180    -0.0002
     10  C41       43.2260   26.6850   24.6350 C.ar  1180  M601180    -0.0007
     11  N1        41.0060   30.4220   24.7870 N.am  1180  M601180    -0.1611
     12  CA2       39.9450   31.3440   25.1750 C.3   1180  M601180     0.1767
     13  C20       39.5680   31.1250   26.6350 C.2   1180  M601180     0.2617
     14  O2        39.4420   29.9890   27.0920 O.2   1180  M601180    -0.2715
     15  CB2       38.7100   31.1560   24.2820 C.3   1180  M601180     0.0430
     16  CG2       38.8680   31.7190   22.8720 C.3   1180  M601180     0.1163
     17  CD2       37.6320   31.5250   22.0080 C.2   1180  M601180     0.3649
     18  OZ1       37.7610   30.9160   20.9260 O.co2 1180  M601180    -0.2457
     19  OZ2       36.5360   31.9820   22.4040 O.co2 1180  M601180    -0.2457
     20  N3        39.3950   32.2210   27.3640 N.am  1180  M601180    -0.1963
     21  CA3       39.0360   32.1430   28.7710 C.3   1180  M601180     0.1743
     22  C30       37.5810   32.5260   29.0070 C.2   1180  M601180     0.2792
     23  O3        36.9770   33.2620   28.2230 O.2   1180  M601180    -0.2698
     24  CB3       39.9360   33.0560   29.6330 C.3   1180  M601180     0.0290
     25  CZ1       41.3690   32.5560   29.5910 C.3   1180  M601180     0.0023
     26  CZ2       39.8580   34.4910   29.1330 C.3   1180  M601180     0.0023
     27  N4        36.9190   32.0960   30.0440 N.am  1180  M601180    -0.1056
     28  N5        35.7210   32.0780   30.7640 N.am  1180  M601180    -0.1755
     29  O5        37.5410   37.0670   32.0640 O.2   1180  M601180    -0.2706
     30  O6        34.2110   33.1450   32.1300 O.2   1180  M601180    -0.2732
     31  O7        33.8450   29.4350   29.1230 O.co2 1180  M601180    -0.2437
     32  O8        33.9010   31.6140   28.6380 O.co2 1180  M601180    -0.2437
     33  O9        34.6500   36.2950   31.4380 O.3   1180  M601180    -0.2127
     34  C3        36.1610   34.4330   31.4870 C.3   1180  M601180     0.1292
     35  C12       34.9830   30.8120   30.6980 C.3   1180  M601180     0.2302
     36  C1        36.6500   36.6020   32.7750 C.2   1180  M601180     0.2724
     37  C16       35.2700   33.1850   31.4950 C.2   1180  M601180     0.2463
     38  C17       34.2060   30.7020   29.4010 C.2   1180  M601180     0.3866
     39  C2        35.5760   35.6050   32.2860 C.3   1180  M601180     0.2381
     40  C44       37.4970   39.5440   36.7140 C.ar  1180  M601180    -0.0204
     41  C34       38.0020   39.1650   37.9960 C.ar  1180  M601180    -0.0042
     42  C23       38.8520   40.0370   38.7300 C.ar  1180  M601180    -0.0003
     43  C13       39.2070   41.2980   38.1920 C.ar  1180  M601180    -0.0000
     44  C64       38.7120   41.6910   36.9210 C.ar  1180  M601180    -0.0003
     45  C54       37.8570   40.8190   36.1800 C.ar  1180  M601180    -0.0042
     46  C77       36.5970   38.6040   35.9410 C.3   1180  M601180     0.0498
     47  C14       37.3550   37.8240   34.8540 C.3   1180  M601180     0.1199
     48  N6        36.4870   36.9130   34.1260 N.am  1180  M601180    -0.2029
@<TRIPOS>BOND
     1    18    17   ar
     2    17    19   ar
     3    17    16    1
     4    16    15    1
     5     6     7   ar
     6     6     5   ar
     7     7     8   ar
     8     2     1    2
     9     4     5    1
    10     4     3    1
    11     5    10   ar
    12     1     3    1
    13     1    11   am
    14     8     9   ar
    15    15    12    1
    16    10     9   ar
    17    11    12    1
    18    12    13    1
    19    13    14    2
    20    13    20   am
    21    20    21    1
    22    23    22    2
    23    32    38   ar
    24    21    22    1
    25    21    24    1
    26    22    27   am
    27    31    38   ar
    28    26    24    1
    29    38    35    1
    30    25    24    1
    31    27    28    1
    32    35    28    1
    33    28    37   am
    34    33    39    1
    35    34    37    1
    36    34    39    1
    37    37    30    2
    38    29    36    2
    39    39    36    1
    40    36    48   am
    41    48    47    1
    42    47    46    1
    43    46    40    1
    44    45    40   ar
    45    45    44   ar
    46    40    41   ar
    47    44    43   ar
    48    41    42   ar
    49    43    42   ar
