@<TRIPOS>MOLECULE
2cnq_ADP_A_1.pdb
 27 29 0 0 0
SMALL
GASTEIGER

@<TRIPOS>ATOM
      1  PB        -9.3600   22.6220   17.1860 P.3   1307  ADP1307     0.5373
      2  O1B      -10.0050   21.3450   17.4640 O.3   1307  ADP1307    -0.1143
      3  O2B       -7.9000   22.5630   17.3500 O.3   1307  ADP1307    -0.1143
      4  O3B       -9.6430   23.2720   15.9220 O.2   1307  ADP1307    -0.2221
      5  PA       -11.2650   23.8170   18.9430 P.3   1307  ADP1307     0.2231
      6  O1A      -11.7810   22.5340   19.4240 O.3   1307  ADP1307    -0.4370
      7  O2A      -12.0820   24.6240   18.0510 O.2   1307  ADP1307    -0.5169
      8  O3A       -9.8360   23.6320   18.3150 O.3   1307  ADP1307    -0.2261
      9  O5'      -10.8920   24.7480   20.1510 O.3   1307  ADP1307    -0.3111
     10  C5'      -10.4080   24.3090   21.4000 C.3   1307  ADP1307     0.1813
     11  C4'       -8.9540   24.6560   21.5170 C.3   1307  ADP1307     0.1821
     12  O4'       -8.7150   24.8970   22.9020 O.3   1307  ADP1307    -0.3135
     13  C3'       -8.0300   23.5400   21.1390 C.3   1307  ADP1307     0.2184
     14  O3'       -6.7800   24.0580   20.7550 O.3   1307  ADP1307    -0.2174
     15  C2'       -7.8440   22.8210   22.4480 C.3   1307  ADP1307     0.2570
     16  O2'       -6.7090   22.0150   22.4900 O.3   1307  ADP1307    -0.2130
     17  C1'       -7.7550   23.9740   23.3740 C.3   1307  ADP1307     0.3186
     18  N9        -8.0660   23.7160   24.7480 N.pl3 1307  ADP1307    -0.1439
     19  C8        -9.0170   22.9040   25.2140 C.3   1307  ADP1307     0.3377
     20  N7        -9.1320   22.9530   26.5150 N.2   1307  ADP1307    -0.2095
     21  C5        -8.2010   23.8380   26.9050 C.2   1307  ADP1307     0.2526
     22  C6        -7.8110   24.3770   28.1530 C.2   1307  ADP1307     0.4393
     23  N6        -8.4130   24.0190   29.2690 N.pl3 1307  ADP1307     0.2180
     24  N1        -6.7750   25.2060   28.2040 N.2   1307  ADP1307     0.0021
     25  C2        -6.2000   25.5940   27.0700 C.3   1307  ADP1307     0.5254
     26  N3        -6.5280   25.2240   25.8410 N.2   1307  ADP1307    -0.0055
     27  C4        -7.5220   24.3400   25.7780 C.2   1307  ADP1307     0.3518
@<TRIPOS>BOND
     1     4     1    2
     2     1     3    1
     3     1     2    1
     4     1     8    1
     5     7     5    2
     6     8     5    1
     7     5     6    1
     8     5     9    1
     9     9    10    1
    10    14    13    1
    11    13    11    1
    12    13    15    1
    13    10    11    1
    14    11    12    1
    15    15    16    1
    16    15    17    1
    17    12    17    1
    18    17    18    1
    19    18    19    1
    20    18    27    1
    21    19    20    1
    22    27    26    2
    23    27    21    1
    24    26    25    1
    25    20    21    2
    26    21    22    1
    27    25    24    1
    28    22    24    2
    29    22    23    1
