@<TRIPOS>MOLECULE
2cnq_AMP_A_1.pdb
 23 25 0 0 0
SMALL
GASTEIGER

@<TRIPOS>ATOM
      1  P        -23.7170   22.1380   37.5250 P.3   1310  AMP1310     0.5327
      2  O1P      -22.2660   21.9310   37.1500 O.3   1310  AMP1310    -0.1145
      3  O2P      -23.9310   22.6610   38.9290 O.3   1310  AMP1310    -0.1145
      4  O3P      -24.6350   20.9990   37.1380 O.2   1310  AMP1310    -0.2224
      5  O5'      -24.1540   23.3460   36.5570 O.3   1310  AMP1310    -0.2675
      6  C5'      -25.0130   24.4020   36.9800 C.3   1310  AMP1310     0.1860
      7  C4'      -25.1260   25.3980   35.8370 C.3   1310  AMP1310     0.1823
      8  O4'      -23.9180   26.1560   35.7430 O.3   1310  AMP1310    -0.3135
      9  C3'      -25.3120   24.6820   34.5070 C.3   1310  AMP1310     0.2184
     10  O3'      -26.2840   25.3600   33.7100 O.3   1310  AMP1310    -0.2174
     11  C2'      -23.9530   24.7440   33.8470 C.3   1310  AMP1310     0.2570
     12  O2'      -24.0230   24.9020   32.4280 O.3   1310  AMP1310    -0.2130
     13  C1'      -23.3210   25.9700   34.4630 C.3   1310  AMP1310     0.3186
     14  N9       -21.8730   25.8080   34.6220 N.pl3 1310  AMP1310    -0.1439
     15  C8       -21.2490   25.1280   35.5950 C.3   1310  AMP1310     0.3377
     16  N7       -19.9130   25.2190   35.4350 N.2   1310  AMP1310    -0.2095
     17  C5       -19.7050   25.9700   34.3390 C.2   1310  AMP1310     0.2526
     18  C6       -18.5380   26.4630   33.6030 C.2   1310  AMP1310     0.4393
     19  N6       -17.3010   26.1430   34.0310 N.pl3 1310  AMP1310     0.2180
     20  N1       -18.7450   27.2300   32.5050 N.2   1310  AMP1310     0.0021
     21  C2       -19.9850   27.5450   32.0730 C.3   1310  AMP1310     0.5254
     22  N3       -21.1020   27.1370   32.7000 N.2   1310  AMP1310    -0.0055
     23  C4       -21.0060   26.3630   33.8060 C.2   1310  AMP1310     0.3518
@<TRIPOS>BOND
     1    21    20    1
     2    21    22    1
     3    12    11    1
     4    20    18    2
     5    22    23    2
     6    18    19    1
     7    18    17    1
     8    10     9    1
     9    23    17    1
    10    23    14    1
    11    11    13    1
    12    11     9    1
    13    17    16    2
    14    13    14    1
    15    13     8    1
    16     9     7    1
    17    14    15    1
    18    16    15    1
    19     8     7    1
    20     7     6    1
    21     5     6    1
    22     5     1    1
    23     4     1    2
    24     2     1    1
    25     1     3    1
