@<TRIPOS>MOLECULE
2cnq_AMZ_A_1.pdb
 22 23 0 0 0
SMALL
GASTEIGER

@<TRIPOS>ATOM
      1  O5       -10.6310   16.7300   16.6400 O.2   1308  AMZ1308    -0.2653
      2  C6        -9.7220   15.9720   16.3750 C.2   1308  AMZ1308     0.3002
      3  N2        -8.4900   16.3750   16.0850 N.am  1308  AMZ1308    -0.0826
      4  C3A       -9.9300   14.5370   16.3860 C.2   1308  AMZ1308     0.1445
      5  C7A      -11.1140   13.9060   16.6180 C.3   1308  AMZ1308     0.1990
      6  N3       -12.3320   14.3630   16.9640 N.3   1308  AMZ1308    -0.1080
      7  N1        -8.9770   13.6240   16.1290 N.2   1308  AMZ1308    -0.2490
      8  C5        -9.5530   12.4460   16.2140 C.3   1308  AMZ1308     0.2039
      9  N        -10.8660   12.6030   16.4960 N.3   1308  AMZ1308    -0.2080
     10  C1       -11.8060   11.5360   16.7330 C.3   1308  AMZ1308     0.2123
     11  C2       -12.6320   11.1650   15.5380 C.3   1308  AMZ1308     0.2272
     12  C3       -12.9610    9.7260   15.8120 C.3   1308  AMZ1308     0.2155
     13  O2       -14.0330    9.7270   16.7280 O.3   1308  AMZ1308    -0.2176
     14  O1       -13.7560   12.0150   15.4470 O.3   1308  AMZ1308    -0.2161
     15  O        -11.0400   10.3970   17.0080 O.3   1308  AMZ1308    -0.3353
     16  C        -11.6890    9.2450   16.4910 C.3   1308  AMZ1308     0.1798
     17  C4       -10.7620    8.4940   15.5930 C.3   1308  AMZ1308     0.1859
     18  O3       -10.6540    9.1970   14.3660 O.3   1308  AMZ1308    -0.2675
     19  P         -9.8600    8.5060   13.1670 P.3   1308  AMZ1308     0.5327
     20  OP1       -8.4110    8.5150   13.5260 O.3   1308  AMZ1308    -0.1145
     21  O4       -10.1620    9.3980   11.9860 O.2   1308  AMZ1308    -0.2224
     22  OP2      -10.3560    7.1090   12.9820 O.3   1308  AMZ1308    -0.1145
@<TRIPOS>BOND
     1    21    19    2
     2    22    19    1
     3    19    20    1
     4    19    18    1
     5    18    17    1
     6    14    11    1
     7    11    12    1
     8    11    10    1
     9    17    16    1
    10    12    16    1
    11    12    13    1
    12     3     2   am
    13     7     8    1
    14     7     4    2
    15     8     9    1
    16     2     4    1
    17     2     1    2
    18     4     5    1
    19    16    15    1
    20     9     5    1
    21     9    10    1
    22     5     6    1
    23    10    15    1
