@<TRIPOS>MOLECULE
2cnt_COA_A_1.pdb
 48 50 0 0 0
SMALL
GASTEIGER

@<TRIPOS>ATOM
      1  N1A       -7.9530   47.0490   65.8670 N.2   1152  COA1152     0.0021
      2  C2A       -6.7100   47.4900   66.0440 C.3   1152  COA1152     0.5254
      3  N3A       -5.6790   46.9030   65.4370 N.2   1152  COA1152    -0.0055
      4  C4A       -5.8740   45.8450   64.6140 C.2   1152  COA1152     0.3518
      5  C5A       -7.1620   45.3610   64.4110 C.2   1152  COA1152     0.2526
      6  C6A       -8.2140   45.9970   65.0710 C.2   1152  COA1152     0.4393
      7  N6A       -9.4580   45.5710   64.9030 N.pl3 1152  COA1152     0.2180
      8  N7A       -7.0830   44.3310   63.5580 N.2   1152  COA1152    -0.2095
      9  C8A       -5.8010   44.1670   63.2400 C.3   1152  COA1152     0.3377
     10  N9A       -5.0670   45.0940   63.8680 N.pl3 1152  COA1152    -0.1439
     11  C1B       -3.5950   45.2310   63.7790 C.3   1152  COA1152     0.3185
     12  C2B       -2.9780   43.8890   64.2580 C.3   1152  COA1152     0.2543
     13  O2B       -2.8000   43.7760   65.7040 O.3   1152  COA1152    -0.2131
     14  C3B       -1.6810   43.8550   63.4460 C.3   1152  COA1152     0.1928
     15  O3B       -0.7690   44.8410   63.9280 O.3   1152  COA1152    -0.2673
     16  P3B        0.3130   44.4140   65.0670 P.3   1152  COA1152     0.5327
     17  O7A        0.2610   42.7340   65.1770 O.3   1152  COA1152    -0.1145
     18  O8A       -0.3650   44.9850   66.4760 O.3   1152  COA1152    -0.1145
     19  O9A        1.6690   44.9760   64.7780 O.2   1152  COA1152    -0.2224
     20  C4B       -2.1750   44.3270   62.0850 C.3   1152  COA1152     0.1795
     21  O4B       -3.3010   45.2320   62.3560 O.3   1152  COA1152    -0.3136
     22  C5B       -2.5230   43.2240   61.0890 C.3   1152  COA1152     0.1812
     23  O5B       -2.7720   41.9570   61.7080 O.3   1152  COA1152    -0.3112
     24  P1A       -3.6270   40.8200   60.9650 P.3   1152  COA1152     0.2189
     25  O1A       -2.7270   40.3590   59.8840 O.2   1152  COA1152    -0.5170
     26  O2A       -4.1390   39.8030   61.9260 O.3   1152  COA1152    -0.4371
     27  O3A       -4.9470   41.6320   60.4060 O.3   1152  COA1152    -0.2703
     28  P2A       -6.2450   40.8980   59.6890 P.3   1152  COA1152     0.2188
     29  O4A       -5.8830   39.5610   59.1520 O.2   1152  COA1152    -0.5170
     30  O5A       -7.4180   40.9960   60.5910 O.3   1152  COA1152    -0.4371
     31  O6A       -6.5160   41.9500   58.5210 O.3   1152  COA1152    -0.3138
     32  CBP       -7.8060   43.9360   57.8650 C.3   1152  COA1152     0.0645
     33  CCP       -6.7340   43.3740   58.8120 C.3   1152  COA1152     0.1519
     34  CDP       -7.6480   45.4640   57.8690 C.3   1152  COA1152     0.0056
     35  CEP       -7.5600   43.4170   56.4250 C.3   1152  COA1152     0.0056
     36  CAP       -9.1980   43.4660   58.4060 C.3   1152  COA1152     0.2312
     37  OAP       -9.4990   44.1640   59.6140 O.3   1152  COA1152    -0.2131
     38  C9P      -10.3810   43.6540   57.4310 C.2   1152  COA1152     0.2719
     39  O9P      -10.6820   42.7740   56.6150 O.2   1152  COA1152    -0.2706
     40  N8P      -11.0350   44.8210   57.5450 N.am  1152  COA1152    -0.2028
     41  C7P      -12.1730   45.1300   56.6720 C.3   1152  COA1152     0.1248
     42  C6P      -11.6570   45.3980   55.2460 C.3   1152  COA1152     0.1102
     43  C5P      -10.9200   46.7350   55.2300 C.2   1152  COA1152     0.2432
     44  O5P      -11.4240   47.6880   55.8250 O.2   1152  COA1152    -0.2733
     45  N4P       -9.7630   46.7600   54.5380 N.am  1152  COA1152    -0.2044
     46  C3P       -8.8730   47.9440   54.4320 C.3   1152  COA1152     0.1276
     47  C2P       -9.3030   49.0070   53.4310 C.3   1152  COA1152     0.0920
     48  S1P       -9.6900   48.2870   51.8040 S.3   1152  COA1152    -0.0802
@<TRIPOS>BOND
     1    48    47    1
     2    47    46    1
     3    46    45    1
     4    45    43   am
     5    43    42    1
     6    43    44    2
     7    42    41    1
     8    35    32    1
     9    39    38    2
    10    41    40    1
    11    38    40   am
    12    38    36    1
    13    32    34    1
    14    32    36    1
    15    32    33    1
    16    36    37    1
    17    31    33    1
    18    31    28    1
    19    29    28    2
    20    28    27    1
    21    28    30    1
    22    25    24    2
    23    27    24    1
    24    24    23    1
    25    24    26    1
    26    22    23    1
    27    22    20    1
    28    20    21    1
    29    20    14    1
    30    21    11    1
    31     9     8    1
    32     9    10    1
    33    14    15    1
    34    14    12    1
    35     8     5    2
    36    11    10    1
    37    11    12    1
    38    10     4    1
    39    15    16    1
    40    12    13    1
    41     5     4    1
    42     5     6    1
    43     4     3    2
    44    19    16    2
    45     7     6    1
    46    16    17    1
    47    16    18    1
    48     6     1    2
    49     3     2    1
    50     1     2    1
