@<TRIPOS>MOLECULE
2cnv_SSS_A_1.pdb
 30 31 0 0 0
SMALL
GASTEIGER

@<TRIPOS>ATOM
      1  PA        -7.5580   25.5360   -6.4480 P.3   1308  SSS1308     0.5327
      2  O1A       -6.9040   26.2650   -7.5870 O.2   1308  SSS1308    -0.2224
      3  O2A       -7.3410   24.0430   -6.4850 O.3   1308  SSS1308    -0.1145
      4  O3A       -8.9680   25.9630   -6.1650 O.3   1308  SSS1308    -0.1145
      5  O5'       -6.7480   26.0130   -5.1500 O.3   1308  SSS1308    -0.2675
      6  C5'       -6.8090   25.3130   -3.9090 C.3   1308  SSS1308     0.1859
      7  C4'       -6.0270   26.0950   -2.8640 C.3   1308  SSS1308     0.1798
      8  O4'       -4.7480   26.4140   -3.4080 O.3   1308  SSS1308    -0.3353
      9  C1'       -4.3470   27.7070   -2.9530 C.3   1308  SSS1308     0.2123
     10  N9        -3.4400   28.3880   -3.9160 N.3   1308  SSS1308    -0.2080
     11  C4        -3.3830   28.3450   -5.2490 C.3   1308  SSS1308     0.1989
     12  O6        -2.2560   28.4520   -7.9930 O.2   1308  SSS1308    -0.2670
     13  N3        -4.2520   27.6450   -6.0440 N.3   1308  SSS1308    -0.1080
     14  C6        -1.9960   29.3160   -7.1660 C.2   1308  SSS1308     0.2813
     15  N6        -1.3800   30.4610   -7.4730 N.am  1308  SSS1308    -0.1902
     16  C61       -0.9660   30.8130   -8.8270 C.3   1308  SSS1308     0.2093
     17  C62        0.3960   30.2700   -9.1680 C.2   1308  SSS1308     0.3848
     18  C63       -0.9500   32.3410   -8.8340 C.3   1308  SSS1308     0.1472
     19  C64       -2.1220   32.8710   -9.6300 C.2   1308  SSS1308     0.3672
     20  O65        0.9440   30.6680  -10.2100 O.co2 1308  SSS1308    -0.2437
     21  O66        0.9460   29.4370   -8.4140 O.co2 1308  SSS1308    -0.2437
     22  O67       -3.0750   33.3840   -9.0030 O.co2 1308  SSS1308    -0.2456
     23  O68       -2.1030   32.7870  -10.8830 O.co2 1308  SSS1308    -0.2456
     24  C5        -2.3440   29.1170   -5.7310 C.2   1308  SSS1308     0.1428
     25  N7        -1.7460   29.6290   -4.6340 N.2   1308  SSS1308    -0.2491
     26  C8        -2.4150   29.1730   -3.5440 C.3   1308  SSS1308     0.2039
     27  C2'       -5.6090   28.4710   -2.5630 C.3   1308  SSS1308     0.2272
     28  O2'       -6.0210   29.5010   -3.4550 O.3   1308  SSS1308    -0.2161
     29  C3'       -6.6870   27.4200   -2.5040 C.3   1308  SSS1308     0.2155
     30  O3'       -7.1330   27.4580   -1.1550 O.3   1308  SSS1308    -0.2176
@<TRIPOS>BOND
     1    23    19   ar
     2    20    17   ar
     3    19    22   ar
     4    19    18    1
     5    17    16    1
     6    17    21   ar
     7    18    16    1
     8    16    15    1
     9    12    14    2
    10     2     1    2
    11    15    14   am
    12    14    24    1
    13     3     1    1
    14     1     4    1
    15     1     5    1
    16    13    11    1
    17    24    11    1
    18    24    25    2
    19    11    10    1
    20     5     6    1
    21    25    26    1
    22    10    26    1
    23    10     9    1
    24     6     7    1
    25    28    27    1
    26     8     9    1
    27     8     7    1
    28     9    27    1
    29     7    29    1
    30    27    29    1
    31    29    30    1
