@<TRIPOS>MOLECULE
2cnw_GDP_A_1.pdb
 28 30 0 0 0
SMALL
GASTEIGER

@<TRIPOS>ATOM
      1  PB       -23.6720  -16.8100    1.4200 P.3   1001  GDP1001     0.5373
      2  O1B      -24.0660  -18.2350    1.2920 O.3   1001  GDP1001    -0.1143
      3  O2B      -24.6360  -15.8610    0.7530 O.2   1001  GDP1001    -0.2221
      4  O3B      -22.2830  -16.5390    0.9150 O.3   1001  GDP1001    -0.1143
      5  O3A      -23.6870  -16.4570    2.9860 O.3   1001  GDP1001    -0.2261
      6  PA       -22.4810  -15.8770    3.8890 P.3   1001  GDP1001     0.2231
      7  O1A      -21.3050  -16.7940    3.8100 O.3   1001  GDP1001    -0.4370
      8  O2A      -22.3180  -14.3990    3.6550 O.2   1001  GDP1001    -0.5169
      9  O5'      -23.0910  -16.1700    5.3640 O.3   1001  GDP1001    -0.3111
     10  C5'      -24.3600  -15.7110    5.8130 C.3   1001  GDP1001     0.1813
     11  C4'      -24.2070  -15.4600    7.3110 C.3   1001  GDP1001     0.1799
     12  O4'      -24.1690  -16.7150    7.9730 O.3   1001  GDP1001    -0.3326
     13  C3'      -22.8830  -14.7690    7.6790 C.3   1001  GDP1001     0.2158
     14  O3'      -23.2030  -13.8450    8.7130 O.3   1001  GDP1001    -0.2175
     15  C2'      -21.9830  -15.8860    8.2180 C.3   1001  GDP1001     0.2310
     16  O2'      -21.0760  -15.4930    9.2390 O.3   1001  GDP1001    -0.2158
     17  C1'      -23.0020  -16.8200    8.7970 C.3   1001  GDP1001     0.2293
     18  N9       -22.5540  -18.2200    8.8610 N.pl3 1001  GDP1001    -0.2354
     19  C8       -22.1190  -18.9940    7.8450 C.3   1001  GDP1001     0.2246
     20  N7       -21.8290  -20.2330    8.3140 N.2   1001  GDP1001    -0.2322
     21  C5       -22.1090  -20.2620    9.6290 C.2   1001  GDP1001     0.2182
     22  C6       -22.0320  -21.2560   10.7260 C.1   1001  GDP1001     0.2372
     23  O6       -21.6080  -22.4200   10.4720 O.2   1001  GDP1001    -0.2069
     24  N1       -22.3950  -20.8580   11.9790 N.2   1001  GDP1001    -0.2485
     25  C2       -22.8260  -19.5990   12.2160 C.1   1001  GDP1001     0.2531
     26  N2       -23.1770  -19.2360   13.4740 N.pl3 1001  GDP1001    -0.0226
     27  N3       -22.9330  -18.6640   11.2440 N.2   1001  GDP1001    -0.3074
     28  C4       -22.5960  -18.9320    9.9810 C.2   1001  GDP1001     0.2300
@<TRIPOS>BOND
     1     3     1    2
     2     4     1    1
     3     2     1    1
     4     1     5    1
     5     5     6    1
     6     8     6    2
     7     7     6    1
     8     6     9    1
     9     9    10    1
    10    10    11    1
    11    11    13    1
    12    11    12    1
    13    13    15    1
    14    13    14    1
    15    19    20    1
    16    19    18    1
    17    12    17    1
    18    15    17    1
    19    15    16    1
    20    20    21    2
    21    17    18    1
    22    18    28    1
    23    21    28    1
    24    21    22    1
    25    28    27    2
    26    23    22    2
    27    22    24    2
    28    27    25    2
    29    24    25    2
    30    25    26    1
