@<TRIPOS>MOLECULE
2cnw_5GP_D_1.pdb
 24 26 0 0 0
SMALL
GASTEIGER

@<TRIPOS>ATOM
      1  P        -14.8520  -12.8350   21.0900 P.3   3001  5GP3001     0.5327
      2  O1P      -13.6840  -13.2630   20.2430 O.2   3001  5GP3001    -0.2224
      3  O2P      -15.9740  -13.8020   21.3370 O.3   3001  5GP3001    -0.1145
      4  O3P      -14.2820  -12.3220   22.3820 O.3   3001  5GP3001    -0.1145
      5  O5'      -15.4880  -11.4590   20.5360 O.3   3001  5GP3001    -0.2675
      6  C5'      -16.5080  -10.8030   21.2810 C.3   3001  5GP3001     0.1859
      7  C4'      -17.2850   -9.8050   20.4410 C.3   3001  5GP3001     0.1801
      8  O4'      -17.1220  -10.0430   19.0320 O.3   3001  5GP3001    -0.3326
      9  C3'      -18.7660   -9.9930   20.7410 C.3   3001  5GP3001     0.2158
     10  O3'      -19.2350   -9.0700   21.7360 O.3   3001  5GP3001    -0.2175
     11  C2'      -19.4510   -9.8060   19.3990 C.3   3001  5GP3001     0.2310
     12  O2'      -19.8040   -8.4420   19.1920 O.3   3001  5GP3001    -0.2158
     13  C1'      -18.3900  -10.1830   18.3790 C.3   3001  5GP3001     0.2293
     14  N9       -18.6350  -11.6000   17.9760 N.pl3 3001  5GP3001    -0.2354
     15  C8       -17.8680  -12.6670   18.2800 C.3   3001  5GP3001     0.2246
     16  N7       -18.3870  -13.8060   17.7560 N.2   3001  5GP3001    -0.2322
     17  C5       -19.5130  -13.4850   17.0990 C.2   3001  5GP3001     0.2182
     18  C6       -20.5540  -14.2050   16.3050 C.1   3001  5GP3001     0.2372
     19  O6       -20.5020  -15.4420   16.1230 O.2   3001  5GP3001    -0.2069
     20  N1       -21.5650  -13.4770   15.7950 N.2   3001  5GP3001    -0.2485
     21  C2       -21.6500  -12.1370   15.9720 C.1   3001  5GP3001     0.2531
     22  N2       -22.6870  -11.4670   15.4350 N.pl3 3001  5GP3001    -0.0226
     23  N3       -20.7370  -11.4320   16.6700 N.2   3001  5GP3001    -0.3074
     24  C4       -19.6780  -12.0280   17.2460 C.2   3001  5GP3001     0.2300
@<TRIPOS>BOND
     1    22    21    1
     2    20    21    2
     3    20    18    2
     4    21    23    2
     5    19    18    2
     6    18    17    1
     7    23    24    2
     8    17    24    1
     9    17    16    2
    10    24    14    1
    11    16    15    1
    12    14    15    1
    13    14    13    1
    14    13     8    1
    15    13    11    1
    16     8     7    1
    17    12    11    1
    18    11     9    1
    19     2     1    2
    20     7     9    1
    21     7     6    1
    22     5     1    1
    23     5     6    1
    24     9    10    1
    25     1     3    1
    26     1     4    1
