@<TRIPOS>MOLECULE
2cnx_III_P_1.pdb
 44 43 0 0 0
SMALL
GASTEIGER

@<TRIPOS>ATOM
      1  N         16.4800   49.9350   25.1280 N.3     1  ALA1       -0.1231
      2  CA        17.1070   50.0320   26.4860 C.3     1  ALA1        0.1694
      3  C         18.6090   49.6920   26.4750 C.2     1  ALA1        0.2592
      4  O         19.2640   49.6970   27.5200 O.2     1  ALA1       -0.2718
      5  CB        16.3770   49.1170   27.4640 C.3     1  ALA1        0.0304
      6  N         19.1470   49.3630   25.3030 N.am    2  ARG2       -0.1966
      7  CA        20.5690   49.0630   25.1870 C.3     2  ARG2        0.1729
      8  C         21.3270   50.3050   25.6860 C.2     2  ARG2        0.2617
      9  O         22.4770   50.2260   26.1390 O.2     2  ARG2       -0.2715
     10  CB        20.9430   48.7970   23.7280 C.3     2  ARG2        0.0348
     11  CG        22.4430   48.7230   23.4800 C.3     2  ARG2        0.0492
     12  CD        22.7480   48.5900   22.0050 C.3     2  ARG2        0.2205
     13  NE        22.1020   47.4150   21.4210 N.pl3   2  ARG2       -0.0865
     14  CZ        22.6730   46.2170   21.3030 C.cat   2  ARG2        0.5346
     15  NH1       23.9190   46.0140   21.7230 N.pl3   2  ARG2        0.1354
     16  NH2       21.9990   45.2090   20.7640 N.pl3   2  ARG2        0.1354
     17  N         20.6620   51.4560   25.6240 N.am    3  THR3       -0.1937
     18  CA        21.2800   52.7090   26.0680 C.3     3  THR3        0.2028
     19  C         21.4270   52.8710   27.5920 C.2     3  THR3        0.2642
     20  O         22.1430   53.7700   28.0670 O.2     3  THR3       -0.2714
     21  CB        20.5060   53.9160   25.5230 C.3     3  THR3        0.1808
     22  OG1       19.1170   53.7660   25.8310 O.3     3  THR3       -0.2208
     23  CG2       20.6900   54.0320   24.0250 C.3     3  THR3        0.0379
     24  N         20.7330   52.0280   28.3550 N.am    4  LYS4       -0.1963
     25  CA        20.8250   52.0780   29.8120 C.3     4  LYS4        0.1728
     26  CB        19.4420   52.0800   30.4520 C.3     4  LYS4        0.0311
     27  CG        18.6440   53.3300   30.1770 C.3     4  LYS4        0.0037
     28  CD        19.2820   54.5690   30.7810 C.3     4  LYS4        0.0174
     29  CE        18.6440   55.8370   30.2170 C.3     4  LYS4        0.0722
     30  NZ        19.0480   57.0760   30.9220 N.3     4  LYS4       -0.2703
     31  CH1       20.4430   57.3150   31.3510 C.3     4  LYS4        0.0897
     32  CH2       18.6730   58.0900   29.9170 C.3     4  LYS4        0.0897
     33  C         21.6050   50.8790   30.3220 C.2     4  LYS4        0.2617
     34  O         21.7510   49.8840   29.6140 O.2     4  LYS4       -0.2715
     35  N         22.0940   50.9720   31.5540 N.am    5  GLN5       -0.1941
     36  CA        22.8740   49.8900   32.1420 C.3     5  GLN5        0.1983
     37  C         21.9940   48.7460   32.6290 C.2     5  GLN5        0.3842
     38  O         21.0840   49.0210   33.4350 O.co2   5  GLN5       -0.2437
     39  CB        23.7020   50.4230   33.3010 C.3     5  GLN5        0.0429
     40  CG        25.1570   50.0580   33.2040 C.3     5  GLN5        0.0909
     41  CD        25.8650   50.2000   34.5250 C.2     5  GLN5        0.2608
     42  OE1       26.0070   51.3040   35.0550 O.2     5  GLN5       -0.2717
     43  NE2       26.3120   49.0740   35.0720 N.am    5  GLN5       -0.0878
     44  OXT       22.2260   47.5930   32.1980 O.co2   5  GLN5       -0.2437
@<TRIPOS>BOND
     1    16    14    1
     2    14    13    2
     3    14    15    1
     4    13    12    1
     5    12    11    1
     6    11    10    1
     7    10     7    1
     8    23    21    1
     9     1     2    1
    10     7     6    1
    11     7     8    1
    12     6     3   am
    13    21    22    1
    14    21    18    1
    15    17     8   am
    16    17    18    1
    17     8     9    2
    18    18    19    1
    19     3     2    1
    20     3     4    2
    21     2     5    1
    22    19    20    2
    23    19    24   am
    24    24    25    1
    25    34    33    2
    26    25    33    1
    27    25    26    1
    28    32    30    1
    29    27    26    1
    30    27    28    1
    31    29    28    1
    32    29    30    1
    33    33    35   am
    34    30    31    1
    35    35    36    1
    36    36    37    1
    37    36    39    1
    38    44    37   ar
    39    37    38   ar
    40    40    39    1
    41    40    41    1
    42    41    42    2
    43    41    43   am
