@<TRIPOS>MOLECULE
2co0_III_B_1.pdb
 41 40 0 0 0
SMALL
GASTEIGER

@<TRIPOS>ATOM
      1  N          6.2170    3.1830   -0.6780 N.3     1  ALA1       -0.1231
      2  CA         4.9690    3.0850    0.1460 C.3     1  ALA1        0.1694
      3  C          5.2790    2.7360    1.5950 C.2     1  ALA1        0.2592
      4  O          4.3830    2.7240    2.4370 O.2     1  ALA1       -0.2718
      5  CB         4.0280    2.0700   -0.4280 C.3     1  ALA1        0.0304
      6  N          6.5480    2.4360    1.8700 N.am    2  ARG2       -0.1966
      7  CA         6.9990    2.1430    3.2300 C.3     2  ARG2        0.1729
      8  C          6.6620    3.4020    4.0370 C.2     2  ARG2        0.2617
      9  O          6.3890    3.3400    5.2310 O.2     2  ARG2       -0.2715
     10  CB         8.5220    1.8990    3.2420 C.3     2  ARG2        0.0348
     11  CG         9.1530    1.7400    4.6340 C.3     2  ARG2        0.0492
     12  CD        10.6910    1.6470    4.5550 C.3     2  ARG2        0.2205
     13  NE        11.1370    0.4900    3.7760 N.pl3   2  ARG2       -0.0865
     14  CZ        11.3150   -0.7360    4.2710 C.cat   2  ARG2        0.5346
     15  NH1       11.0960   -0.9770    5.5580 N.pl3   2  ARG2        0.1354
     16  NH2       11.6870   -1.7290    3.4720 N.pl3   2  ARG2        0.1354
     17  N          6.6700    4.5400    3.3540 N.am    3  THR3       -0.1937
     18  CA         6.3800    5.8260    3.9740 C.3     3  THR3        0.2028
     19  C          4.9390    6.0010    4.4370 C.2     3  THR3        0.2642
     20  O          4.6180    6.9730    5.1170 O.2     3  THR3       -0.2714
     21  CB         6.7110    6.9770    3.0220 C.3     3  THR3        0.1808
     22  OG1        5.8940    6.8730    1.8530 O.3     3  THR3       -0.2208
     23  CG2        8.1710    6.9260    2.6290 C.3     3  THR3        0.0379
     24  N          4.0670    5.0840    4.0430 N.am    4  LYS4       -0.1963
     25  CA         2.6760    5.1450    4.4610 C.3     4  LYS4        0.1728
     26  C          2.4600    3.9810    5.3950 C.2     4  LYS4        0.2616
     27  O          3.2030    3.0020    5.3440 O.2     4  LYS4       -0.2715
     28  CB         1.7240    5.0210    3.2790 C.3     4  LYS4        0.0311
     29  CG         1.3550    6.3440    2.6560 C.3     4  LYS4        0.0038
     30  CD         0.3000    6.1760    1.5760 C.3     4  LYS4        0.0206
     31  CE         0.2320    7.4250    0.7230 C.3     4  LYS4        0.1093
     32  NZ        -0.6630    7.2600   -0.4380 N.3     4  LYS4       -0.1314
     33  N          1.4520    4.0760    6.2510 N.am    5  GLN5       -0.1977
     34  CA         1.1900    2.9960    7.1930 C.3     5  GLN5        0.1601
     35  C          0.2020    1.9750    6.6190 C.2     5  GLN5        0.2287
     36  O         -0.8490    2.4090    6.0840 O.2     5  GLN5       -0.2864
     37  CB         0.6330    3.5800    8.4800 C.3     5  GLN5        0.0394
     38  CG         0.3790    2.5530    9.5520 C.3     5  GLN5        0.0908
     39  CD        -0.5300    3.0930   10.6310 C.2     5  GLN5        0.2608
     40  OE1       -0.4550    4.2740   10.9830 O.2     5  GLN5       -0.2717
     41  NE2       -1.3860    2.2310   11.1750 N.am    5  GLN5       -0.0878
@<TRIPOS>BOND
     1     1     2    1
     2    32    31    1
     3     5     2    1
     4     2     3    1
     5    31    30    1
     6    30    29    1
     7     3     6   am
     8     3     4    2
     9    22    21    1
    10     6     7    1
    11    23    21    1
    12    29    28    1
    13    21    18    1
    14     7    10    1
    15     7     8    1
    16    10    11    1
    17    28    25    1
    18    17    18    1
    19    17     8   am
    20    16    14    1
    21    13    14    2
    22    13    12    1
    23    18    19    1
    24     8     9    2
    25    24    19   am
    26    24    25    1
    27    14    15    1
    28    19    20    2
    29    25    26    1
    30    12    11    1
    31    27    26    2
    32    26    33   am
    33    36    35    2
    34    33    34    1
    35    35    34    1
    36    34    37    1
    37    37    38    1
    38    38    39    1
    39    39    40    2
    40    39    41   am
