@<TRIPOS>MOLECULE
2cog_PLP_A_1.pdb
 15 15 0 0 0
SMALL
GASTEIGER

@<TRIPOS>ATOM
      1  N1       -34.9930   -0.8930  -20.5520 N.ar  410  PLP410     -0.2452
      2  C2       -34.1550   -0.8940  -19.4740 C.ar  410  PLP410      0.0978
      3  C2A      -33.3720    0.3980  -19.1250 C.3   410  PLP410      0.0555
      4  C3       -34.0190   -2.0360  -18.7290 C.ar  410  PLP410      0.2049
      5  O3       -33.2010   -2.0550  -17.6300 O.3   410  PLP410     -0.2857
      6  C4       -34.7250   -3.1760  -19.0650 C.ar  410  PLP410      0.0182
      7  C4A      -34.4880   -4.4300  -18.1990 C.3   410  PLP410      0.0342
      8  C5       -35.5780   -3.1440  -20.1860 C.ar  410  PLP410      0.0261
      9  C6       -35.6880   -1.9900  -20.9020 C.ar  410  PLP410      0.0965
     10  C5A      -36.4480   -4.3220  -20.6530 C.3   410  PLP410      0.1815
     11  O4P      -35.8500   -5.5230  -21.0680 O.3   410  PLP410     -0.2653
     12  P        -36.7440   -6.8630  -20.9410 P.3   410  PLP410      0.5329
     13  O1P      -37.2050   -7.0630  -19.5440 O.3   410  PLP410     -0.1145
     14  O2P      -35.5380   -7.8460  -21.2780 O.3   410  PLP410     -0.1145
     15  O3P      -37.7440   -6.8510  -22.0360 O.2   410  PLP410     -0.2224
@<TRIPOS>BOND
     1    15    12    2
     2    14    12    1
     3    11    12    1
     4    11    10    1
     5    12    13    1
     6     9     1   ar
     7     9     8   ar
     8    10     8    1
     9     1     2   ar
    10     8     6   ar
    11     2     3    1
    12     2     4   ar
    13     6     4   ar
    14     6     7    1
    15     4     5    1
