@<TRIPOS>MOLECULE
2coi_GBN_A_1.pdb
 12 12 0 0 0
SMALL
GASTEIGER

@<TRIPOS>ATOM
      1  N1       -38.7040   -0.9900  -15.9740 N.3   420  GBN420     -0.1314
      2  C2       -38.1480   -2.1270  -15.2970 C.3   420  GBN420      0.1098
      3  C3       -37.3910   -3.7840  -16.4940 C.3   420  GBN420      0.1155
      4  C1R      -37.0240   -3.1790  -15.0750 C.3   420  GBN420      0.0284
      5  C2R      -37.0540   -4.3370  -13.9830 C.3   420  GBN420      0.0020
      6  C3R      -36.6720   -3.6930  -12.5850 C.3   420  GBN420      0.0001
      7  C4R      -35.2150   -3.0920  -12.6530 C.3   420  GBN420      0.0000
      8  C5R      -35.1860   -1.9410  -13.7200 C.3   420  GBN420      0.0001
      9  C6R      -35.5720   -2.5380  -15.1000 C.3   420  GBN420      0.0020
     10  C        -38.5490   -4.4590  -16.8820 C.2   420  GBN420      0.3649
     11  OA       -39.2760   -3.7450  -17.6140 O.co2 420  GBN420     -0.2457
     12  OB       -38.8380   -5.6310  -16.5640 O.co2 420  GBN420     -0.2457
@<TRIPOS>BOND
     1    11    10   ar
     2    10    12   ar
     3    10     3    1
     4     3     4    1
     5     1     2    1
     6     2     4    1
     7     9     4    1
     8     9     8    1
     9     4     5    1
    10     5     6    1
    11     8     7    1
    12     7     6    1
