@<TRIPOS>MOLECULE
2coi_PLP_A_1.pdb
 15 15 0 0 0
SMALL
GASTEIGER

@<TRIPOS>ATOM
      1  N1       -34.9410   -0.6320  -20.9270 N.ar  410  PLP410     -0.2452
      2  C2       -34.0300   -0.6130  -19.9210 C.ar  410  PLP410      0.0978
      3  C2A      -33.2310    0.6870  -19.6880 C.3   410  PLP410      0.0555
      4  C3       -33.8390   -1.7460  -19.1520 C.ar  410  PLP410      0.2049
      5  O3       -32.9480   -1.7520  -18.1120 O.3   410  PLP410     -0.2857
      6  C4       -34.5580   -2.8800  -19.4040 C.ar  410  PLP410      0.0182
      7  C4A      -34.2810   -4.1200  -18.5440 C.3   410  PLP410      0.0342
      8  C5       -35.4860   -2.8700  -20.4550 C.ar  410  PLP410      0.0261
      9  C6       -35.6550   -1.7410  -21.1860 C.ar  410  PLP410      0.0965
     10  C5A      -36.3660   -4.0630  -20.8420 C.3   410  PLP410      0.1815
     11  O4P      -35.7110   -5.2520  -21.2620 O.3   410  PLP410     -0.2653
     12  P        -36.6220   -6.5930  -21.2470 P.3   410  PLP410      0.5329
     13  O1P      -37.1810   -6.7930  -19.8820 O.3   410  PLP410     -0.1145
     14  O2P      -35.5130   -7.7150  -21.4820 O.3   410  PLP410     -0.1145
     15  O3P      -37.5330   -6.4420  -22.4180 O.2   410  PLP410     -0.2224
@<TRIPOS>BOND
     1    15    12    2
     2    14    12    1
     3    11    12    1
     4    11    10    1
     5    12    13    1
     6     9     1   ar
     7     9     8   ar
     8     1     2   ar
     9    10     8    1
    10     8     6   ar
    11     2     3    1
    12     2     4   ar
    13     6     4   ar
    14     6     7    1
    15     4     5    1
