@<TRIPOS>MOLECULE
2coj_GBN_A_1.pdb
 12 12 0 0 0
SMALL
GASTEIGER

@<TRIPOS>ATOM
      1  N1       -38.9520   -1.4830  -15.8100 N.3   420  GBN420     -0.1314
      2  C2       -38.3280   -2.5350  -15.0530 C.3   420  GBN420      0.1098
      3  C3       -37.5570   -4.2710  -16.1160 C.3   420  GBN420      0.1155
      4  C1R      -37.1580   -3.5260  -14.7790 C.3   420  GBN420      0.0284
      5  C2R      -37.1070   -4.5800  -13.5930 C.3   420  GBN420      0.0020
      6  C3R      -36.6980   -3.8020  -12.2730 C.3   420  GBN420      0.0001
      7  C4R      -35.2670   -3.1630  -12.4430 C.3   420  GBN420      0.0000
      8  C5R      -35.3140   -2.1200  -13.6100 C.3   420  GBN420      0.0001
      9  C6R      -35.7300   -2.8590  -14.9160 C.3   420  GBN420      0.0020
     10  C        -38.7160   -4.9900  -16.3860 C.2   420  GBN420      0.3649
     11  OA       -39.5300   -4.2950  -17.0380 O.co2 420  GBN420     -0.2457
     12  OB       -38.9450   -6.1730  -16.0390 O.co2 420  GBN420     -0.2457
@<TRIPOS>BOND
     1    11    10   ar
     2    10     3    1
     3    10    12   ar
     4     3     4    1
     5     1     2    1
     6     2     4    1
     7     9     4    1
     8     9     8    1
     9     4     5    1
    10     8     7    1
    11     5     6    1
    12     7     6    1
