@<TRIPOS>MOLECULE
2coj_PLP_A_1.pdb
 15 15 0 0 0
SMALL
GASTEIGER

@<TRIPOS>ATOM
      1  N1       -35.1510   -0.9850  -20.5230 N.ar  410  PLP410     -0.2452
      2  C2       -34.1960   -0.9810  -19.5590 C.ar  410  PLP410      0.0978
      3  C2A      -33.3880    0.3340  -19.3060 C.3   410  PLP410      0.0555
      4  C3       -33.9680   -2.1370  -18.8350 C.ar  410  PLP410      0.2049
      5  O3       -33.0340   -2.1470  -17.8710 O.3   410  PLP410     -0.2857
      6  C4       -34.6840   -3.2940  -19.0680 C.ar  410  PLP410      0.0182
      7  C4A      -34.3310   -4.5580  -18.2380 C.3   410  PLP410      0.0342
      8  C5       -35.6560   -3.2600  -20.0690 C.ar  410  PLP410      0.0261
      9  C6       -35.8660   -2.1040  -20.7690 C.ar  410  PLP410      0.0965
     10  C5A      -36.5390   -4.4170  -20.4390 C.3   410  PLP410      0.1815
     11  O4P      -35.9490   -5.6090  -20.9240 O.3   410  PLP410     -0.2653
     12  P        -36.8950   -6.8700  -20.7320 P.3   410  PLP410      0.5329
     13  O1P      -37.3510   -6.9840  -19.3220 O.3   410  PLP410     -0.1145
     14  O2P      -35.7310   -7.9210  -21.0630 O.3   410  PLP410     -0.1145
     15  O3P      -37.9110   -6.8600  -21.8000 O.2   410  PLP410     -0.2224
@<TRIPOS>BOND
     1    15    12    2
     2    14    12    1
     3    11    12    1
     4    11    10    1
     5     9     1   ar
     6     9     8   ar
     7    12    13    1
     8     1     2   ar
     9    10     8    1
    10     8     6   ar
    11     2     3    1
    12     2     4   ar
    13     6     4   ar
    14     6     7    1
    15     4     5    1
