@<TRIPOS>MOLECULE
2cp4_CAM_A_1.pdb
 11 12 0 0 0
SMALL
GASTEIGER

@<TRIPOS>ATOM
      1  C1        46.3250   44.4450   14.7800 C.3   416  CAM416      0.0515
      2  C2        44.7680   44.3050   14.6420 C.2   416  CAM416      0.1498
      3  O         43.9430   44.5450   15.5280 O.2   416  CAM416     -0.2961
      4  C3        44.4750   44.1760   13.1240 C.3   416  CAM416      0.0645
      5  C4        45.9320   44.3470   12.5240 C.3   416  CAM416      0.0077
      6  C5        46.4660   45.7780   12.7100 C.3   416  CAM416      0.0009
      7  C6        46.7120   45.8710   14.2290 C.3   416  CAM416      0.0069
      8  C7        46.7870   43.4840   13.5730 C.3   416  CAM416      0.0066
      9  C8        46.4900   41.9890   13.6520 C.3   416  CAM416      0.0004
     10  C9        48.2850   43.3560   13.2650 C.3   416  CAM416      0.0004
     11  C10       46.8740   44.1510   16.1770 C.3   416  CAM416      0.0073
@<TRIPOS>BOND
     1     5     6    1
     2     5     4    1
     3     5     8    1
     4     6     7    1
     5     4     2    1
     6    10     8    1
     7     8     9    1
     8     8     1    1
     9     7     1    1
    10     2     1    1
    11     2     3    2
    12     1    11    1
