@<TRIPOS>MOLECULE
2cp4_HEM_A_1.pdb
 43 50 0 0 0
SMALL
GASTEIGER

@<TRIPOS>ATOM
      1 FE         48.4580   46.2170    9.0150 Fe    415  HEM415      0.0000
      2  CHA       45.3560   44.8570    8.8480 C.2   415  HEM415      0.0000
      3  CHB       49.8340   43.0590    9.4310 C.2   415  HEM415      0.0000
      4  CHC       51.5410   47.5680    9.5200 C.2   415  HEM415      0.0000
      5  CHD       47.0450   49.2960    9.5770 C.2   415  HEM415      0.0000
      6  NA        47.7250   44.3650    9.2180 N.ar  415  HEM415      0.0000
      7  C1A       46.4080   43.9790    8.9680 C.ar  415  HEM415      0.0000
      8  C2A       46.3320   42.5660    8.9380 C.ar  415  HEM415      0.0000
      9  C3A       47.5620   42.0620    9.1430 C.ar  415  HEM415      0.0000
     10  C4A       48.4580   43.1800    9.2570 C.ar  415  HEM415      0.0000
     11  CMA       48.0250   40.5840    9.1320 C.3   415  HEM415      0.0000
     12  CAA       45.0270   41.7540    8.7350 C.3   415  HEM415      0.0000
     13  CBA       44.3390   41.4380   10.1000 C.3   415  HEM415      0.0000
     14  CGA       43.1280   40.5820    9.9880 C.2   415  HEM415      0.0000
     15  O1A       42.8540   40.0540    8.8810 O.co2 415  HEM415      0.0000
     16  O2A       42.6060   40.2860   11.1040 O.co2 415  HEM415      0.0000
     17  NB        50.2930   45.4410    9.6080 N.2   415  HEM415      0.0000
     18  C1B       50.6890   44.1440    9.4170 C.2   415  HEM415      0.0000
     19  C2B       52.1260   44.0700    9.3070 C.2   415  HEM415      0.0000
     20  C3B       52.6030   45.3180    9.3580 C.2   415  HEM415      0.0000
     21  C4B       51.4780   46.1970    9.5060 C.2   415  HEM415      0.0000
     22  CMB       52.9380   42.7520    9.2370 C.3   415  HEM415      0.0000
     23  CAB       54.0550   45.8400    9.2370 C.2   415  HEM415      0.0000
     24  CBB       55.1150   45.1080    8.9560 C.2   415  HEM415      0.0000
     25  NC        49.1500   48.0410    9.5630 N.ar  415  HEM415      0.0000
     26  C1C       50.4910   48.4410    9.4570 C.ar  415  HEM415      0.0000
     27  C2C       50.5710   49.8740    9.3970 C.ar  415  HEM415      0.0000
     28  C3C       49.3310   50.3400    9.4610 C.ar  415  HEM415      0.0000
     29  C4C       48.4320   49.2190    9.6150 C.ar  415  HEM415      0.0000
     30  CMC       51.9150   50.6750    9.2680 C.3   415  HEM415      0.0000
     31  CAC       48.8560   51.8220    9.3530 C.2   415  HEM415      0.0000
     32  CBC       48.8120   52.5540   10.4510 C.2   415  HEM415      0.0000
     33  ND        46.5620   46.9440    9.3150 N.2   415  HEM415      0.0000
     34  C1D       46.1790   48.2790    9.2660 C.2   415  HEM415      0.0000
     35  C2D       44.7470   48.3660    9.1450 C.2   415  HEM415      0.0000
     36  C3D       44.2720   47.1180    9.0240 C.2   415  HEM415      0.0000
     37  C4D       45.3970   46.2110    9.0250 C.2   415  HEM415      0.0000
     38  CMD       43.9440   49.6880    9.1100 C.3   415  HEM415      0.0000
     39  CAD       42.8240   46.6460    8.7920 C.3   415  HEM415      0.0000
     40  CBD       42.1910   46.8510    7.4440 C.3   415  HEM415      0.0000
     41  CGD       40.8270   46.1820    7.2870 C.2   415  HEM415      0.0000
     42  O1D       40.3380   46.1940    6.1610 O.co2 415  HEM415      0.0000
     43  O2D       40.3250   45.5600    8.2480 O.co2 415  HEM415      0.0000
@<TRIPOS>BOND
     1    42    41   ar
     2    41    40    1
     3    41    43   ar
     4    40    39    1
     5    12     8    1
     6    12    13    1
     7    39    36    1
     8     2     7    2
     9     2    37    1
    10    15    14   ar
    11     8     7   ar
    12     8     9   ar
    13    24    23    2
    14     7     6   ar
    15     1     6    1
    16     1    33    1
    17     1    25    1
    18     1    17    1
    19    36    37    1
    20    36    35    2
    21    37    33    2
    22    38    35    1
    23    11     9    1
    24     9    10   ar
    25    35    34    1
    26     6    10   ar
    27    22    19    1
    28    23    20    1
    29    10     3    2
    30    34    33    1
    31    34     5    2
    32    30    27    1
    33    19    20    2
    34    19    18    1
    35    31    28    1
    36    31    32    2
    37    20    21    1
    38    27    26   ar
    39    27    28   ar
    40    18     3    1
    41    18    17    2
    42    26     4    1
    43    26    25   ar
    44    28    29   ar
    45    21     4    2
    46    21    17    1
    47    25    29   ar
    48     5    29    1
    49    14    13    1
    50    14    16   ar
