@<TRIPOS>MOLECULE
2cpo_HEM_A_1.pdb
 43 50 0 0 0
SMALL
GASTEIGER

@<TRIPOS>ATOM
      1  CHA       10.9480   21.5840   -3.2190 C.2   396  HEM396      0.0000
      2  CHB       10.6590   16.7890   -4.0320 C.2   396  HEM396      0.0000
      3  CHC        6.5520   16.7060   -1.4700 C.2   396  HEM396      0.0000
      4  CHD        7.0130   21.4190   -0.4050 C.2   396  HEM396      0.0000
      5  C1A       11.2440   20.2840   -3.6430 C.ar  396  HEM396      0.0000
      6  C2A       12.1440   19.9530   -4.7170 C.ar  396  HEM396      0.0000
      7  C3A       12.2040   18.6150   -4.7940 C.ar  396  HEM396      0.0000
      8  C4A       11.1300   18.1040   -3.9950 C.ar  396  HEM396      0.0000
      9  CMA       13.1380   17.7830   -5.6650 C.3   396  HEM396      0.0000
     10  CAA       12.7160   20.9520   -5.7220 C.3   396  HEM396      0.0000
     11  CBA       13.6880   21.8900   -5.1210 C.3   396  HEM396      0.0000
     12  CGA       13.7030   23.2220   -5.8420 C.2   396  HEM396      0.0000
     13  O1A       13.1050   24.1850   -5.3230 O.co2 396  HEM396      0.0000
     14  O2A       14.3510   23.3170   -6.9100 O.co2 396  HEM396      0.0000
     15  C1B        9.5510   16.3130   -3.3390 C.2   396  HEM396      0.0000
     16  C2B        9.0780   14.9470   -3.3560 C.2   396  HEM396      0.0000
     17  C3B        7.8950   14.9380   -2.6780 C.2   396  HEM396      0.0000
     18  C4B        7.6690   16.2880   -2.1940 C.2   396  HEM396      0.0000
     19  CMB        9.8230   13.7730   -4.0500 C.3   396  HEM396      0.0000
     20  CAB        6.9960   13.8810   -2.4880 C.3   396  HEM396      0.0000
     21  CBB        7.3100   12.5160   -2.1540 C.3   396  HEM396      0.0000
     22  C1C        6.3370   17.9720   -0.9240 C.ar  396  HEM396      0.0000
     23  C2C        5.1360   18.3810   -0.2330 C.ar  396  HEM396      0.0000
     24  C3C        5.3580   19.6330    0.2400 C.ar  396  HEM396      0.0000
     25  C4C        6.5900   20.0940   -0.3680 C.ar  396  HEM396      0.0000
     26  CMC        3.8800   17.5320   -0.1010 C.3   396  HEM396      0.0000
     27  CAC        4.6200   20.4440    1.1480 C.3   396  HEM396      0.0000
     28  CBC        3.1910   20.4790    1.4160 C.3   396  HEM396      0.0000
     29  C1D        8.1320   21.8940   -1.0690 C.2   396  HEM396      0.0000
     30  C2D        8.4620   23.2900   -1.2550 C.2   396  HEM396      0.0000
     31  C3D        9.5730   23.3330   -2.0350 C.2   396  HEM396      0.0000
     32  C4D        9.9210   21.9660   -2.3570 C.2   396  HEM396      0.0000
     33  CMD        7.6310   24.4550   -0.6840 C.3   396  HEM396      0.0000
     34  CAD       10.3140   24.5460   -2.5540 C.3   396  HEM396      0.0000
     35  CBD       11.4350   25.1070   -1.6920 C.3   396  HEM396      0.0000
     36  CGD       12.1110   26.3100   -2.3300 C.2   396  HEM396      0.0000
     37  O1D       12.9770   26.9180   -1.6780 O.co2 396  HEM396      0.0000
     38  O2D       11.7820   26.6640   -3.4760 O.co2 396  HEM396      0.0000
     39  NA        10.5780   19.1390   -3.2530 N.ar  396  HEM396      0.0000
     40  NB         8.7500   17.0800   -2.5180 N.2   396  HEM396      0.0000
     41  NC         7.2230   19.0350   -0.9940 N.ar  396  HEM396      0.0000
     42  ND         9.0260   21.1040   -1.7610 N.2   396  HEM396      0.0000
     43 FE          8.9950   19.0870   -2.0210 Fe    396  HEM396      0.0000
@<TRIPOS>BOND
     1    14    12   ar
     2    12    13   ar
     3    12    11    1
     4    10    11    1
     5    10     6    1
     6     9     7    1
     7     7     6   ar
     8     7     8   ar
     9     6     5   ar
    10    19    16    1
    11     2     8    2
    12     2    15    1
    13     8    39   ar
    14     5    39   ar
    15     5     1    2
    16    38    36   ar
    17    16    15    1
    18    16    17    2
    19    15    40    2
    20    39    43    1
    21     1    32    1
    22    17    20    1
    23    17    18    1
    24    34    31    1
    25    34    35    1
    26    40    18    1
    27    40    43    1
    28    20    21    1
    29    32    31    1
    30    32    42    2
    31    36    35    1
    32    36    37   ar
    33    18     3    2
    34    31    30    2
    35    43    42    1
    36    43    41    1
    37    42    29    1
    38     3    22    1
    39    30    29    1
    40    30    33    1
    41    29     4    2
    42    41    22   ar
    43    41    25   ar
    44    22    23   ar
    45     4    25    1
    46    25    24   ar
    47    23    26    1
    48    23    24   ar
    49    24    27    1
    50    27    28    1
