@<TRIPOS>MOLECULE
2cpo_MAN_A_1.pdb
 11 11 0 0 0
SMALL
GASTEIGER

@<TRIPOS>ATOM
      1  C1        -6.1790   21.9250  -10.2970 C.3   738  MAN738      0.1777
      2  C2        -7.5710   21.3960   -9.9450 C.3   738  MAN738      0.2141
      3  C3        -7.6750   19.9060  -10.1750 C.3   738  MAN738      0.2173
      4  C4        -7.1590   19.5000  -11.5460 C.3   738  MAN738      0.2142
      5  C5        -5.7470   20.0650  -11.7880 C.3   738  MAN738      0.1810
      6  C6        -5.1260   19.7820  -13.1780 C.3   738  MAN738      0.2141
      7  O2        -8.5280   21.9830  -10.7870 O.3   738  MAN738     -0.2176
      8  O3        -9.0270   19.5530  -10.1170 O.3   738  MAN738     -0.2175
      9  O4        -7.1360   18.1110  -11.5220 O.3   738  MAN738     -0.2176
     10  O5        -5.7980   21.5050  -11.5990 O.3   738  MAN738     -0.3481
     11  O6        -4.4680   20.9390  -13.6860 O.3   738  MAN738     -0.2176
@<TRIPOS>BOND
     1    11     6    1
     2     6     5    1
     3     5    10    1
     4     5     4    1
     5    10     1    1
     6     4     9    1
     7     4     3    1
     8     7     2    1
     9     1     2    1
    10     3     8    1
    11     3     2    1
