@<TRIPOS>MOLECULE
2cpp_CAM_A_1.pdb
 11 12 0 0 0
SMALL
GASTEIGER

@<TRIPOS>ATOM
      1  C1        46.5080   44.5280   14.6470 C.3   422  CAM422      0.0515
      2  C2        44.9130   44.4510   14.5860 C.2   422  CAM422      0.1498
      3  O         44.1970   44.4970   15.5710 O.2   422  CAM422     -0.2961
      4  C3        44.5620   44.3190   13.0940 C.3   422  CAM422      0.0645
      5  C4        45.9870   44.4340   12.4320 C.3   422  CAM422      0.0077
      6  C5        46.5380   45.8920   12.5690 C.3   422  CAM422      0.0009
      7  C6        46.8560   45.9770   14.1000 C.3   422  CAM422      0.0069
      8  C7        46.8750   43.5850   13.4160 C.3   422  CAM422      0.0066
      9  C8        46.4820   42.0740   13.5650 C.3   422  CAM422      0.0004
     10  C9        48.3960   43.5290   13.0360 C.3   422  CAM422      0.0004
     11  C10       47.0830   44.2190   16.0310 C.3   422  CAM422      0.0073
@<TRIPOS>BOND
     1     5     6    1
     2     5     4    1
     3     5     8    1
     4     6     7    1
     5    10     8    1
     6     4     2    1
     7     8     9    1
     8     8     1    1
     9     7     1    1
    10     2     1    1
    11     2     3    2
    12     1    11    1
