@<TRIPOS>MOLECULE
2cpp_HEM_A_1.pdb
 43 50 0 0 0
SMALL
GASTEIGER

@<TRIPOS>ATOM
      1 FE         48.3830   46.2360    8.8050 Fe    417  HEM417      0.0000
      2  CHA       45.2500   44.8350    8.7460 C.2   417  HEM417      0.0000
      3  CHB       49.7670   43.0580    9.2390 C.2   417  HEM417      0.0000
      4  CHC       51.4940   47.5960    9.3690 C.2   417  HEM417      0.0000
      5  CHD       46.9540   49.3300    9.4690 C.2   417  HEM417      0.0000
      6  NA        47.6370   44.3830    9.0350 N.ar  417  HEM417      0.0000
      7  C1A       46.3270   43.9710    8.9020 C.ar  417  HEM417      0.0000
      8  C2A       46.2580   42.5500    8.9060 C.ar  417  HEM417      0.0000
      9  C3A       47.4850   42.0560    9.0870 C.ar  417  HEM417      0.0000
     10  C4A       48.3940   43.2070    9.1660 C.ar  417  HEM417      0.0000
     11  CMA       47.9730   40.6030    9.1530 C.3   417  HEM417      0.0000
     12  CAA       44.9300   41.7490    8.7530 C.3   417  HEM417      0.0000
     13  CBA       44.3030   41.3600   10.0830 C.3   417  HEM417      0.0000
     14  CGA       43.0510   40.4360    9.9060 C.2   417  HEM417      0.0000
     15  O1A       42.8010   39.9530    8.8090 O.co2 417  HEM417      0.0000
     16  O2A       42.5390   40.3120   11.0480 O.co2 417  HEM417      0.0000
     17  NB        50.2330   45.4740    9.3670 N.2   417  HEM417      0.0000
     18  C1B       50.6100   44.1560    9.2140 C.2   417  HEM417      0.0000
     19  C2B       52.0810   44.0820    9.1830 C.2   417  HEM417      0.0000
     20  C3B       52.5380   45.3050    9.2630 C.2   417  HEM417      0.0000
     21  C4B       51.4040   46.2240    9.3310 C.2   417  HEM417      0.0000
     22  CMB       52.8380   42.7370    9.1640 C.3   417  HEM417      0.0000
     23  CAB       53.9840   45.8550    9.1750 C.2   417  HEM417      0.0000
     24  CBB       55.0490   45.0870    9.2700 C.2   417  HEM417      0.0000
     25  NC        49.0660   48.0550    9.3800 N.ar  417  HEM417      0.0000
     26  C1C       50.4120   48.4540    9.3850 C.ar  417  HEM417      0.0000
     27  C2C       50.4950   49.8910    9.4710 C.ar  417  HEM417      0.0000
     28  C3C       49.2530   50.3520    9.5590 C.ar  417  HEM417      0.0000
     29  C4C       48.3500   49.2090    9.5660 C.ar  417  HEM417      0.0000
     30  CMC       51.8130   50.7160    9.4420 C.3   417  HEM417      0.0000
     31  CAC       48.7400   51.8300    9.5850 C.2   417  HEM417      0.0000
     32  CBC       48.6440   52.3700   10.7770 C.2   417  HEM417      0.0000
     33  ND        46.4660   46.9390    9.1630 N.2   417  HEM417      0.0000
     34  C1D       46.1380   48.2630    9.1510 C.2   417  HEM417      0.0000
     35  C2D       44.6850   48.3610    8.9780 C.2   417  HEM417      0.0000
     36  C3D       44.2310   47.1190    8.7960 C.2   417  HEM417      0.0000
     37  C4D       45.3360   46.1890    8.9140 C.2   417  HEM417      0.0000
     38  CMD       43.9070   49.6970    8.9620 C.3   417  HEM417      0.0000
     39  CAD       42.7500   46.6580    8.6440 C.3   417  HEM417      0.0000
     40  CBD       42.2010   46.5140    7.2730 C.3   417  HEM417      0.0000
     41  CGD       40.6700   46.0660    7.2510 C.2   417  HEM417      0.0000
     42  O1D       40.1750   46.3100    6.1810 O.co2 417  HEM417      0.0000
     43  O2D       40.3210   45.4360    8.2620 O.co2 417  HEM417      0.0000
@<TRIPOS>BOND
     1    42    41   ar
     2    41    40    1
     3    41    43   ar
     4    40    39    1
     5    39    36    1
     6     2     7    2
     7     2    37    1
     8    12     8    1
     9    12    13    1
    10    36    37    1
    11    36    35    2
    12     1     6    1
    13     1    33    1
    14     1    17    1
    15     1    25    1
    16    15    14   ar
    17     7     8   ar
    18     7     6   ar
    19     8     9   ar
    20    37    33    2
    21    38    35    1
    22    35    34    1
    23     6    10   ar
    24     9    11    1
    25     9    10   ar
    26    34    33    1
    27    34     5    2
    28    22    19    1
    29    10     3    2
    30    23    20    1
    31    23    24    2
    32    19    18    1
    33    19    20    2
    34    18     3    1
    35    18    17    2
    36    20    21    1
    37    21    17    1
    38    21     4    2
    39     4    26    1
    40    25    26   ar
    41    25    29   ar
    42    26    27   ar
    43    30    27    1
    44     5    29    1
    45    27    28   ar
    46    28    29   ar
    47    28    31    1
    48    31    32    2
    49    14    13    1
    50    14    16   ar
