@<TRIPOS>MOLECULE
2cqs_BGC_A_1.pdb
 12 12 0 0 0
SMALL
GASTEIGER

@<TRIPOS>ATOM
      1  C2         5.2930   43.2560   81.8430 C.3   1901  BGC1901     0.2434
      2  C3         6.7290   43.3710   82.3730 C.3   1901  BGC1901     0.2199
      3  C4         7.1630   44.8390   82.4200 C.3   1901  BGC1901     0.2144
      4  C5         6.1340   45.6950   83.1730 C.3   1901  BGC1901     0.1836
      5  C6         6.4590   47.1780   83.0870 C.3   1901  BGC1901     0.2142
      6  C1         4.3630   44.1580   82.6650 C.3   1901  BGC1901     0.3024
      7  O1         3.0810   44.1120   82.1360 O.3   1901  BGC1901    -0.1869
      8  O2         4.8520   41.9090   81.9260 O.3   1901  BGC1901    -0.2148
      9  O3         7.6200   42.6480   81.5320 O.3   1901  BGC1901    -0.2174
     10  O4         8.4240   44.9360   83.0630 O.3   1901  BGC1901    -0.2176
     11  O5         4.8190   45.5180   82.6000 O.3   1901  BGC1901    -0.3236
     12  O6         5.9060   47.8940   84.1830 O.3   1901  BGC1901    -0.2176
@<TRIPOS>BOND
     1     9     2    1
     2     1     8    1
     3     1     2    1
     4     1     6    1
     5     7     6    1
     6     2     3    1
     7     3    10    1
     8     3     4    1
     9    11     6    1
    10    11     4    1
    11     5     4    1
    12     5    12    1
