@<TRIPOS>MOLECULE
2cqt_BGC_A_1.pdb
 12 12 0 0 0
SMALL
GASTEIGER

@<TRIPOS>ATOM
      1  C2         5.3830   43.2760   82.6980 C.3   1901  BGC1901     0.2434
      2  C3         6.8270   43.2860   83.2040 C.3   1901  BGC1901     0.2199
      3  C4         7.3350   44.7280   83.3320 C.3   1901  BGC1901     0.2144
      4  C5         6.3670   45.5810   84.1680 C.3   1901  BGC1901     0.1836
      5  C6         6.7690   47.0510   84.1610 C.3   1901  BGC1901     0.2142
      6  C1         4.5160   44.1530   83.6090 C.3   1901  BGC1901     0.3024
      7  O1         3.2190   44.1900   83.1190 O.3   1901  BGC1901    -0.1869
      8  O2         4.8790   41.9460   82.6800 O.3   1901  BGC1901    -0.2148
      9  O3         7.6610   42.5660   82.3030 O.3   1901  BGC1901    -0.2174
     10  O4         8.6200   44.7280   83.9390 O.3   1901  BGC1901    -0.2176
     11  O5         5.0260   45.4980   83.6260 O.3   1901  BGC1901    -0.3236
     12  O6         5.8120   47.8610   84.8310 O.3   1901  BGC1901    -0.2176
@<TRIPOS>BOND
     1     9     2    1
     2     8     1    1
     3     1     2    1
     4     1     6    1
     5     7     6    1
     6     2     3    1
     7     3    10    1
     8     3     4    1
     9     6    11    1
    10    11     4    1
    11     5     4    1
    12     5    12    1
