@<TRIPOS>MOLECULE
2csm_TYR_A_1.pdb
 13 13 0 0 0
SMALL
GASTEIGER

@<TRIPOS>ATOM
      1  N         73.0690   71.4500   17.7680 N.3   300  TYR300     -0.1205
      2  CA        71.8060   72.1970   17.8620 C.3   300  TYR300      0.1986
      3  C         72.0030   73.5330   17.1720 C.2   300  TYR300      0.3822
      4  O         73.1500   73.8800   16.8340 O.co2 300  TYR300     -0.2440
      5  CB        71.4050   72.3760   19.3310 C.3   300  TYR300      0.0569
      6  CG        72.4570   73.0060   20.2280 C.ar  300  TYR300     -0.0200
      7  CD1       72.7510   74.3690   20.1480 C.ar  300  TYR300     -0.0009
      8  CD2       73.0930   72.2600   21.2230 C.ar  300  TYR300     -0.0009
      9  CE1       73.6440   74.9790   21.0450 C.ar  300  TYR300      0.0417
     10  CE2       73.9880   72.8620   22.1240 C.ar  300  TYR300      0.0417
     11  CZ        74.2540   74.2190   22.0310 C.ar  300  TYR300      0.1957
     12  OH        75.0990   74.8030   22.9570 O.3   300  TYR300     -0.2866
     13  OXT       70.9930   74.1880   16.9080 O.co2 300  TYR300     -0.2440
@<TRIPOS>BOND
     1     4     3   ar
     2    13     3   ar
     3     3     2    1
     4     1     2    1
     5     2     5    1
     6     5     6    1
     7     7     6   ar
     8     7     9   ar
     9     6     8   ar
    10     9    11   ar
    11     8    10   ar
    12    11    10   ar
    13    11    12    1
