@<TRIPOS>MOLECULE
2csn_CKI_A_1.pdb
 18 19 0 0 0
SMALL
GASTEIGER

@<TRIPOS>ATOM
      1  C1       -26.0360   52.5440   48.7070 C.ar  300  CKI300      0.1002
      2  N2       -26.3280   53.8600   48.6740 N.ar  300  CKI300     -0.2423
      3  C3       -25.9600   54.6580   49.7550 C.ar  300  CKI300      0.0989
      4  C4       -25.2620   54.1860   50.9050 C.ar  300  CKI300      0.0216
      5  C5       -24.2450   52.1740   52.0210 C.ar  300  CKI300      0.0578
      6 CL5       -23.7540   53.0720   53.3160 Cl    300  CKI300     -0.0822
      7  C6       -23.9130   50.8010   51.9750 C.ar  300  CKI300      0.0128
      8  C7       -24.2980   50.0150   50.8640 C.ar  300  CKI300      0.0209
      9  C8       -24.9970   50.6230   49.7940 C.ar  300  CKI300      0.1251
     10  C9       -25.3320   51.9980   49.8130 C.ar  300  CKI300      0.0386
     11  C10      -24.9430   52.7940   50.9230 C.ar  300  CKI300      0.0149
     12  S        -25.5590   49.6600   48.4320 S.O2  300  CKI300      0.0769
     13  O1S      -24.9030   48.4270   48.4520 O.2   300  CKI300     -0.1516
     14  O2S      -26.9120   49.6470   48.6610 O.2   300  CKI300     -0.1516
     15  N1'      -25.4440   50.4180   46.9100 N.3   300  CKI300     -0.0762
     16  C1'      -24.4610   50.3720   45.7790 C.3   300  CKI300      0.1359
     17  C2'      -24.3230   48.9460   45.1690 C.3   300  CKI300      0.1301
     18  N2'      -24.4100   47.6600   45.9210 N.3   300  CKI300     -0.1297
@<TRIPOS>BOND
     1    17    16    1
     2    17    18    1
     3    16    15    1
     4    15    12    1
     5    12    13    2
     6    12    14    2
     7    12     9    1
     8     2     1   ar
     9     2     3   ar
    10     1    10   ar
    11     3     4   ar
    12     9    10   ar
    13     9     8   ar
    14    10    11   ar
    15     8     7   ar
    16     4    11   ar
    17    11     5   ar
    18     7     5   ar
    19     5     6    1
