@<TRIPOS>MOLECULE
2cst_PLP_A_1.pdb
 15 15 0 0 0
SMALL
GASTEIGER

@<TRIPOS>ATOM
      1  N1        52.5800   17.2900   40.4200 N.ar  413  PLP413     -0.2452
      2  C2        52.1840   18.5290   40.0870 C.ar  413  PLP413      0.0978
      3  C2A       52.8860   19.2530   38.9570 C.3   413  PLP413      0.0555
      4  C3        51.0990   19.0790   40.8080 C.ar  413  PLP413      0.2049
      5  O3        50.7070   20.2990   40.4230 O.3   413  PLP413     -0.2857
      6  C4        50.4700   18.3860   41.8200 C.ar  413  PLP413      0.0182
      7  C4A       49.3280   18.9530   42.4830 C.3   413  PLP413      0.0342
      8  C5        50.9510   17.0940   42.0780 C.ar  413  PLP413      0.0261
      9  C6        52.0280   16.5800   41.4120 C.ar  413  PLP413      0.0965
     10  C5A       50.4200   16.3050   43.2920 C.3   413  PLP413      0.1815
     11  O4P       49.0490   16.0650   43.2110 O.3   413  PLP413     -0.2653
     12  P         48.2930   15.3560   44.4270 P.3   413  PLP413      0.5329
     13  O1P       49.2580   14.4200   45.0620 O.3   413  PLP413     -0.1145
     14  O2P       47.1180   14.7140   43.7760 O.2   413  PLP413     -0.2224
     15  O3P       47.8840   16.4570   45.4180 O.3   413  PLP413     -0.1145
@<TRIPOS>BOND
     1     3     2    1
     2     2     1   ar
     3     2     4   ar
     4     1     9   ar
     5     5     4    1
     6     4     6   ar
     7     9     8   ar
     8     6     8   ar
     9     6     7    1
    10     8    10    1
    11    11    10    1
    12    11    12    1
    13    14    12    2
    14    12    13    1
    15    12    15    1
