@<TRIPOS>MOLECULE
2ctc_HFA_A_1.pdb
 12 12 0 0 0
SMALL
GASTEIGER

@<TRIPOS>ATOM
      1  OA        -3.1430   29.9510   -7.5210 O.3   309  HFA309     -0.2105
      2  CA        -2.4960   29.7350   -8.5250 C.3   309  HFA309      0.2583
      3  C         -1.0160   29.4920   -8.2580 C.2   309  HFA309      0.3950
      4  O         -0.7370   28.3520   -8.6920 O.co2 309  HFA309     -0.2428
      5  CB        -2.6970   30.8080   -9.6040 C.3   309  HFA309      0.0710
      6  CG        -2.4780   30.1810  -10.9420 C.ar  309  HFA309     -0.0190
      7  CD1       -1.2300   30.3900  -11.5760 C.ar  309  HFA309     -0.0042
      8  CD2       -3.4090   29.4290  -11.6850 C.ar  309  HFA309     -0.0042
      9  CE1       -0.9480   29.8730  -12.8540 C.ar  309  HFA309     -0.0003
     10  CE2       -3.1430   28.8790  -12.9390 C.ar  309  HFA309     -0.0003
     11  CZ        -1.8960   29.1080  -13.5440 C.ar  309  HFA309     -0.0000
     12  OXT       -0.2400   30.3370   -7.7570 O.co2 309  HFA309     -0.2428
@<TRIPOS>BOND
     1    11    10   ar
     2    11     9   ar
     3    10     8   ar
     4     9     7   ar
     5     8     6   ar
     6     7     6   ar
     7     6     5    1
     8     5     2    1
     9     4     3   ar
    10     2     3    1
    11     2     1    1
    12     3    12   ar
