@<TRIPOS>MOLECULE
2cth_HEM_A_1.pdb
 43 50 0 0 0
SMALL
GASTEIGER

@<TRIPOS>ATOM
      1 FE         17.9300   -6.1410    2.4020 Fe    109  HEM109      0.0000
      2  CHA       18.9420   -3.9640    0.0140 C.2   109  HEM109      0.0000
      3  CHB       14.6630   -5.4040    1.7690 C.2   109  HEM109      0.0000
      4  CHC       16.9240   -8.2080    4.9840 C.2   109  HEM109      0.0000
      5  CHD       21.1580   -7.1730    2.8570 C.2   109  HEM109      0.0000
      6  NA        16.9780   -4.8970    1.1650 N.ar  109  HEM109      0.0000
      7  C1A       17.5740   -4.0560    0.2300 C.ar  109  HEM109      0.0000
      8  C2A       16.5380   -3.2330   -0.3750 C.ar  109  HEM109      0.0000
      9  C3A       15.3560   -3.5730    0.1650 C.ar  109  HEM109      0.0000
     10  C4A       15.6140   -4.6480    1.1040 C.ar  109  HEM109      0.0000
     11  CMA       13.9580   -3.0050   -0.1280 C.3   109  HEM109      0.0000
     12  CAA       16.7890   -2.2040   -1.5180 C.3   109  HEM109      0.0000
     13  CBA       16.3220   -2.7510   -2.9020 C.3   109  HEM109      0.0000
     14  CGA       16.1730   -1.6920   -3.9710 C.2   109  HEM109      0.0000
     15  O1A       15.7570   -0.5810   -3.5640 O.co2 109  HEM109      0.0000
     16  O2A       16.5440   -2.0090   -5.1270 O.co2 109  HEM109      0.0000
     17  NB        16.1500   -6.7200    3.1930 N.2   109  HEM109      0.0000
     18  C1B       14.9060   -6.3320    2.7520 C.2   109  HEM109      0.0000
     19  C2B       13.8910   -7.0870    3.4750 C.2   109  HEM109      0.0000
     20  C3B       14.4680   -7.8340    4.4110 C.2   109  HEM109      0.0000
     21  C4B       15.9290   -7.5930    4.2420 C.2   109  HEM109      0.0000
     22  CMB       12.3840   -6.9140    3.1150 C.3   109  HEM109      0.0000
     23  CAB       13.9640   -8.9320    5.3580 C.3   109  HEM109      0.0000
     24  CBB       13.7800  -10.1840    4.7020 C.3   109  HEM109      0.0000
     25  NC        18.8590   -7.3620    3.7000 N.ar  109  HEM109      0.0000
     26  C1C       18.2930   -8.0690    4.7510 C.ar  109  HEM109      0.0000
     27  C2C       19.3580   -8.6030    5.5800 C.ar  109  HEM109      0.0000
     28  C3C       20.5370   -8.2810    5.0340 C.ar  109  HEM109      0.0000
     29  C4C       20.2170   -7.5720    3.7850 C.ar  109  HEM109      0.0000
     30  CMC       19.1200   -9.4110    6.8760 C.3   109  HEM109      0.0000
     31  CAC       21.9580   -8.6410    5.4450 C.3   109  HEM109      0.0000
     32  CBC       22.1440  -10.0790    5.5450 C.3   109  HEM109      0.0000
     33  ND        19.6990   -5.6850    1.5650 N.2   109  HEM109      0.0000
     34  C1D       20.9130   -6.3200    1.7970 C.2   109  HEM109      0.0000
     35  C2D       21.8940   -5.8430    0.8540 C.2   109  HEM109      0.0000
     36  C3D       21.2970   -4.9320    0.0840 C.2   109  HEM109      0.0000
     37  C4D       19.9100   -4.8240    0.5090 C.2   109  HEM109      0.0000
     38  CMD       23.3860   -6.2540    0.8680 C.3   109  HEM109      0.0000
     39  CAD       21.9420   -3.9970   -0.9720 C.3   109  HEM109      0.0000
     40  CBD       22.6360   -2.7380   -0.4130 C.3   109  HEM109      0.0000
     41  CGD       23.0210   -1.7460   -1.5290 C.2   109  HEM109      0.0000
     42  O1D       23.8420   -2.1390   -2.3600 O.co2 109  HEM109      0.0000
     43  O2D       22.4160   -0.6650   -1.4800 O.co2 109  HEM109      0.0000
@<TRIPOS>BOND
     1    16    14   ar
     2    14    15   ar
     3    14    13    1
     4    13    12    1
     5    42    41   ar
     6    41    43   ar
     7    41    40    1
     8    12     8    1
     9    39    40    1
    10    39    36    1
    11     8     9   ar
    12     8     7   ar
    13    11     9    1
    14     2     7    2
    15     2    37    1
    16    36    37    1
    17    36    35    2
    18     9    10   ar
    19     7     6   ar
    20    37    33    2
    21    35    38    1
    22    35    34    1
    23    10     6   ar
    24    10     3    2
    25     6     1    1
    26    33    34    1
    27    33     1    1
    28     3    18    1
    29    34     5    2
    30     1    17    1
    31     1    25    1
    32    18    17    2
    33    18    19    1
    34     5    29    1
    35    22    19    1
    36    17    21    1
    37    19    20    2
    38    25    29   ar
    39    25    26   ar
    40    29    28   ar
    41    21    20    1
    42    21     4    2
    43    20    23    1
    44    24    23    1
    45    26     4    1
    46    26    27   ar
    47    28    31    1
    48    28    27   ar
    49    31    32    1
    50    27    30    1
