@<TRIPOS>MOLECULE
2cts_CIT_A_1.pdb
 13 12 0 0 0
SMALL
GASTEIGER

@<TRIPOS>ATOM
      1  C1        13.3550   -7.8890   -0.3940 C.2   439  CIT439      0.3680
      2  O1        13.7620   -8.3650   -1.4920 O.co2 439  CIT439     -0.2455
      3  O2        12.4850   -8.4880    0.2810 O.co2 439  CIT439     -0.2455
      4  C2        13.8470   -6.5470    0.1160 C.3   439  CIT439      0.1560
      5  C3        15.0080   -5.9240   -0.7280 C.3   439  CIT439      0.2402
      6  O7        16.1070   -6.8380   -0.8090 O.3   439  CIT439     -0.2129
      7  C4        15.5020   -4.5960   -0.0800 C.3   439  CIT439      0.1560
      8  C5        15.6000   -4.7350    1.4490 C.2   439  CIT439      0.3680
      9  O3        14.6120   -4.4140    2.1530 O.co2 439  CIT439     -0.2455
     10  O4        16.5740   -5.3750    1.9890 O.co2 439  CIT439     -0.2455
     11  C6        14.5740   -5.5590   -2.1490 C.2   439  CIT439      0.3927
     12  O5        15.4240   -5.2540   -2.9920 O.co2 439  CIT439     -0.2429
     13  O6        13.3860   -5.5120   -2.5090 O.co2 439  CIT439     -0.2429
@<TRIPOS>BOND
     1    12    11   ar
     2    13    11   ar
     3    11     5    1
     4     2     1   ar
     5     6     5    1
     6     5     7    1
     7     5     4    1
     8     1     4    1
     9     1     3   ar
    10     7     8    1
    11     8    10   ar
    12     8     9   ar
