@<TRIPOS>MOLECULE
2cts_COA_A_1.pdb
 48 50 0 0 0
SMALL
GASTEIGER

@<TRIPOS>ATOM
      1  N1A       19.7330   -8.1740   13.4600 N.2   438  COA438      0.0021
      2  C2A       19.3020   -8.8150   14.5070 C.3   438  COA438      0.5254
      3  N3A       18.4580   -9.8470   14.5390 N.2   438  COA438     -0.0055
      4  C4A       18.0580  -10.2090   13.3830 C.2   438  COA438      0.3518
      5  C5A       18.4740   -9.5240   12.2330 C.2   438  COA438      0.2526
      6  C6A       19.3460   -8.4480   12.2900 C.2   438  COA438      0.4393
      7  N6A       19.8430   -7.8880   11.1930 N.pl3 438  COA438      0.2180
      8  N7A       17.8990  -10.0500   11.2310 N.2   438  COA438     -0.2095
      9  C8A       17.1060  -11.1010   11.6660 C.3   438  COA438      0.3377
     10  N9A       17.2760  -11.1310   13.0440 N.pl3 438  COA438     -0.1439
     11  C1B       16.6950  -12.0010   14.1160 C.3   438  COA438      0.3185
     12  C2B       15.3290  -11.4750   14.6260 C.3   438  COA438      0.2543
     13  O2B       15.5690  -11.1800   16.0170 O.3   438  COA438     -0.2131
     14  C3B       14.3140  -12.6000   14.6230 C.3   438  COA438      0.1928
     15  O3B       14.1330  -13.0690   15.9260 O.3   438  COA438     -0.2673
     16  P3B       12.6310  -13.2020   16.5650 P.3   438  COA438      0.5327
     17  O7A       12.8700  -13.3920   18.1020 O.3   438  COA438     -0.1145
     18  O8A       11.8040  -11.8860   16.2590 O.3   438  COA438     -0.1145
     19  O9A       11.8710  -14.3690   15.9470 O.2   438  COA438     -0.2224
     20  C4B       14.9560  -13.6830   13.7860 C.3   438  COA438      0.1795
     21  O4B       16.3480  -13.3010   13.6330 O.3   438  COA438     -0.3136
     22  C5B       14.2790  -13.5940   12.4460 C.3   438  COA438      0.1812
     23  O5B       14.4840  -14.6850   11.6050 O.3   438  COA438     -0.3112
     24  P1A       14.8070  -14.3630   10.0450 P.3   438  COA438      0.2189
     25  O1A       16.3220  -14.3170    9.9180 O.3   438  COA438     -0.4371
     26  O2A       14.1390  -15.4020    9.1730 O.2   438  COA438     -0.5170
     27  O3A       14.3000  -12.8780    9.6750 O.3   438  COA438     -0.2703
     28  P2A       13.0730  -12.6220    8.5870 P.3   438  COA438      0.2188
     29  O4A       13.2190  -13.5550    7.3600 O.2   438  COA438     -0.5170
     30  O5A       11.6940  -12.7770    9.3280 O.3   438  COA438     -0.4371
     31  O6A       13.2820  -11.0310    8.1510 O.3   438  COA438     -0.3138
     32  CBP       14.6540   -9.0330    7.5970 C.3   438  COA438      0.0645
     33  CCP       14.4410  -10.5550    7.4480 C.3   438  COA438      0.1519
     34  CDP       15.0730   -8.5330    6.2310 C.3   438  COA438      0.0056
     35  CEP       13.3350   -8.4020    8.0330 C.3   438  COA438      0.0056
     36  CAP       15.8520   -8.6650    8.5400 C.3   438  COA438      0.2312
     37  OAP       16.7010   -9.8410    8.5890 O.3   438  COA438     -0.2131
     38  C9P       15.5890   -7.8650    9.8660 C.2   438  COA438      0.2719
     39  O9P       14.6710   -8.0720   10.7290 O.2   438  COA438     -0.2706
     40  N8P       16.3840   -6.8600   10.1280 N.am  438  COA438     -0.2028
     41  C7P       17.2650   -6.1830    9.1780 C.3   438  COA438      0.1248
     42  C6P       16.4030   -5.1240    8.4080 C.3   438  COA438      0.1102
     43  C5P       17.1740   -3.8260    8.3190 C.2   438  COA438      0.2432
     44  O5P       18.0470   -3.7010    7.4280 O.2   438  COA438     -0.2733
     45  N4P       16.8040   -2.9190    9.2000 N.am  438  COA438     -0.2044
     46  C3P       17.3510   -1.5670    9.2930 C.3   438  COA438      0.1276
     47  C2P       16.5390   -0.7230   10.2880 C.3   438  COA438      0.0920
     48  S1P       16.8860   -0.9910   12.0340 S.3   438  COA438     -0.0802
@<TRIPOS>BOND
     1    34    32    1
     2    29    28    2
     3    44    43    2
     4    33    32    1
     5    33    31    1
     6    32    35    1
     7    32    36    1
     8    31    28    1
     9    43    42    1
    10    43    45   am
    11    42    41    1
    12    36    37    1
    13    36    38    1
    14    28    30    1
    15    28    27    1
    16    26    24    2
    17    41    40    1
    18    45    46    1
    19    46    47    1
    20    27    24    1
    21    38    40   am
    22    38    39    2
    23    25    24    1
    24    24    23    1
    25    47    48    1
    26     7     6    1
    27     8     9    1
    28     8     5    2
    29    23    22    1
    30     9    10    1
    31     5     6    1
    32     5     4    1
    33     6     1    2
    34    22    20    1
    35    10     4    1
    36    10    11    1
    37     4     3    2
    38     1     2    1
    39    21    20    1
    40    21    11    1
    41    20    14    1
    42    11    12    1
    43     2     3    1
    44    14    12    1
    45    14    15    1
    46    12    13    1
    47    15    16    1
    48    19    16    2
    49    18    16    1
    50    16    17    1
