@<TRIPOS>MOLECULE
2ctz_PLP_A_1.pdb
 15 15 0 0 0
SMALL
GASTEIGER

@<TRIPOS>ATOM
      1  N1        86.6970   56.1740  147.8660 N.ar  600  PLP600     -0.2452
      2  C2        85.5730   56.3050  148.6750 C.ar  600  PLP600      0.0978
      3  C2A       85.7190   56.2310  150.1860 C.3   600  PLP600      0.0555
      4  C3        84.3180   56.4900  148.0490 C.ar  600  PLP600      0.2049
      5  O3        83.1370   56.4680  148.8240 O.3   600  PLP600     -0.2857
      6  C4        84.2670   56.5100  146.6120 C.ar  600  PLP600      0.0182
      7  C4A       82.9250   56.6230  145.9230 C.3   600  PLP600      0.0342
      8  C5        85.4330   56.4080  145.7940 C.ar  600  PLP600      0.0261
      9  C6        86.6520   56.2620  146.4620 C.ar  600  PLP600      0.0965
     10  C5A       85.4410   56.9170  144.3420 C.3   600  PLP600      0.1815
     11  O4P       84.1880   57.6120  144.0210 O.3   600  PLP600     -0.2653
     12  P         83.6230   58.1370  142.6170 P.3   600  PLP600      0.5329
     13  O1P       83.8630   59.5790  142.6650 O.3   600  PLP600     -0.1145
     14  O2P       82.1910   57.7560  142.5900 O.3   600  PLP600     -0.1145
     15  O3P       84.4380   57.6730  141.4020 O.2   600  PLP600     -0.2224
@<TRIPOS>BOND
     1    15    12    2
     2    14    12    1
     3    12    13    1
     4    12    11    1
     5    11    10    1
     6    10     8    1
     7     8     9   ar
     8     8     6   ar
     9     7     6    1
    10     9     1   ar
    11     6     4   ar
    12     1     2   ar
    13     4     2   ar
    14     4     5    1
    15     2     3    1
