@<TRIPOS>MOLECULE
2cu0_XMP_A_1.pdb
 24 26 0 0 0
SMALL
GASTEIGER

@<TRIPOS>ATOM
      1  P         22.3900    2.6490   48.8080 P.3   1001  XMP1001     0.5327
      2  O1P       20.8700    2.6470   49.2890 O.3   1001  XMP1001    -0.1145
      3  O2P       23.0060    4.1240   48.9130 O.3   1001  XMP1001    -0.1145
      4  O5'       23.1720    1.6120   49.7530 O.3   1001  XMP1001    -0.2675
      5  O3P       22.4240    2.1930   47.4060 O.2   1001  XMP1001    -0.2224
      6  C5'       24.5610    1.5840   49.4670 C.3   1001  XMP1001     0.1859
      7  C4'       25.1650    0.5620   50.4360 C.3   1001  XMP1001     0.1801
      8  O4'       24.6610   -0.7880   50.1600 O.3   1001  XMP1001    -0.3326
      9  C1'       25.7100   -1.7470   50.5220 C.3   1001  XMP1001     0.2293
     10  N9        25.7830   -2.8480   49.5160 N.pl3 1001  XMP1001    -0.2353
     11  C4        25.2530   -4.1050   49.6110 C.2   1001  XMP1001     0.2316
     12  N3        24.5140   -4.7890   50.5740 N.2   1001  XMP1001    -0.2901
     13  N1        24.4260   -6.7490   49.2280 N.2   1001  XMP1001    -0.2311
     14  C2        24.1200   -6.0780   50.3680 C.1   1001  XMP1001     0.3668
     15  O2        23.4800   -6.6420   51.2260 O.2   1001  XMP1001    -0.1744
     16  C6        25.1490   -6.1570   48.2280 C.1   1001  XMP1001     0.2388
     17  O6        25.4210   -6.7660   47.2050 O.2   1001  XMP1001    -0.2068
     18  C5        25.5960   -4.7630   48.4110 C.2   1001  XMP1001     0.2183
     19  N7        26.3040   -3.9000   47.6570 N.2   1001  XMP1001    -0.2322
     20  C8        26.4180   -2.7780   48.2940 C.3   1001  XMP1001     0.2246
     21  C2'       27.0590   -0.9960   50.5330 C.3   1001  XMP1001     0.2310
     22  O2'       27.3780   -1.1080   51.9310 O.3   1001  XMP1001    -0.2158
     23  C3'       26.6960    0.4750   50.3480 C.3   1001  XMP1001     0.2158
     24  O3'       27.3860    1.3010   51.2970 O.3   1001  XMP1001    -0.2175
@<TRIPOS>BOND
     1    17    16    2
     2     5     1    2
     3    19    20    1
     4    19    18    2
     5    16    18    1
     6    16    13    2
     7    20    10    1
     8    18    11    1
     9     1     3    1
    10     1     2    1
    11     1     4    1
    12    13    14    2
    13     6     4    1
    14     6     7    1
    15    10    11    1
    16    10     9    1
    17    11    12    2
    18     8     7    1
    19     8     9    1
    20    23     7    1
    21    23    21    1
    22    23    24    1
    23    14    12    2
    24    14    15    2
    25     9    21    1
    26    21    22    1
