@<TRIPOS>MOLECULE
2cun_3PG_A_1.pdb
 11 10 0 0 0
SMALL
GASTEIGER

@<TRIPOS>ATOM
      1  C1        28.5710   22.1360   53.2490 C.2   503  3PG503      0.3972
      2  O1        28.2050   23.1590   52.4250 O.co2 503  3PG503     -0.2427
      3  O2        28.5810   22.4460   54.5550 O.co2 503  3PG503     -0.2427
      4  C2        28.9150   20.8260   52.6680 C.3   503  3PG503      0.2838
      5  O3        29.8570   21.0630   51.5920 O.3   503  3PG503     -0.2081
      6  C3        27.6590   20.1050   52.1650 C.3   503  3PG503      0.1983
      7  O1P       27.2590   20.4960   50.8800 O.3   503  3PG503     -0.2669
      8  P         25.9900   19.7150   50.1430 P.3   503  3PG503      0.5327
      9  O2P       26.4040   18.0970   49.9250 O.3   503  3PG503     -0.1145
     10  O3P       24.6070   19.8280   51.0930 O.3   503  3PG503     -0.1145
     11  O4P       25.6860   20.3530   48.6070 O.2   503  3PG503     -0.2224
@<TRIPOS>BOND
     1    11     8    2
     2     9     8    1
     3     8     7    1
     4     8    10    1
     5     7     6    1
     6     5     4    1
     7     6     4    1
     8     2     1   ar
     9     4     1    1
    10     1     3   ar
