@<TRIPOS>MOLECULE
2cuz_GLU_A_1.pdb
 10 9 0 0 0
SMALL
GASTEIGER

@<TRIPOS>ATOM
      1  N         27.4910   25.5270   18.3330 N.3   501  GLU501     -0.1208
      2  CA        26.5850   26.3310   17.4560 C.3   501  GLU501      0.1949
      3  C         25.1600   25.7870   17.3560 C.2   501  GLU501      0.3819
      4  O         24.2900   26.5710   16.9310 O.co2 501  GLU501     -0.2441
      5  CB        27.1860   26.4750   16.0460 C.3   501  GLU501      0.0424
      6  CG        28.3500   27.4880   15.9610 C.3   501  GLU501      0.1161
      7  CD        28.8360   27.7550   14.5270 C.2   501  GLU501      0.3649
      8  OE1       29.6640   28.6740   14.3250 O.co2 501  GLU501     -0.2457
      9  OE2       28.3990   27.0370   13.5960 O.co2 501  GLU501     -0.2457
     10  OXT       24.9080   24.6070   17.7010 O.co2 501  GLU501     -0.2441
@<TRIPOS>BOND
     1     9     7   ar
     2     8     7   ar
     3     7     6    1
     4     6     5    1
     5     5     2    1
     6     4     3   ar
     7     3     2    1
     8     3    10   ar
     9     2     1    1
