@<TRIPOS>MOLECULE
2cv0_GLU_A_1.pdb
 10 9 0 0 0
SMALL
GASTEIGER

@<TRIPOS>ATOM
      1  N         40.8400   82.4440   52.6820 N.3   601  GLU601     -0.1208
      2  CA        39.3700   82.3640   52.6880 C.3   601  GLU601      0.1949
      3  C         38.9870   81.0560   53.3710 C.2   601  GLU601      0.3819
      4  O         38.9160   81.0530   54.6170 O.co2 601  GLU601     -0.2441
      5  CB        38.8330   82.4130   51.2430 C.3   601  GLU601      0.0424
      6  CG        37.3090   82.3830   51.1270 C.3   601  GLU601      0.1161
      7  CD        36.8120   82.9830   49.8200 C.2   601  GLU601      0.3649
      8  OE1       36.6580   84.2330   49.6950 O.co2 601  GLU601     -0.2457
      9  OE2       36.5950   82.1880   48.8980 O.co2 601  GLU601     -0.2457
     10  OXT       38.7690   80.0560   52.6650 O.co2 601  GLU601     -0.2441
@<TRIPOS>BOND
     1     9     7   ar
     2     8     7   ar
     3     7     6    1
     4     6     5    1
     5     5     2    1
     6    10     3   ar
     7     1     2    1
     8     2     3    1
     9     3     4   ar
