@<TRIPOS>MOLECULE
2cv1_ATP_A_1.pdb
 31 33 0 0 0
SMALL
GASTEIGER

@<TRIPOS>ATOM
      1  PG        40.4940   79.3420   58.5040 P.3   601  ATP601      0.5373
      2  O1G       39.3420   80.3350   58.3920 O.3   601  ATP601     -0.1143
      3  O2G       40.5010   78.7500   59.9220 O.3   601  ATP601     -0.1143
      4  O3G       41.8290   80.0300   58.2860 O.2   601  ATP601     -0.2221
      5  PB        38.9040   77.5300   56.7420 P.3   601  ATP601      0.2277
      6  O1B       37.9880   78.6760   56.4150 O.2   601  ATP601     -0.5168
      7  O2B       38.1960   76.5160   57.5950 O.3   601  ATP601     -0.4368
      8  O3B       40.3040   78.0210   57.5010 O.3   601  ATP601     -0.2258
      9  PA        40.3000   77.4000   54.2120 P.3   601  ATP601      0.2189
     10  O1A       40.8920   78.7250   54.5380 O.3   601  ATP601     -0.4371
     11  O2A       41.3480   76.4340   53.7610 O.2   601  ATP601     -0.5170
     12  O3A       39.4440   76.7500   55.4440 O.3   601  ATP601     -0.2700
     13  O5'       39.1930   77.6070   53.0890 O.3   601  ATP601     -0.3112
     14  C5'       38.4910   76.4380   52.6200 C.3   601  ATP601      0.1813
     15  C4'       37.3260   76.7220   51.6870 C.3   601  ATP601      0.1821
     16  O4'       36.1890   75.9330   52.1530 O.3   601  ATP601     -0.3135
     17  C3'       36.7650   78.1700   51.5950 C.3   601  ATP601      0.2184
     18  O3'       36.2430   78.4890   50.2840 O.3   601  ATP601     -0.2174
     19  C2'       35.7280   78.1990   52.7190 C.3   601  ATP601      0.2570
     20  O2'       34.6460   79.0920   52.4400 O.3   601  ATP601     -0.2130
     21  C1'       35.2040   76.7640   52.7800 C.3   601  ATP601      0.3186
     22  N9        34.9410   76.2460   54.1560 N.pl3 601  ATP601     -0.1439
     23  C8        35.7200   76.3590   55.3020 C.3   601  ATP601      0.3377
     24  N7        35.2000   75.7910   56.3630 N.2   601  ATP601     -0.2095
     25  C5        34.0000   75.2630   55.9110 C.2   601  ATP601      0.2526
     26  C6        32.9630   74.5300   56.5600 C.2   601  ATP601      0.4393
     27  N6        33.0150   74.2120   57.8550 N.pl3 601  ATP601      0.2180
     28  N1        31.8670   74.1380   55.8070 N.2   601  ATP601      0.0021
     29  C2        31.8250   74.4680   54.4880 C.3   601  ATP601      0.5254
     30  N3        32.7470   75.1570   53.7770 N.2   601  ATP601     -0.0055
     31  C4        33.8200   75.5320   54.5500 C.2   601  ATP601      0.3518
@<TRIPOS>BOND
     1    18    17    1
     2    17    15    1
     3    17    19    1
     4    15    16    1
     5    15    14    1
     6    16    21    1
     7    20    19    1
     8    14    13    1
     9    19    21    1
    10    21    22    1
    11    13     9    1
    12    11     9    2
    13    30    29    1
    14    30    31    2
    15    22    31    1
    16    22    23    1
    17     9    10    1
    18     9    12    1
    19    29    28    1
    20    31    25    1
    21    23    24    1
    22    12     5    1
    23    28    26    2
    24    25    24    2
    25    25    26    1
    26     6     5    2
    27    26    27    1
    28     5     8    1
    29     5     7    1
    30     8     1    1
    31     4     1    2
    32     2     1    1
    33     1     3    1
