@<TRIPOS>MOLECULE
2cv2_GSU_A_1.pdb
 32 34 0 0 0
SMALL
GASTEIGER

@<TRIPOS>ATOM
      1  C2        31.4170   74.8180   54.3990 C.3   601  GSU601      0.5254
      2  S         39.3430   78.8040   54.7460 S.3   601  GSU601      0.0852
      3  N         40.7570   82.2620   52.6240 N.3   601  GSU601     -0.1230
      4  CA        39.3160   82.3990   52.9350 C.3   601  GSU601      0.1715
      5  CB        38.6670   82.3730   51.5400 C.3   601  GSU601      0.0403
      6  CG        37.2690   82.9320   51.3970 C.3   601  GSU601      0.1161
      7  CD        36.8360   83.0000   49.9500 C.2   601  GSU601      0.3649
      8  OE1       36.5180   84.0510   49.4080 O.co2 601  GSU601     -0.2457
      9  OE2       36.8370   81.8570   49.3110 O.co2 601  GSU601     -0.2457
     10  C         38.7690   81.1940   53.7280 C.2   601  GSU601      0.2798
     11  O         37.6050   81.0890   54.1270 O.2   601  GSU601     -0.2701
     12  N10       39.6720   80.2130   53.9450 N.am  601  GSU601     -0.0577
     13  O1S       38.9210   79.1240   56.1050 O.3   601  GSU601     -0.0508
     14  O2S       40.5410   77.9550   54.7490 O.3   601  GSU601     -0.0508
     15  O5'       38.1370   78.0250   54.0640 O.3   601  GSU601     -0.2230
     16  C5'       38.1890   77.8900   52.6850 C.3   601  GSU601      0.2064
     17  C4'       36.8800   77.6110   51.9810 C.3   601  GSU601      0.1842
     18  O4'       36.1180   76.6500   52.7220 O.3   601  GSU601     -0.3135
     19  C1'       34.9180   77.2810   53.1870 C.3   601  GSU601      0.3186
     20  N9        34.4570   76.7170   54.5320 N.pl3 601  GSU601     -0.1439
     21  C4        33.3300   75.9580   54.7640 C.2   601  GSU601      0.3518
     22  N3        32.4110   75.5570   53.8370 N.2   601  GSU601     -0.0055
     23  N1        31.2780   74.4810   55.6870 N.2   601  GSU601      0.0021
     24  C6        32.2310   74.9030   56.5940 C.2   601  GSU601      0.4393
     25  N6        32.0930   74.5690   57.8920 N.pl3 601  GSU601      0.2180
     26  C5        33.3190   75.6890   56.1100 C.2   601  GSU601      0.2526
     27  N7        34.3860   76.2440   56.7160 N.2   601  GSU601     -0.2095
     28  C8        35.0330   76.8470   55.7490 C.3   601  GSU601      0.3377
     29  C2'       35.1830   78.8180   53.1700 C.3   601  GSU601      0.2570
     30  O2'       33.9760   79.5750   53.1390 O.3   601  GSU601     -0.2130
     31  C3'       36.0670   78.9010   51.9400 C.3   601  GSU601      0.2185
     32  O3'       35.2790   78.9640   50.7560 O.3   601  GSU601     -0.2174
@<TRIPOS>BOND
     1     9     7   ar
     2     8     7   ar
     3     7     6    1
     4    32    31    1
     5     6     5    1
     6     5     4    1
     7    31    17    1
     8    31    29    1
     9    17    16    1
    10    17    18    1
    11     3     4    1
    12    16    15    1
    13    18    19    1
    14     4    10    1
    15    30    29    1
    16    29    19    1
    17    19    20    1
    18    10    12   am
    19    10    11    2
    20    22     1    1
    21    22    21    2
    22    12     2    1
    23    15     2    1
    24     1    23    1
    25    20    21    1
    26    20    28    1
    27     2    14    1
    28     2    13    1
    29    21    26    1
    30    23    24    2
    31    28    27    1
    32    26    24    1
    33    26    27    2
    34    24    25    1
