@<TRIPOS>MOLECULE
2cvc_HEM_A_10.pdb
 43 50 0 0 0
SMALL
GASTEIGER

@<TRIPOS>ATOM
      1 FE         98.7050   15.6210   54.5640 Fe    1010  HEM1010     0.0000
      2  CHA       98.8390   13.2880   52.1510 C.2   1010  HEM1010     0.0000
      3  CHB       99.3810   13.2360   56.8790 C.2   1010  HEM1010     0.0000
      4  CHC       99.1180   18.0540   56.9410 C.2   1010  HEM1010     0.0000
      5  CHD       98.0600   18.0500   52.2990 C.2   1010  HEM1010     0.0000
      6  NA        98.8640   13.4910   54.5540 N.2   1010  HEM1010     0.0000
      7  C1A       98.9580   12.7700   53.4560 C.2   1010  HEM1010     0.0000
      8  C2A       99.1930   11.4340   53.7990 C.2   1010  HEM1010     0.0000
      9  C3A       99.2440   11.3790   55.1840 C.2   1010  HEM1010     0.0000
     10  C4A       99.1690   12.7230   55.5890 C.2   1010  HEM1010     0.0000
     11  CMA       99.3610   10.1380   56.0760 C.3   1010  HEM1010     0.0000
     12  CAA       99.3810   10.3220   52.7900 C.3   1010  HEM1010     0.0000
     13  CBA      100.7520   10.3950   52.1170 C.3   1010  HEM1010     0.0000
     14  CGA      101.8610   10.7470   53.1000 C.2   1010  HEM1010     0.0000
     15  O1A      102.5470   11.7740   52.8950 O.co2 1010  HEM1010     0.0000
     16  O2A      102.0470   10.0000   54.0810 O.co2 1010  HEM1010     0.0000
     17  NB        99.0860   15.6590   56.6050 N.ar  1010  HEM1010     0.0000
     18  C1B       99.3290   14.5680   57.3490 C.ar  1010  HEM1010     0.0000
     19  C2B       99.5220   14.9370   58.6520 C.ar  1010  HEM1010     0.0000
     20  C3B       99.5520   16.3360   58.6650 C.ar  1010  HEM1010     0.0000
     21  C4B       99.2520   16.7260   57.3830 C.ar  1010  HEM1010     0.0000
     22  CMB       99.6670   13.9600   59.8240 C.3   1010  HEM1010     0.0000
     23  CAB       99.5570   17.2580   59.8800 C.3   1010  HEM1010     0.0000
     24  CBB      100.9090   17.1880   60.5850 C.3   1010  HEM1010     0.0000
     25  NC        98.4540   17.7720   54.6300 N.2   1010  HEM1010     0.0000
     26  C1C       98.6930   18.5380   55.6890 C.2   1010  HEM1010     0.0000
     27  C2C       98.4440   19.8830   55.3810 C.2   1010  HEM1010     0.0000
     28  C3C       98.1450   19.9110   54.0130 C.2   1010  HEM1010     0.0000
     29  C4C       98.2070   18.5580   53.6050 C.2   1010  HEM1010     0.0000
     30  CMC       98.5000   20.9990   56.4130 C.3   1010  HEM1010     0.0000
     31  CAC       97.7010   21.0680   53.1150 C.3   1010  HEM1010     0.0000
     32  CBC       98.2520   22.4020   53.6320 C.3   1010  HEM1010     0.0000
     33  ND        98.2930   15.6330   52.5430 N.ar  1010  HEM1010     0.0000
     34  C1D       98.1850   16.7370   51.8050 C.ar  1010  HEM1010     0.0000
     35  C2D       98.2440   16.4060   50.4760 C.ar  1010  HEM1010     0.0000
     36  C3D       98.7570   15.1130   50.4590 C.ar  1010  HEM1010     0.0000
     37  C4D       98.6200   14.6250   51.7370 C.ar  1010  HEM1010     0.0000
     38  CMD       97.8640   17.2900   49.2950 C.3   1010  HEM1010     0.0000
     39  CAD       99.3970   14.3980   49.2840 C.3   1010  HEM1010     0.0000
     40  CBD      100.9130   14.6170   49.2250 C.3   1010  HEM1010     0.0000
     41  CGD      101.7020   13.6260   50.0790 C.2   1010  HEM1010     0.0000
     42  O1D      102.3220   14.0510   51.0770 O.co2 1010  HEM1010     0.0000
     43  O2D      101.7090   12.4210   49.7490 O.co2 1010  HEM1010     0.0000
@<TRIPOS>BOND
     1    40    39    1
     2    40    41    1
     3    39    36    1
     4    38    35    1
     5    43    41   ar
     6    41    42   ar
     7    36    35   ar
     8    36    37   ar
     9    35    34   ar
    10    37     2    2
    11    37    33   ar
    12    34     5    2
    13    34    33   ar
    14    13    12    1
    15    13    14    1
    16     2     7    1
    17     5    29    1
    18    33     1    1
    19    12     8    1
    20    15    14   ar
    21    14    16   ar
    22    31    32    1
    23    31    28    1
    24     7     8    1
    25     7     6    2
    26    29    28    1
    27    29    25    2
    28     8     9    2
    29    28    27    2
    30     6     1    1
    31     6    10    1
    32     1    25    1
    33     1    17    1
    34    25    26    1
    35     9    10    1
    36     9    11    1
    37    27    26    1
    38    27    30    1
    39    10     3    2
    40    26     4    2
    41    17    18   ar
    42    17    21   ar
    43     3    18    1
    44     4    21    1
    45    18    19   ar
    46    21    20   ar
    47    19    20   ar
    48    19    22    1
    49    20    23    1
    50    23    24    1
