@<TRIPOS>MOLECULE
2cvd_GSH_A_1.pdb
 20 19 0 0 0
SMALL
GASTEIGER

@<TRIPOS>ATOM
      1  N1         6.9950   14.6780   26.0340 N.3   2001  GSH2001    -0.1208
      2  CA1        6.4970   15.9830   26.4570 C.3   2001  GSH2001     0.1948
      3  C1         7.5830   16.7750   27.2300 C.2   2001  GSH2001     0.3819
      4  O11        8.5830   16.1700   27.6410 O.co2 2001  GSH2001    -0.2441
      5  O12        7.4020   18.0820   27.3580 O.co2 2001  GSH2001    -0.2441
      6  CB1        5.2650   15.7210   27.3540 C.3   2001  GSH2001     0.0402
      7  CG1        4.3080   16.9400   27.4890 C.3   2001  GSH2001     0.0889
      8  CD1        3.1760   16.5110   28.4670 C.2   2001  GSH2001     0.2418
      9  OE1        2.5080   15.4900   28.2560 O.2   2001  GSH2001    -0.2733
     10  N2         2.9320   17.3650   29.4770 N.am  2001  GSH2001    -0.1968
     11  CA2        1.8460   17.0810   30.4300 C.3   2001  GSH2001     0.1843
     12  C2         0.6710   18.0180   30.1620 C.2   2001  GSH2001     0.2627
     13  O2         0.8200   19.1320   29.6490 O.2   2001  GSH2001    -0.2714
     14  CB2        2.2810   17.3930   31.8760 C.3   2001  GSH2001     0.0997
     15  SG2        3.6370   16.3470   32.4670 S.3   2001  GSH2001    -0.0797
     16  N3        -0.5390   17.4480   30.2570 N.am  2001  GSH2001    -0.1917
     17  CA3       -1.7710   18.2440   30.4060 C.3   2001  GSH2001     0.2285
     18  C3        -2.7430   17.8470   29.3220 C.2   2001  GSH2001     0.3865
     19  O31       -3.8580   18.3990   29.3540 O.co2 2001  GSH2001    -0.2437
     20  O32       -2.3790   16.9860   28.4810 O.co2 2001  GSH2001    -0.2437
@<TRIPOS>BOND
     1     1     2    1
     2     2     3    1
     3     2     6    1
     4     3     5   ar
     5     3     4   ar
     6     6     7    1
     7     7     8    1
     8     9     8    2
     9     8    10   am
    10    20    18   ar
    11    18    19   ar
    12    18    17    1
    13    10    11    1
    14    13    12    2
    15    12    16   am
    16    12    11    1
    17    16    17    1
    18    11    14    1
    19    14    15    1
