@<TRIPOS>MOLECULE
2cvd_HQL_A_1.pdb
 28 31 0 0 0
SMALL
GASTEIGER

@<TRIPOS>ATOM
      1  C1         6.7070    7.3040   36.7770 C.ar  2201  HQL2201    -0.0000
      2  C2         6.8250    7.5880   35.2990 C.ar  2201  HQL2201    -0.0002
      3  C3         6.6930    8.9310   34.7530 C.ar  2201  HQL2201    -0.0016
      4  C4         6.6630   10.0950   35.6860 C.ar  2201  HQL2201     0.0087
      5  C5         6.6890   11.4810   35.0690 C.3   2201  HQL2201     0.1596
      6  O1         6.0440   12.4640   35.9510 O.3   2201  HQL2201    -0.3498
      7  C6         5.4810   13.6180   35.2560 C.3   2201  HQL2201     0.1188
      8  C7         4.2150   13.2210   34.2720 C.3   2201  HQL2201     0.0469
      9  C8         3.1110   12.4910   35.1560 C.3   2201  HQL2201     0.0746
     10  N1         2.7810   13.5780   36.2830 N.3   2201  HQL2201    -0.2725
     11  C9         1.5590   12.8680   36.8110 C.3   2201  HQL2201     0.0732
     12  C10        0.9290   13.4320   38.0260 C.3   2201  HQL2201     0.0333
     13  C11       -0.4580   13.0380   37.8260 C.3   2201  HQL2201     0.1044
     14  C12       -1.3330   13.4360   38.9060 C.1   2201  HQL2201     0.0575
     15  N2        -2.6030   13.5900   38.7490 N.2   2201  HQL2201    -0.0755
     16  N3        -3.1150   13.9490   39.8810 N.2   2201  HQL2201    -0.0132
     17  N4        -2.1640   14.0130   40.7880 N.2   2201  HQL2201    -0.0132
     18  N5        -1.0290   13.6960   40.2350 N.2   2201  HQL2201    -0.0755
     19  C13        3.8710   14.1720   37.2390 C.3   2201  HQL2201     0.0746
     20  C14        5.1130   14.6000   36.4320 C.3   2201  HQL2201     0.0469
     21  C15        8.1070   11.9230   34.6410 C.ar  2201  HQL2201     0.0087
     22  C16        8.4030   11.9560   33.1620 C.ar  2201  HQL2201    -0.0016
     23  C17        9.7770   12.3600   32.7020 C.ar  2201  HQL2201    -0.0002
     24  C18       10.8200   12.7780   33.7150 C.ar  2201  HQL2201    -0.0000
     25  C19       10.5050   12.7770   35.1650 C.ar  2201  HQL2201    -0.0002
     26  C20        9.1420   12.3900   35.6380 C.ar  2201  HQL2201    -0.0016
     27  C21        6.5810    9.8630   37.2030 C.ar  2201  HQL2201    -0.0016
     28  C22        6.5700    8.4430   37.7320 C.ar  2201  HQL2201    -0.0002
@<TRIPOS>BOND
     1    23    22   ar
     2    23    24   ar
     3    22    21   ar
     4    24    25   ar
     5     8     9    1
     6     8     7    1
     7    21     5    1
     8    21    26   ar
     9     3     2   ar
    10     3     4   ar
    11     5     4    1
    12     5     6    1
    13     9    10    1
    14    25    26   ar
    15     7     6    1
    16     7    20    1
    17     2     1   ar
    18     4    27   ar
    19    10    11    1
    20    10    19    1
    21    20    19    1
    22     1    28   ar
    23    11    12    1
    24    27    28   ar
    25    13    12    1
    26    13    14    1
    27    15    14    2
    28    15    16    1
    29    14    18    2
    30    16    17    2
    31    18    17    1
