@<TRIPOS>MOLECULE
2cvq_NAP_A_1.pdb
 39 42 0 0 0
SMALL
GASTEIGER

@<TRIPOS>ATOM
      1  PA        -9.4310  -25.6790   33.1840 P.3   334  NAP334      0.2189
      2  O1A       -8.4730  -26.7710   33.0760 O.3   334  NAP334     -0.4371
      3  O2A       -9.5920  -24.9090   31.9310 O.2   334  NAP334     -0.5170
      4  O5B      -10.8180  -26.2160   33.5910 O.3   334  NAP334     -0.3112
      5  C5B      -12.0510  -25.3350   33.4720 C.3   334  NAP334      0.1813
      6  C4B      -13.2740  -26.2780   33.6300 C.3   334  NAP334      0.1820
      7  O4B      -13.4480  -27.4400   32.6260 O.3   334  NAP334     -0.3136
      8  C3B      -13.2730  -26.9940   35.0760 C.3   334  NAP334      0.2157
      9  O3B      -14.6100  -26.8100   35.6500 O.3   334  NAP334     -0.2175
     10  C2B      -12.9140  -28.4590   34.7010 C.3   334  NAP334      0.2314
     11  O2B      -13.4940  -29.4150   35.6760 O.3   334  NAP334     -0.2630
     12  C1B      -13.5840  -28.6320   33.3580 C.3   334  NAP334      0.3158
     13  N9A      -13.1240  -29.7000   32.4630 N.pl3 334  NAP334     -0.1439
     14  C8A      -13.9340  -30.6650   31.8890 C.3   334  NAP334      0.3377
     15  N7A      -13.1950  -31.4700   31.1880 N.2   334  NAP334     -0.2095
     16  C5A      -11.8780  -31.0730   31.2670 C.2   334  NAP334      0.2526
     17  C6A      -10.6430  -31.5410   30.7320 C.2   334  NAP334      0.4393
     18  N6A      -10.5610  -32.6190   29.9400 N.pl3 334  NAP334      0.2180
     19  N1A       -9.4810  -30.8570   31.0420 N.2   334  NAP334      0.0021
     20  C2A       -9.5610  -29.7560   31.8520 C.3   334  NAP334      0.5254
     21  N3A      -10.6850  -29.2260   32.4160 N.2   334  NAP334     -0.0055
     22  C4A      -11.8000  -29.9340   32.0810 C.2   334  NAP334      0.3518
     23  O3        -9.0510  -24.7530   34.3960 O.3   334  NAP334     -0.2703
     24  PN        -8.0870  -23.7100   35.1250 P.3   334  NAP334      0.2189
     25  O1N       -6.8670  -23.6280   34.2120 O.2   334  NAP334     -0.5170
     26  O2N       -7.9480  -23.9960   36.4090 O.3   334  NAP334     -0.4371
     27  O5D       -8.9540  -22.3160   34.8240 O.3   334  NAP334     -0.3112
     28  C5D       -9.8100  -21.6990   35.7820 C.3   334  NAP334      0.1812
     29  C4D       -9.8540  -20.2900   35.1180 C.3   334  NAP334      0.1780
     30  O4D      -11.1620  -19.8300   34.7700 O.3   334  NAP334     -0.3482
     31  C3D       -9.2100  -19.3280   36.1270 C.3   334  NAP334      0.2140
     32  O3D       -8.3950  -18.4930   35.3090 O.3   334  NAP334     -0.2176
     33  C2D      -10.4120  -18.6500   36.7850 C.3   334  NAP334      0.2140
     34  O2D      -10.0310  -17.3290   37.1150 O.3   334  NAP334     -0.2176
     35  C1D      -11.5440  -18.7000   35.7130 C.3   334  NAP334      0.1777
     36  P2B      -12.5510  -30.1650   36.6740 P.3   334  NAP334      0.5328
     37  O1X      -13.0910  -31.5720   36.9140 O.3   334  NAP334     -0.1145
     38  O2X      -11.2370  -30.1280   36.0710 O.2   334  NAP334     -0.2224
     39  O3X      -12.6840  -29.4330   38.0140 O.3   334  NAP334     -0.1145
@<TRIPOS>BOND
     1    18    17    1
     2    17    19    2
     3    17    16    1
     4    19    20    1
     5    15    16    2
     6    15    14    1
     7    16    22    1
     8    20    21    1
     9    14    13    1
    10     3     1    2
    11    22    21    2
    12    22    13    1
    13    13    12    1
    14     7    12    1
    15     7     6    1
    16     2     1    1
    17     1     4    1
    18     1    23    1
    19    12    10    1
    20     5     4    1
    21     5     6    1
    22     6     8    1
    23    25    24    2
    24    23    24    1
    25    10     8    1
    26    10    11    1
    27    30    29    1
    28    30    35    1
    29    27    24    1
    30    27    28    1
    31     8     9    1
    32    29    28    1
    33    29    31    1
    34    24    26    1
    35    32    31    1
    36    11    36    1
    37    35    33    1
    38    38    36    2
    39    31    33    1
    40    36    37    1
    41    36    39    1
    42    33    34    1
