@<TRIPOS>MOLECULE
2cvt_ANP_A_1.pdb
 31 33 0 0 0
SMALL
GASTEIGER

@<TRIPOS>ATOM
      1  PG       -11.7830   44.3130   26.4340 P.3   890  ANP890      0.4884
      2  O1G      -12.5380   43.7910   27.6360 O.3   890  ANP890     -0.1240
      3  O2G      -12.1760   43.7120   25.0900 O.2   890  ANP890     -0.2331
      4  O3G      -10.3150   44.6140   26.6740 O.3   890  ANP890     -0.1240
      5  PB       -11.9980   46.8210   25.3430 P.3   890  ANP890      0.4669
      6  O1B      -11.6930   45.9870   24.1080 O.2   890  ANP890     -0.2351
      7  O2B      -13.1170   47.8480   25.2750 O.3   890  ANP890     -0.1253
      8  N3B      -12.3960   45.7790   26.4780 N.3   890  ANP890     -0.0163
      9  PA        -9.5290   48.0480   24.9450 P.3   890  ANP890      0.2220
     10  O1A      -10.2140   48.6630   23.7650 O.2   890  ANP890     -0.5170
     11  O2A       -8.6830   48.9730   25.7730 O.3   890  ANP890     -0.4370
     12  O3A      -10.6170   47.4120   25.9400 O.3   890  ANP890     -0.2360
     13  O5'       -8.6890   46.7740   24.4530 O.3   890  ANP890     -0.3111
     14  C5'       -7.5990   47.0080   23.5670 C.3   890  ANP890      0.1813
     15  C4'       -7.7180   46.1950   22.2900 C.3   890  ANP890      0.1821
     16  O4'       -9.0380   46.3820   21.7790 O.3   890  ANP890     -0.3135
     17  C3'       -6.7320   46.7020   21.2490 C.3   890  ANP890      0.2184
     18  O3'       -6.0860   45.6030   20.5770 O.3   890  ANP890     -0.2174
     19  C2'       -7.6070   47.5480   20.3260 C.3   890  ANP890      0.2570
     20  O2'       -7.4440   47.3560   18.9240 O.3   890  ANP890     -0.2130
     21  C1'       -9.0220   47.1010   20.5390 C.3   890  ANP890      0.3186
     22  N9        -9.9560   48.2630   20.4420 N.pl3 890  ANP890     -0.1439
     23  C8       -10.8220   48.6830   21.3910 C.3   890  ANP890      0.3377
     24  N7       -11.5700   49.7400   21.0050 N.2   890  ANP890     -0.2095
     25  C5       -11.1680   50.0150   19.7730 C.2   890  ANP890      0.2526
     26  C6       -11.5620   51.0180   18.7980 C.2   890  ANP890      0.4393
     27  N6       -12.5320   51.9160   19.1160 N.pl3 890  ANP890      0.2180
     28  N1       -10.9200   50.9730   17.6040 N.2   890  ANP890      0.0021
     29  C2        -9.9660   50.0560   17.3020 C.3   890  ANP890      0.5254
     30  N3        -9.5580   49.1090   18.1620 N.2   890  ANP890     -0.0055
     31  C4       -10.1200   49.0510   19.3900 C.2   890  ANP890      0.3518
@<TRIPOS>BOND
     1    29    28    1
     2    29    30    1
     3    28    26    2
     4    30    31    2
     5    26    27    1
     6    26    25    1
     7    20    19    1
     8    31    25    1
     9    31    22    1
    10    25    24    2
    11    19    21    1
    12    19    17    1
    13    22    21    1
    14    22    23    1
    15    21    16    1
    16    18    17    1
    17    24    23    1
    18    17    15    1
    19    16    15    1
    20    15    14    1
    21    14    13    1
    22    10     9    2
    23     6     5    2
    24    13     9    1
    25     9    11    1
    26     9    12    1
    27     3     1    2
    28     7     5    1
    29     5    12    1
    30     5     8    1
    31     1     8    1
    32     1     4    1
    33     1     2    1
