@<TRIPOS>MOLECULE
2cvu_CDP_A_1.pdb
 25 26 0 0 0
SMALL
GASTEIGER

@<TRIPOS>ATOM
      1  O3B       26.5940   53.2240   18.0140 O.3   1002  CDP1002    -0.1143
      2  PB        26.9750   52.8190   16.6000 P.3   1002  CDP1002     0.5373
      3  O1B       28.4330   52.8930   16.2720 O.3   1002  CDP1002    -0.1143
      4  O2B       26.2010   53.4280   15.4450 O.2   1002  CDP1002    -0.2221
      5  O3A       26.7310   51.2150   16.6770 O.3   1002  CDP1002    -0.2261
      6  PA        25.6180   50.3210   15.9050 P.3   1002  CDP1002     0.2231
      7  O1A       26.1410   48.9110   16.0120 O.3   1002  CDP1002    -0.4370
      8  O2A       25.2180   50.8560   14.5230 O.2   1002  CDP1002    -0.5169
      9  O5'       24.3900   50.5010   16.9230 O.3   1002  CDP1002    -0.3111
     10  C5'       23.7190   49.3990   17.5320 C.3   1002  CDP1002     0.1813
     11  C4'       22.5930   49.9000   18.4340 C.3   1002  CDP1002     0.1799
     12  O4'       22.3980   51.3250   18.3530 O.3   1002  CDP1002    -0.3320
     13  C3'       21.2920   49.2380   18.0300 C.3   1002  CDP1002     0.2158
     14  O3'       20.9190   48.3060   19.0450 O.3   1002  CDP1002    -0.2175
     15  C2'       20.2800   50.3580   17.8850 C.3   1002  CDP1002     0.2319
     16  O2'       19.3760   50.3440   18.9900 O.3   1002  CDP1002    -0.2157
     17  C1'       21.0850   51.6540   17.8570 C.3   1002  CDP1002     0.2400
     18  N1        21.1230   52.2380   16.4900 N.am  1002  CDP1002    -0.1778
     19  C2        20.1400   53.1640   16.0460 C.1   1002  CDP1002     0.2756
     20  O2        19.2080   53.5350   16.8080 O.2   1002  CDP1002    -0.1925
     21  N3        20.2140   53.6560   14.7820 N.2   1002  CDP1002    -0.3024
     22  C4        21.2090   53.2950   13.9290 C.2   1002  CDP1002     0.2346
     23  N4        21.2860   53.7970   12.6730 N.pl3 1002  CDP1002    -0.0921
     24  C5        22.1780   52.3940   14.3410 C.2   1002  CDP1002     0.0687
     25  C6        22.1010   51.8850   15.6310 C.2   1002  CDP1002     0.0836
@<TRIPOS>BOND
     1    23    22    1
     2    22    24    1
     3    22    21    2
     4    24    25    2
     5     8     6    2
     6    21    19    2
     7     4     2    2
     8    25    18    1
     9     6     7    1
    10     6     5    1
    11     6     9    1
    12    19    18   am
    13    19    20    2
    14     3     2    1
    15    18    17    1
    16     2     5    1
    17     2     1    1
    18     9    10    1
    19    10    11    1
    20    17    15    1
    21    17    12    1
    22    15    13    1
    23    15    16    1
    24    13    11    1
    25    13    14    1
    26    12    11    1
