@<TRIPOS>MOLECULE
2cvu_ANP_A_1.pdb
 31 33 0 0 0
SMALL
GASTEIGER

@<TRIPOS>ATOM
      1  PG       -12.2650   44.8740   26.3960 P.3   1001  ANP1001     0.4884
      2  O1G      -12.6080   44.2130   25.0720 O.2   1001  ANP1001    -0.2331
      3  O2G      -10.8270   45.3120   26.5890 O.3   1001  ANP1001    -0.1240
      4  O3G      -12.8460   44.1910   27.6260 O.3   1001  ANP1001    -0.1240
      5  PB       -12.3000   47.7340   26.3970 P.3   1001  ANP1001     0.4669
      6  O1B      -13.3010   48.7490   25.9000 O.2   1001  ANP1001    -0.2351
      7  O2B      -11.5960   47.9170   27.7200 O.3   1001  ANP1001    -0.1253
      8  N3B      -13.0350   46.2860   26.2700 N.3   1001  ANP1001    -0.0163
      9  PA        -9.7820   48.3310   25.3240 P.3   1001  ANP1001     0.2220
     10  O1A       -9.8610   49.8360   25.2440 O.2   1001  ANP1001    -0.5170
     11  O2A       -9.1350   47.5970   26.4890 O.3   1001  ANP1001    -0.4370
     12  O3A      -11.2310   47.6720   25.1900 O.3   1001  ANP1001    -0.2360
     13  O5'       -9.1480   47.8660   23.9310 O.3   1001  ANP1001    -0.3111
     14  C5'       -9.0370   46.4900   23.6820 C.3   1001  ANP1001     0.1813
     15  C4'       -8.5760   46.2950   22.2510 C.3   1001  ANP1001     0.1821
     16  O4'       -9.5910   46.7400   21.3650 O.3   1001  ANP1001    -0.3135
     17  C3'       -7.3170   47.0270   21.8960 C.3   1001  ANP1001     0.2184
     18  O3'       -6.4870   46.1650   21.0820 O.3   1001  ANP1001    -0.2174
     19  C2'       -7.8730   48.1940   21.1220 C.3   1001  ANP1001     0.2570
     20  O2'       -6.9910   48.4990   20.0610 O.3   1001  ANP1001    -0.2130
     21  C1'       -9.1490   47.7310   20.4830 C.3   1001  ANP1001     0.3186
     22  N9       -10.1430   48.8260   20.5120 N.pl3 1001  ANP1001    -0.1439
     23  C8       -10.9870   49.1220   21.5260 C.3   1001  ANP1001     0.3377
     24  N7       -11.7720   50.1950   21.2310 N.2   1001  ANP1001    -0.2095
     25  C5       -11.4320   50.6120   19.9880 C.2   1001  ANP1001     0.2526
     26  C6       -11.8670   51.6870   19.0380 C.2   1001  ANP1001     0.4393
     27  N6       -12.8280   52.5990   19.3310 N.pl3 1001  ANP1001     0.2180
     28  N1       -11.2620   51.7250   17.8420 N.2   1001  ANP1001     0.0021
     29  C2       -10.2890   50.8580   17.4990 C.3   1001  ANP1001     0.5254
     30  N3        -9.8350   49.8630   18.2820 N.2   1001  ANP1001    -0.0055
     31  C4       -10.3610   49.6920   19.5220 C.2   1001  ANP1001     0.3518
@<TRIPOS>BOND
     1    29    28    1
     2    29    30    1
     3    28    26    2
     4    30    31    2
     5    26    27    1
     6    26    25    1
     7    31    25    1
     8    31    22    1
     9    25    24    2
    10    20    19    1
    11    21    22    1
    12    21    19    1
    13    21    16    1
    14    22    23    1
    15    18    17    1
    16    19    17    1
    17    24    23    1
    18    16    15    1
    19    17    15    1
    20    15    14    1
    21    14    13    1
    22    13     9    1
    23     2     1    2
    24    12     9    1
    25    12     5    1
    26    10     9    2
    27     9    11    1
    28     6     5    2
    29     8     1    1
    30     8     5    1
    31     1     3    1
    32     1     4    1
    33     5     7    1
