@<TRIPOS>MOLECULE
2cvv_ANP_A_1.pdb
 31 33 0 0 0
SMALL
GASTEIGER

@<TRIPOS>ATOM
      1  PG       -12.2930   44.9720   26.6130 P.3   1001  ANP1001     0.4884
      2  O1G      -12.7830   44.1260   25.4660 O.2   1001  ANP1001    -0.2331
      3  O2G      -10.8150   45.3070   26.6080 O.3   1001  ANP1001    -0.1240
      4  O3G      -12.7910   44.5200   27.9800 O.3   1001  ANP1001    -0.1240
      5  PB       -12.2930   47.8470   26.5820 P.3   1001  ANP1001     0.4669
      6  O1B      -13.3020   48.8820   26.1830 O.2   1001  ANP1001    -0.2351
      7  O2B      -11.6470   47.9890   27.9330 O.3   1001  ANP1001    -0.1253
      8  N3B      -12.9960   46.4010   26.2910 N.3   1001  ANP1001    -0.0163
      9  PA        -9.7400   48.3910   25.5430 P.3   1001  ANP1001     0.2220
     10  O1A       -9.7330   49.9000   25.4730 O.2   1001  ANP1001    -0.5170
     11  O2A       -9.0470   47.5890   26.6370 O.3   1001  ANP1001    -0.4370
     12  O3A      -11.2050   47.7830   25.4250 O.3   1001  ANP1001    -0.2360
     13  O5'       -9.2700   47.9260   24.0850 O.3   1001  ANP1001    -0.3111
     14  C5'       -9.2400   46.5420   23.7880 C.3   1001  ANP1001     0.1813
     15  C4'       -8.6440   46.3240   22.4130 C.3   1001  ANP1001     0.1821
     16  O4'       -9.5910   46.7580   21.4380 O.3   1001  ANP1001    -0.3135
     17  C3'       -7.3610   47.0940   22.2160 C.3   1001  ANP1001     0.2184
     18  O3'       -6.3800   46.2840   21.5180 O.3   1001  ANP1001    -0.2174
     19  C2'       -7.8590   48.2760   21.4050 C.3   1001  ANP1001     0.2570
     20  O2'       -6.8620   48.5780   20.4530 O.3   1001  ANP1001    -0.2130
     21  C1'       -9.1190   47.8510   20.6640 C.3   1001  ANP1001     0.3186
     22  N9       -10.1450   48.9380   20.6490 N.pl3 1001  ANP1001    -0.1439
     23  C8       -10.9890   49.2240   21.6730 C.3   1001  ANP1001     0.3377
     24  N7       -11.8250   50.2660   21.3810 N.2   1001  ANP1001    -0.2095
     25  C5       -11.5210   50.6950   20.1390 C.2   1001  ANP1001     0.2526
     26  C6       -12.0210   51.7670   19.2250 C.2   1001  ANP1001     0.4393
     27  N6       -13.0170   52.6360   19.5600 N.pl3 1001  ANP1001     0.2180
     28  N1       -11.4250   51.8380   18.0170 N.2   1001  ANP1001     0.0021
     29  C2       -10.4280   51.0120   17.6450 C.3   1001  ANP1001     0.5254
     30  N3        -9.9290   50.0270   18.4100 N.2   1001  ANP1001    -0.0055
     31  C4       -10.4200   49.8090   19.6560 C.2   1001  ANP1001     0.3518
@<TRIPOS>BOND
     1    29    28    1
     2    29    30    1
     3    28    26    2
     4    30    31    2
     5    26    27    1
     6    26    25    1
     7    31    25    1
     8    31    22    1
     9    25    24    2
    10    20    19    1
    11    22    21    1
    12    22    23    1
    13    21    19    1
    14    21    16    1
    15    24    23    1
    16    19    17    1
    17    16    15    1
    18    18    17    1
    19    17    15    1
    20    15    14    1
    21    14    13    1
    22    13     9    1
    23    12     9    1
    24    12     5    1
    25     2     1    2
    26    10     9    2
    27     9    11    1
    28     6     5    2
    29     8     5    1
    30     8     1    1
    31     5     7    1
    32     3     1    1
    33     1     4    1
