@<TRIPOS>MOLECULE
2cvv_UDP_A_1.pdb
 25 26 0 0 0
SMALL
GASTEIGER

@<TRIPOS>ATOM
      1  N1        20.9600   52.1370   16.6370 N.am  1002  UDP1002    -0.1766
      2  C2        20.0370   53.1530   16.3200 C.1   1002  UDP1002     0.2845
      3  N3        20.0020   53.6370   15.0070 N.2   1002  UDP1002    -0.2452
      4  C4        20.8580   53.1280   14.0260 C.1   1002  UDP1002     0.2182
      5  C5        21.7580   52.1260   14.3690 C.2   1002  UDP1002     0.1242
      6  C6        21.7650   51.6690   15.6300 C.2   1002  UDP1002     0.0929
      7  O2        19.2600   53.6400   17.1630 O.2   1002  UDP1002    -0.1918
      8  O4        20.8420   53.5510   12.8650 O.2   1002  UDP1002    -0.2085
      9  C1'       21.0670   51.5300   18.0050 C.3   1002  UDP1002     0.2401
     10  C2'       20.2880   50.2090   18.1060 C.3   1002  UDP1002     0.2319
     11  O2'       19.5860   50.0890   19.3290 O.3   1002  UDP1002    -0.2157
     12  C3'       21.3680   49.1400   17.9860 C.3   1002  UDP1002     0.2158
     13  C4'       22.6330   49.8180   18.4950 C.3   1002  UDP1002     0.1799
     14  O4'       22.4210   51.2200   18.3400 O.3   1002  UDP1002    -0.3320
     15  O3'       21.0770   47.9420   18.6790 O.3   1002  UDP1002    -0.2175
     16  C5'       23.8740   49.3640   17.7270 C.3   1002  UDP1002     0.1813
     17  O5'       24.0950   50.2430   16.6450 O.3   1002  UDP1002    -0.3111
     18  PA        25.4810   50.3630   15.8320 P.3   1002  UDP1002     0.2231
     19  O1A       26.5480   49.5280   16.4440 O.3   1002  UDP1002    -0.4370
     20  O2A       25.2420   50.0470   14.3910 O.2   1002  UDP1002    -0.5169
     21  O3A       25.8070   51.9430   15.9710 O.3   1002  UDP1002    -0.2261
     22  PB        27.1170   52.6550   16.6000 P.3   1002  UDP1002     0.5373
     23  O1B       28.3410   52.0510   16.0110 O.2   1002  UDP1002    -0.2221
     24  O2B       27.0980   54.0830   16.2100 O.3   1002  UDP1002    -0.1143
     25  O3B       27.0730   52.4850   18.0660 O.3   1002  UDP1002    -0.1143
@<TRIPOS>BOND
     1     8     4    2
     2     4     5    1
     3     4     3    2
     4     5     6    2
     5    20    18    2
     6     3     2    2
     7     6     1    1
     8    18    21    1
     9    18    19    1
    10    18    17    1
    11    21    22    1
    12    23    22    2
    13    24    22    1
    14     2     1   am
    15     2     7    2
    16    22    25    1
    17     1     9    1
    18    17    16    1
    19    16    13    1
    20    12    10    1
    21    12    13    1
    22    12    15    1
    23     9    10    1
    24     9    14    1
    25    10    11    1
    26    14    13    1
