@<TRIPOS>MOLECULE
2cvw_GDP_A_1.pdb
 28 30 0 0 0
SMALL
GASTEIGER

@<TRIPOS>ATOM
      1  PB        26.6810   52.7350   16.8880 P.3   1002  GDP1002     0.5373
      2  O1B       28.0980   52.4100   17.1750 O.3   1002  GDP1002    -0.1143
      3  O2B       25.8390   52.6720   18.1620 O.3   1002  GDP1002    -0.1143
      4  O3B       26.6100   54.0880   16.2150 O.2   1002  GDP1002    -0.2221
      5  O3A       26.0570   51.7410   15.7820 O.3   1002  GDP1002    -0.2261
      6  PA        25.4870   50.2280   15.8820 P.3   1002  GDP1002     0.2231
      7  O1A       24.9220   49.9410   14.5240 O.2   1002  GDP1002    -0.5169
      8  O2A       26.6010   49.2770   16.2720 O.3   1002  GDP1002    -0.4370
      9  O5'       24.3480   50.3210   16.9940 O.3   1002  GDP1002    -0.3111
     10  C5'       23.9850   49.2310   17.8310 C.3   1002  GDP1002     0.1813
     11  C4'       22.7990   49.6880   18.6730 C.3   1002  GDP1002     0.1799
     12  O4'       22.5530   51.0970   18.5390 O.3   1002  GDP1002    -0.3326
     13  C3'       21.5360   48.9580   18.2530 C.3   1002  GDP1002     0.2158
     14  O3'       21.3180   47.8750   19.1460 O.3   1002  GDP1002    -0.2175
     15  C2'       20.4370   50.0200   18.2190 C.3   1002  GDP1002     0.2310
     16  O2'       19.5080   50.0060   19.2980 O.3   1002  GDP1002    -0.2158
     17  C1'       21.1980   51.3460   18.1590 C.3   1002  GDP1002     0.2293
     18  N9        21.0780   51.8010   16.7450 N.pl3 1002  GDP1002    -0.2354
     19  C8        21.7970   51.3860   15.6760 C.3   1002  GDP1002     0.2246
     20  N7        21.3730   52.0040   14.5330 N.2   1002  GDP1002    -0.2322
     21  C5        20.3640   52.8270   14.8810 C.2   1002  GDP1002     0.2182
     22  C6        19.4700   53.7670   14.1680 C.1   1002  GDP1002     0.2372
     23  O6        19.6270   53.8930   12.9270 O.2   1002  GDP1002    -0.2069
     24  N1        18.5260   54.4350   14.8860 N.2   1002  GDP1002    -0.2485
     25  C2        18.3970   54.2580   16.2420 C.1   1002  GDP1002     0.2531
     26  N2        17.4540   54.9420   16.9340 N.pl3 1002  GDP1002    -0.0226
     27  N3        19.1890   53.4060   16.9520 N.2   1002  GDP1002    -0.3074
     28  C4        20.1610   52.6810   16.3360 C.2   1002  GDP1002     0.2300
@<TRIPOS>BOND
     1    23    22    2
     2    22    21    1
     3    22    24    2
     4     7     6    2
     5    20    21    2
     6    20    19    1
     7    21    28    1
     8    24    25    2
     9    19    18    1
    10     5     6    1
    11     5     1    1
    12     6     8    1
    13     6     9    1
    14     4     1    2
    15    25    26    1
    16    25    27    2
    17    28    18    1
    18    28    27    2
    19    18    17    1
    20     1     2    1
    21     1     3    1
    22     9    10    1
    23    10    11    1
    24    17    15    1
    25    17    12    1
    26    15    13    1
    27    15    16    1
    28    13    11    1
    29    13    14    1
    30    12    11    1
