@<TRIPOS>MOLECULE
2cvw_TTP_A_1.pdb
 29 30 0 0 0
SMALL
GASTEIGER

@<TRIPOS>ATOM
      1  PA        -9.8830   48.5200   24.8930 P.3   1001  TTP1001     0.2189
      2  O1A      -11.2660   48.3790   24.3360 O.2   1001  TTP1001    -0.5170
      3  O2A       -9.5440   49.9820   25.0180 O.3   1001  TTP1001    -0.4371
      4  O3A       -9.7900   47.9190   26.3600 O.3   1001  TTP1001    -0.2700
      5  PB       -11.1940   47.5430   27.0390 P.3   1001  TTP1001     0.2277
      6  O1B      -12.4610   48.0050   26.3280 O.2   1001  TTP1001    -0.5168
      7  O2B      -11.2940   48.1080   28.4370 O.3   1001  TTP1001    -0.4368
      8  O3B      -11.0140   45.9090   27.0120 O.3   1001  TTP1001    -0.2258
      9  PG       -12.2830   44.9610   26.6530 P.3   1001  TTP1001     0.5373
     10  O1G      -12.8300   44.5560   28.0320 O.3   1001  TTP1001    -0.1143
     11  O2G      -13.2580   45.7790   25.8280 O.2   1001  TTP1001    -0.2221
     12  O3G      -11.9800   43.7370   25.8310 O.3   1001  TTP1001    -0.1143
     13  O5'       -8.8860   47.6840   23.9760 O.3   1001  TTP1001    -0.3112
     14  C5'       -9.3000   46.4900   23.3410 C.3   1001  TTP1001     0.1812
     15  C4'       -8.4870   46.3460   22.0680 C.3   1001  TTP1001     0.1773
     16  O4'       -9.2530   46.8620   21.0040 O.3   1001  TTP1001    -0.3339
     17  C3'       -7.1690   47.0780   22.0490 C.3   1001  TTP1001     0.1857
     18  O3'       -6.1480   46.1810   21.5960 O.3   1001  TTP1001    -0.2203
     19  C2'       -7.3450   48.1540   21.0070 C.3   1001  TTP1001     0.0874
     20  C1'       -8.4800   47.6780   20.1260 C.3   1001  TTP1001     0.2090
     21  N1        -9.3320   48.7720   19.6460 N.am  1001  TTP1001    -0.1794
     22  C2        -9.4060   49.0960   18.2670 C.1   1001  TTP1001     0.2844
     23  O2        -8.7150   48.4620   17.4210 O.2   1001  TTP1001    -0.1918
     24  N3       -10.1960   50.1120   17.8390 N.2   1001  TTP1001    -0.2455
     25  C4       -10.9690   50.8230   18.6970 C.1   1001  TTP1001     0.2134
     26  O4       -11.7240   51.7460   18.2780 O.2   1001  TTP1001    -0.2088
     27  C5       -10.9080   50.4770   20.1500 C.2   1001  TTP1001     0.0891
     28  C5M      -11.7360   51.1940   21.1700 C.3   1001  TTP1001     0.0462
     29  C6       -10.0750   49.4380   20.5560 C.2   1001  TTP1001     0.0877
@<TRIPOS>BOND
     1    23    22    2
     2    24    22    2
     3    24    25    2
     4    22    21   am
     5    26    25    2
     6    25    27    1
     7    21    20    1
     8    21    29    1
     9    20    16    1
    10    20    19    1
    11    27    29    2
    12    27    28    1
    13    16    15    1
    14    19    17    1
    15    18    17    1
    16    17    15    1
    17    15    14    1
    18    14    13    1
    19    13     1    1
    20     2     1    2
    21     1     3    1
    22     1     4    1
    23    11     9    2
    24    12     9    1
    25     6     5    2
    26     4     5    1
    27     9     8    1
    28     9    10    1
    29     8     5    1
    30     5     7    1
