@<TRIPOS>MOLECULE
2cvx_ADP_A_1.pdb
 27 29 0 0 0
SMALL
GASTEIGER

@<TRIPOS>ATOM
      1  PB        26.4960   52.6310   16.5000 P.3   1002  ADP1002     0.5373
      2  O1B       26.7020   52.7510   17.9870 O.3   1002  ADP1002    -0.1143
      3  O2B       25.9390   53.8740   15.8520 O.3   1002  ADP1002    -0.1143
      4  O3B       27.6080   51.9690   15.7400 O.2   1002  ADP1002    -0.2221
      5  PA        25.1560   50.0470   15.9710 P.3   1002  ADP1002     0.2231
      6  O1A       24.8950   49.9640   14.4830 O.2   1002  ADP1002    -0.5169
      7  O2A       26.2610   49.2070   16.5470 O.3   1002  ADP1002    -0.4370
      8  O3A       25.2290   51.6080   16.4310 O.3   1002  ADP1002    -0.2261
      9  O5'       23.7870   49.6290   16.6860 O.3   1002  ADP1002    -0.3111
     10  C5'       23.7600   49.1210   18.0170 C.3   1002  ADP1002     0.1813
     11  C4'       22.4800   49.6060   18.6990 C.3   1002  ADP1002     0.1821
     12  O4'       22.2560   51.0010   18.4430 O.3   1002  ADP1002    -0.3135
     13  C3'       21.2400   48.8770   18.2090 C.3   1002  ADP1002     0.2184
     14  O3'       21.0230   47.6980   18.9840 O.3   1002  ADP1002    -0.2174
     15  C2'       20.1300   49.9170   18.3460 C.3   1002  ADP1002     0.2570
     16  O2'       19.3480   49.7530   19.5490 O.3   1002  ADP1002    -0.2130
     17  C1'       20.8550   51.2610   18.3120 C.3   1002  ADP1002     0.3186
     18  N9        20.5850   51.9040   17.0020 N.pl3 1002  ADP1002    -0.1439
     19  C8        21.0430   51.5290   15.7780 C.3   1002  ADP1002     0.3377
     20  N7        20.5650   52.3470   14.8010 N.2   1002  ADP1002    -0.2095
     21  C5        19.7720   53.2580   15.3930 C.2   1002  ADP1002     0.2526
     22  C6        18.9260   54.4130   14.9820 C.2   1002  ADP1002     0.4393
     23  N6        18.8040   54.8160   13.6990 N.pl3 1002  ADP1002     0.2180
     24  N1        18.2630   55.0860   15.9430 N.2   1002  ADP1002     0.0021
     25  C2        18.3440   54.7410   17.2360 C.3   1002  ADP1002     0.5254
     26  N3        19.0780   53.7060   17.6750 N.2   1002  ADP1002    -0.0055
     27  C4        19.7980   52.9530   16.8340 C.2   1002  ADP1002     0.3518
@<TRIPOS>BOND
     1    23    22    1
     2     6     5    2
     3    20    21    2
     4    20    19    1
     5    22    21    1
     6    22    24    2
     7    21    27    1
     8     4     1    2
     9    19    18    1
    10     3     1    1
    11    24    25    1
    12     5     8    1
    13     5     7    1
    14     5     9    1
    15     8     1    1
    16     1     2    1
    17     9    10    1
    18    27    18    1
    19    27    26    2
    20    18    17    1
    21    25    26    1
    22    10    11    1
    23    13    15    1
    24    13    11    1
    25    13    14    1
    26    17    15    1
    27    17    12    1
    28    15    16    1
    29    12    11    1
