@<TRIPOS>MOLECULE
2cvx_DGT_A_1.pdb
 31 33 0 0 0
SMALL
GASTEIGER

@<TRIPOS>ATOM
      1  PG       -12.7100   44.9890   27.3030 P.3   1001  DGT1001     0.5373
      2  O1G      -11.1940   45.0820   27.3480 O.3   1001  DGT1001    -0.1143
      3  O2G      -13.1450   44.5300   28.6620 O.3   1001  DGT1001    -0.1143
      4  O3G      -13.1410   44.0290   26.2290 O.2   1001  DGT1001    -0.2221
      5  O3B      -13.2850   46.4430   26.9400 O.3   1001  DGT1001    -0.2258
      6  PB       -12.6110   47.8540   27.3100 P.3   1001  DGT1001     0.2277
      7  O1B      -11.9770   47.7240   28.6540 O.3   1001  DGT1001    -0.4368
      8  O2B      -13.6900   48.9050   27.2200 O.2   1001  DGT1001    -0.5168
      9  O3A      -11.6000   48.1290   26.0790 O.3   1001  DGT1001    -0.2700
     10  PA       -10.0180   48.4330   26.1990 P.3   1001  DGT1001     0.2189
     11  O1A       -9.4580   47.5520   27.2580 O.3   1001  DGT1001    -0.4371
     12  O2A       -9.6470   49.9020   26.3220 O.2   1001  DGT1001    -0.5170
     13  O5'       -9.5550   47.9380   24.7450 O.3   1001  DGT1001    -0.3112
     14  C5'       -9.4410   46.5600   24.4700 C.3   1001  DGT1001     0.1812
     15  C4'       -8.7740   46.3820   23.0900 C.3   1001  DGT1001     0.1772
     16  O4'       -9.6010   46.9290   22.0920 O.3   1001  DGT1001    -0.3347
     17  C3'       -7.4060   47.0240   22.9180 C.3   1001  DGT1001     0.1857
     18  O3'       -6.6450   46.1870   22.0470 O.3   1001  DGT1001    -0.2203
     19  C2'       -7.6960   48.3250   22.2020 C.3   1001  DGT1001     0.0865
     20  C1'       -8.9770   48.0190   21.4310 C.3   1001  DGT1001     0.1981
     21  N9        -9.9370   49.1500   21.3460 N.pl3 1001  DGT1001    -0.2374
     22  C8       -10.6420   49.6940   22.3910 C.3   1001  DGT1001     0.2245
     23  N7       -11.4320   50.6940   21.9310 N.2   1001  DGT1001    -0.2322
     24  C5       -11.2310   50.7730   20.5860 C.2   1001  DGT1001     0.2182
     25  C6       -11.7710   51.6170   19.6170 C.1   1001  DGT1001     0.2372
     26  O6       -12.5890   52.4890   19.9520 O.2   1001  DGT1001    -0.2069
     27  N1       -11.3880   51.4940   18.2920 N.2   1001  DGT1001    -0.2485
     28  C2       -10.4690   50.5360   17.9360 C.1   1001  DGT1001     0.2531
     29  N2       -10.1130   50.4380   16.6470 N.pl3 1001  DGT1001    -0.0226
     30  N3        -9.9130   49.7050   18.9020 N.2   1001  DGT1001    -0.3074
     31  C4       -10.2870   49.8260   20.2080 C.2   1001  DGT1001     0.2299
@<TRIPOS>BOND
     1    29    28    1
     2    28    27    2
     3    28    30    2
     4    27    25    2
     5    30    31    2
     6    25    26    2
     7    25    24    1
     8    31    24    1
     9    31    21    1
    10    24    23    2
    11    21    20    1
    12    21    22    1
    13    20    16    1
    14    20    19    1
    15    23    22    1
    16    18    17    1
    17    16    15    1
    18    19    17    1
    19    17    15    1
    20    15    14    1
    21    14    13    1
    22    13    10    1
    23     9    10    1
    24     9     6    1
    25    10    12    2
    26    10    11    1
    27     4     1    2
    28     5     1    1
    29     5     6    1
    30     8     6    2
    31     1     2    1
    32     1     3    1
    33     6     7    1
