@<TRIPOS>MOLECULE
2cvy_TTP_A_1.pdb
 29 30 0 0 0
SMALL
GASTEIGER

@<TRIPOS>ATOM
      1  PA        -9.5530   48.1530   24.8160 P.3   1001  TTP1001     0.2189
      2  O1A       -9.2850   49.6160   25.0880 O.2   1001  TTP1001    -0.5170
      3  O2A       -8.9290   47.2590   25.8580 O.3   1001  TTP1001    -0.4371
      4  O3A      -11.1550   47.9460   24.7460 O.3   1001  TTP1001    -0.2700
      5  PB       -11.9970   47.3730   25.9980 P.3   1001  TTP1001     0.2277
      6  O1B      -13.4520   47.5440   25.6760 O.2   1001  TTP1001    -0.5168
      7  O2B      -11.6160   47.9570   27.3280 O.3   1001  TTP1001    -0.4368
      8  O3B      -11.4220   45.8650   26.0130 O.3   1001  TTP1001    -0.2258
      9  PG       -12.3420   44.5760   25.8530 P.3   1001  TTP1001     0.5373
     10  O1G      -13.5210   44.7980   26.7670 O.3   1001  TTP1001    -0.1143
     11  O2G      -12.7090   44.3050   24.4240 O.2   1001  TTP1001    -0.2221
     12  O3G      -11.5710   43.3840   26.3420 O.3   1001  TTP1001    -0.1143
     13  O5'       -9.1600   47.7230   23.3120 O.3   1001  TTP1001    -0.3112
     14  C5'       -8.7690   46.3760   23.0720 C.3   1001  TTP1001     0.1812
     15  C4'       -8.0310   46.1610   21.7490 C.3   1001  TTP1001     0.1773
     16  O4'       -8.8320   46.5900   20.6570 O.3   1001  TTP1001    -0.3339
     17  C3'       -6.6870   46.8440   21.6360 C.3   1001  TTP1001     0.1857
     18  O3'       -5.7850   45.9470   20.9340 O.3   1001  TTP1001    -0.2203
     19  C2'       -7.0260   48.0660   20.8130 C.3   1001  TTP1001     0.0874
     20  C1'       -8.1370   47.5480   19.8990 C.3   1001  TTP1001     0.2090
     21  N1        -9.0260   48.6330   19.4710 N.am  1001  TTP1001    -0.1794
     22  C2        -9.0590   48.9970   18.1010 C.1   1001  TTP1001     0.2844
     23  O2        -8.3480   48.3680   17.2700 O.2   1001  TTP1001    -0.1918
     24  N3        -9.8390   50.0110   17.6880 N.2   1001  TTP1001    -0.2455
     25  C4       -10.6160   50.6890   18.5670 C.1   1001  TTP1001     0.2134
     26  O4       -11.3490   51.6340   18.1730 O.2   1001  TTP1001    -0.2088
     27  C5       -10.6000   50.3150   20.0170 C.2   1001  TTP1001     0.0891
     28  C5M      -11.4410   51.0090   21.0510 C.3   1001  TTP1001     0.0462
     29  C6        -9.7710   49.2720   20.4000 C.2   1001  TTP1001     0.0877
@<TRIPOS>BOND
     1    23    22    2
     2    24    22    2
     3    24    25    2
     4    22    21   am
     5    26    25    2
     6    25    27    1
     7    21    20    1
     8    21    29    1
     9    20    16    1
    10    20    19    1
    11    27    29    2
    12    27    28    1
    13    16    15    1
    14    19    17    1
    15    18    17    1
    16    17    15    1
    17    15    14    1
    18    14    13    1
    19    13     1    1
    20    11     9    2
    21     4     1    1
    22     4     5    1
    23     1     2    2
    24     1     3    1
    25     6     5    2
    26     9     8    1
    27     9    12    1
    28     9    10    1
    29     5     8    1
    30     5     7    1
