@<TRIPOS>MOLECULE
2cvz_NDP_A_1.pdb
 48 52 0 0 0
SMALL
GASTEIGER

@<TRIPOS>ATOM
      1  PA        12.8600   10.4130   12.5750 P.3   1302  NDP1302     0.2189
      2  O1A       12.9860   11.8420   12.7700 O.2   1302  NDP1302    -0.5170
      3  O2A       12.7120    9.4310   13.7060 O.3   1302  NDP1302    -0.4371
      4  O5B       11.5960   10.2160   11.5370 O.3   1302  NDP1302    -0.3112
      5  C5B       11.1820    8.8840   11.1840 C.3   1302  NDP1302     0.1813
      6  C4B       10.0100    9.1070   10.2300 C.3   1302  NDP1302     0.1820
      7  O4B        9.5100    7.7790    9.8870 O.3   1302  NDP1302    -0.3136
      8  C3B        8.8540    9.8950   10.7470 C.3   1302  NDP1302     0.2157
      9  O3B        8.2790   10.6660    9.6570 O.3   1302  NDP1302    -0.2175
     10  C2B        7.8830    8.8760   11.2140 C.3   1302  NDP1302     0.2314
     11  O2B        6.5210    9.2670   11.4110 O.3   1302  NDP1302    -0.2630
     12  C1B        8.1200    7.7960   10.2060 C.3   1302  NDP1302     0.3158
     13  N9A        7.6590    6.4590   10.6850 N.pl3 1302  NDP1302    -0.1439
     14  C8A        8.1240    5.7030   11.7870 C.3   1302  NDP1302     0.3377
     15  N7A        7.4670    4.5630   11.8860 N.2   1302  NDP1302    -0.2095
     16  C5A        6.5620    4.5430   10.8610 C.2   1302  NDP1302     0.2526
     17  C6A        5.5850    3.6190   10.4260 C.2   1302  NDP1302     0.4393
     18  N6A        5.4090    2.4700   11.0800 N.pl3 1302  NDP1302     0.2180
     19  N1A        4.8270    3.9120    9.3370 N.2   1302  NDP1302     0.0021
     20  C2A        5.0100    5.0830    8.6770 C.3   1302  NDP1302     0.5254
     21  N3A        5.9070    6.0200    9.0070 N.2   1302  NDP1302    -0.0055
     22  C4A        6.6620    5.6890   10.1190 C.2   1302  NDP1302     0.3518
     23  O3        13.9940    9.8710   11.6280 O.3   1302  NDP1302    -0.2703
     24  PN        15.2340   10.4760   10.8150 P.3   1302  NDP1302     0.2189
     25  O1N       16.1900   11.0260   11.7860 O.3   1302  NDP1302    -0.4371
     26  O2N       14.5610   11.3620    9.8200 O.2   1302  NDP1302    -0.5170
     27  O5D       15.7650    9.1820   10.0630 O.3   1302  NDP1302    -0.3112
     28  C5D       14.9810    8.4940    9.0240 C.3   1302  NDP1302     0.1813
     29  C4D       15.9920    7.6470    8.1910 C.3   1302  NDP1302     0.1799
     30  O4D       17.0410    8.5190    7.7570 O.3   1302  NDP1302    -0.3327
     31  C3D       16.6800    6.5770    9.0460 C.3   1302  NDP1302     0.2158
     32  O3D       16.8250    5.3870    8.2660 O.3   1302  NDP1302    -0.2175
     33  C2D       17.9930    7.2020    9.4530 C.3   1302  NDP1302     0.2309
     34  O2D       18.9090    6.1850    9.8360 O.3   1302  NDP1302    -0.2158
     35  C1D       18.3120    7.9530    8.0940 C.3   1302  NDP1302     0.2263
     36  N1N       19.2840    9.0820    8.2110 N.pl3 1302  NDP1302    -0.2787
     37  C2N       19.1660    9.9660    9.3190 C.3   1302  NDP1302     0.1244
     38  C3N       20.1250   11.0570    9.3780 C.2   1302  NDP1302     0.0544
     39  C7N       20.0770   12.0240   10.4810 C.2   1302  NDP1302     0.2818
     40  O7N       21.0230   12.7970   10.7490 O.2   1302  NDP1302    -0.2670
     41  N7N       18.9760   12.1220   11.2590 N.am  1302  NDP1302    -0.0839
     42  C4N       21.0850   11.1670    8.3600 C.2   1302  NDP1302     0.0033
     43  C5N       21.1730   10.3000    7.3060 C.2   1302  NDP1302     0.0157
     44  C6N       20.2760    9.2600    7.2280 C.2   1302  NDP1302     0.0633
     45  P2B        5.9980    9.9950   12.6790 P.3   1302  NDP1302     0.5328
     46  O1X        4.5680    9.6350   12.7020 O.3   1302  NDP1302    -0.1145
     47  O2X        6.2380   11.4490   12.5260 O.2   1302  NDP1302    -0.2224
     48  O3X        6.7160    9.4590   13.9130 O.3   1302  NDP1302    -0.1145
@<TRIPOS>BOND
     1    44    43    2
     2    44    36    1
     3    43    42    1
     4    30    35    1
     5    30    29    1
     6    35    36    1
     7    35    33    1
     8    29    28    1
     9    29    31    1
    10    36    37    1
    11    32    31    1
    12    42    38    2
    13    20    21    1
    14    20    19    1
    15    21    22    2
    16    28    27    1
    17    31    33    1
    18    37    38    1
    19    19    17    2
    20    38    39    1
    21    33    34    1
    22     9     8    1
    23    26    24    2
    24     7    12    1
    25     7     6    1
    26    27    24    1
    27    22    13    1
    28    22    16    1
    29    12    13    1
    30    12    10    1
    31     6     8    1
    32     6     5    1
    33    17    16    1
    34    17    18    1
    35    39    40    2
    36    39    41   am
    37    13    14    1
    38     8    10    1
    39    24    23    1
    40    24    25    1
    41    16    15    2
    42     5     4    1
    43    10    11    1
    44    11    45    1
    45     4     1    1
    46    23     1    1
    47    14    15    1
    48    47    45    2
    49     1     2    2
    50     1     3    1
    51    45    46    1
    52    45    48    1
