@<TRIPOS>MOLECULE
2cw6_3HG_A_1.pdb
 10 9 0 0 0
SMALL
GASTEIGER

@<TRIPOS>ATOM
      1  O2        66.8520   -0.8590   17.5790 O.3   399  3HG399     -0.2219
      2  O1        68.3850   -4.7470   15.9810 O.co2 399  3HG399     -0.2456
      3  C1        68.8850   -3.5400   16.1660 C.2   399  3HG399      0.3675
      4  O3        70.1160   -3.4250   16.4170 O.co2 399  3HG399     -0.2456
      5  C2        67.9110   -2.3540   16.0520 C.3   399  3HG399      0.1474
      6  C3        67.0280   -2.1520   17.2980 C.3   399  3HG399      0.1745
      7  C4        65.7110   -2.8830   17.0200 C.3   399  3HG399      0.1474
      8  C5        64.6250   -2.4930   17.8930 C.2   399  3HG399      0.3675
      9  O4        63.4150   -2.9980   17.6200 O.co2 399  3HG399     -0.2456
     10  O5        64.7670   -1.6980   18.9080 O.co2 399  3HG399     -0.2456
@<TRIPOS>BOND
     1     2     3   ar
     2     5     3    1
     3     5     6    1
     4     3     4   ar
     5     7     6    1
     6     7     8    1
     7     6     1    1
     8     9     8   ar
     9     8    10   ar
