@<TRIPOS>MOLECULE
2cw9_1PE_A_1.pdb
 16 15 0 0 0
SMALL
GASTEIGER

@<TRIPOS>ATOM
      1  OH2       37.5170   24.7910   65.3360 O.3   1001  1PE1001    -0.2176
      2  C12       38.6590   25.3240   64.6630 C.3   1001  1PE1001     0.2140
      3  C22       39.8260   24.3500   64.8090 C.3   1001  1PE1001     0.1777
      4  OH3       39.9260   23.5590   63.6240 O.3   1001  1PE1001    -0.3483
      5  C13       41.1950   21.7730   62.5700 C.3   1001  1PE1001     0.1742
      6  C23       41.0260   22.6610   63.8100 C.3   1001  1PE1001     0.1742
      7  OH4       39.9760   21.7330   61.8230 O.3   1001  1PE1001    -0.3484
      8  C14       38.9380   20.8170   59.8470 C.3   1001  1PE1001     0.1742
      9  C24       40.2090   20.8920   60.6930 C.3   1001  1PE1001     0.1742
     10  OH5       37.8180   20.5020   60.6820 O.3   1001  1PE1001    -0.3484
     11  C15       35.4260   20.1210   60.6370 C.3   1001  1PE1001     0.1742
     12  C25       36.6780   20.4570   59.8250 C.3   1001  1PE1001     0.1742
     13  OH6       35.2530   21.0570   61.6980 O.3   1001  1PE1001    -0.3483
     14  C16       33.8120   21.6250   63.5540 C.3   1001  1PE1001     0.2140
     15  C26       34.0720   20.6650   62.3940 C.3   1001  1PE1001     0.1777
     16  OH7       33.9730   20.9330   64.7950 O.3   1001  1PE1001    -0.2176
@<TRIPOS>BOND
     1    12    11    1
     2    12    10    1
     3     8    10    1
     4     8     9    1
     5    11    13    1
     6     9     7    1
     7    13    15    1
     8     7     5    1
     9    15    14    1
    10     5     6    1
    11    14    16    1
    12     4     6    1
    13     4     3    1
    14     2     3    1
    15     2     1    1
