@<TRIPOS>MOLECULE
2cwf_NDP_A_1.pdb
 48 52 0 0 0
SMALL
GASTEIGER

@<TRIPOS>ATOM
      1  PA        30.2250   51.3470   37.4400 P.3   2510  NDP2510     0.2189
      2  O1A       31.5370   51.2110   38.1150 O.3   2510  NDP2510    -0.4371
      3  O2A       29.0350   50.5750   37.8980 O.2   2510  NDP2510    -0.5170
      4  O5B       29.7910   50.9450   35.7760 O.3   2510  NDP2510    -0.3112
      5  C5B       30.6530   51.4450   34.8930 C.3   2510  NDP2510     0.1813
      6  C4B       29.7580   50.8350   33.7230 C.3   2510  NDP2510     0.1820
      7  O4B       30.4200   49.5120   33.7850 O.3   2510  NDP2510    -0.3136
      8  C3B       28.5360   50.7250   32.9200 C.3   2510  NDP2510     0.2157
      9  O3B       28.7580   51.0730   31.5920 O.3   2510  NDP2510    -0.2175
     10  C2B       28.2210   49.2850   33.2810 C.3   2510  NDP2510     0.2314
     11  O2B       27.1050   48.6980   32.7170 O.3   2510  NDP2510    -0.2630
     12  C1B       29.5950   48.5690   33.0840 C.3   2510  NDP2510     0.3158
     13  N9A       29.7390   47.3070   33.8680 N.pl3 2510  NDP2510    -0.1439
     14  C8A       29.6740   47.2090   35.2710 C.3   2510  NDP2510     0.3377
     15  N7A       29.8280   45.9900   35.7350 N.2   2510  NDP2510    -0.2095
     16  C5A       30.0000   45.2400   34.6180 C.2   2510  NDP2510     0.2526
     17  C6A       30.2160   43.8310   34.4300 C.2   2510  NDP2510     0.4393
     18  N6A       30.2800   42.9930   35.4810 N.pl3 2510  NDP2510     0.2180
     19  N1A       30.3570   43.3590   33.1260 N.2   2510  NDP2510     0.0021
     20  C2A       30.2920   44.2190   32.0490 C.3   2510  NDP2510     0.5254
     21  N3A       30.0900   45.5820   32.1210 N.2   2510  NDP2510    -0.0055
     22  C4A       29.9520   46.0280   33.4350 C.2   2510  NDP2510     0.3518
     23  O3        29.7510   52.8760   37.4030 O.3   2510  NDP2510    -0.2703
     24  PN        30.5470   54.1670   38.0340 P.3   2510  NDP2510     0.2189
     25  O1N       31.7110   54.3600   37.3750 O.2   2510  NDP2510    -0.5170
     26  O2N       30.3660   53.9870   39.3530 O.3   2510  NDP2510    -0.4371
     27  O5D       29.2580   55.2430   37.4630 O.3   2510  NDP2510    -0.3112
     28  C5D       27.8500   55.4370   37.8430 C.3   2510  NDP2510     0.1813
     29  C4D       27.7750   56.8100   37.4220 C.3   2510  NDP2510     0.1799
     30  O4D       27.6180   58.1110   38.0190 O.3   2510  NDP2510    -0.3327
     31  C3D       27.6340   57.0660   35.8860 C.3   2510  NDP2510     0.2158
     32  O3D       26.3080   56.9000   35.3890 O.3   2510  NDP2510    -0.2175
     33  C2D       28.1930   58.4500   35.7390 C.3   2510  NDP2510     0.2309
     34  O2D       27.8170   59.1010   34.5630 O.3   2510  NDP2510    -0.2158
     35  C1D       27.7610   59.1140   37.0280 C.3   2510  NDP2510     0.2263
     36  N1N       28.7020   60.1780   37.4060 N.pl3 2510  NDP2510    -0.2787
     37  C2N       28.2330   61.4660   37.1000 C.3   2510  NDP2510     0.1244
     38  C3N       29.0020   62.5970   37.3900 C.2   2510  NDP2510     0.0544
     39  C7N       28.5050   63.9950   37.0590 C.2   2510  NDP2510     0.2818
     40  O7N       27.4240   64.1570   36.4410 O.2   2510  NDP2510    -0.2670
     41  N7N       29.2620   65.0200   37.4510 N.am  2510  NDP2510    -0.0839
     42  C4N       30.3000   62.4030   38.0170 C.2   2510  NDP2510     0.0033
     43  C5N       30.7700   61.0790   38.3250 C.2   2510  NDP2510     0.0157
     44  C6N       29.9710   59.9610   38.0190 C.2   2510  NDP2510     0.0633
     45  P2B       25.8840   48.9810   33.2840 P.3   2510  NDP2510     0.5328
     46  O1X       25.3170   50.4570   33.2290 O.3   2510  NDP2510    -0.1145
     47  O2X       24.7660   47.9990   32.6070 O.2   2510  NDP2510    -0.2224
     48  O3X       25.7610   48.5890   34.8330 O.3   2510  NDP2510    -0.1145
@<TRIPOS>BOND
     1     9     8    1
     2    20    21    1
     3    20    19    1
     4    21    22    2
     5    47    45    2
     6    11    10    1
     7    11    45    1
     8     8    10    1
     9     8     6    1
    10    12    10    1
    11    12     7    1
    12    12    13    1
    13    19    17    2
    14    46    45    1
    15    45    48    1
    16    22    13    1
    17    22    16    1
    18     6     7    1
    19     6     5    1
    20    13    14    1
    21    17    16    1
    22    17    18    1
    23    34    33    1
    24    16    15    2
    25     5     4    1
    26    14    15    1
    27    32    31    1
    28    33    31    1
    29    33    35    1
    30     4     1    1
    31    31    29    1
    32    40    39    2
    33    35    36    1
    34    35    30    1
    35    39    38    1
    36    39    41   am
    37    37    38    1
    38    37    36    1
    39    25    24    2
    40    38    42    2
    41    23     1    1
    42    23    24    1
    43    36    44    1
    44    29    28    1
    45    29    30    1
    46     1     3    2
    47     1     2    1
    48    27    28    1
    49    27    24    1
    50    42    43    1
    51    44    43    2
    52    24    26    1
