@<TRIPOS>MOLECULE
2cwg_III_E_1.pdb
 19 19 0 0 0
SMALL
GASTEIGER

@<TRIPOS>ATOM
      1  N          6.7610   28.9630   36.3660 N.3     5  ALA5       -0.1231
      2  CA         6.6290   29.1750   34.8920 C.3     5  ALA5        0.1694
      3  C          6.7830   27.8660   34.1160 C.2     5  ALA5        0.2593
      4  O          7.8510   27.2050   34.1570 O.2     5  ALA5       -0.2718
      5  CB         7.6170   30.2490   34.4360 C.3     5  ALA5        0.0304
      6  N          5.6970   27.4760   33.4240 N.am    6  THR6       -0.1940
      7  CA         5.6740   26.2860   32.6110 C.3     6  THR6        0.2013
      8  C          5.5330   26.3870   31.1070 C.2     6  THR6        0.2481
      9  O          5.2010   25.3690   30.4520 O.2     6  THR6       -0.2729
     10  CB         5.1240   24.9960   33.2010 C.3     6  THR6        0.1807
     11  OG1        3.7210   25.1330   33.3470 O.3     6  THR6       -0.2208
     12  CG2        5.8250   24.5850   34.4590 C.3     6  THR6        0.0379
     13  N          5.9120   27.5080   30.5460 N.am    7  PRO7       -0.2771
     14  CA         5.9670   27.7280   29.0870 C.3     7  PRO7        0.1083
     15  C          7.3560   27.1630   28.6690 C.3     7  PRO7        0.2017
     16  O          7.3570   25.8740   28.7420 O.3     7  PRO7       -0.2186
     17  CB         5.8000   29.2270   28.9010 C.3     7  PRO7        0.0243
     18  CG         5.7640   29.8680   30.2860 C.3     7  PRO7        0.0233
     19  CD         6.3450   28.7830   31.2160 C.3     7  PRO7        0.0935
@<TRIPOS>BOND
     1    15    16    1
     2    15    14    1
     3    17    14    1
     4    17    18    1
     5    14    13    1
     6    18    19    1
     7     9     8    2
     8    13     8   am
     9    13    19    1
    10     8     7    1
    11     7    10    1
    12     7     6    1
    13    10    11    1
    14    10    12    1
    15     6     3   am
    16     3     4    2
    17     3     2    1
    18     5     2    1
    19     2     1    1
