@<TRIPOS>MOLECULE
2cwg_SIA_B_1.pdb
 21 21 0 0 0
SMALL
GASTEIGER

@<TRIPOS>ATOM
      1  C1         5.5610   22.8530   39.1820 C.2   175  SIA175      0.4179
      2  C2         5.1770   21.9860   37.9920 C.3   175  SIA175      0.3155
      3  C3         6.4060   21.4350   37.2370 C.3   175  SIA175      0.1056
      4  C4         6.9550   20.1430   37.7500 C.3   175  SIA175      0.1798
      5  C5         5.8290   19.1370   37.9920 C.3   175  SIA175      0.1554
      6  C6         4.8140   19.8140   38.9810 C.3   175  SIA175      0.1734
      7  C7         3.5620   18.9580   39.2600 C.3   175  SIA175      0.2135
      8  C8         2.6420   19.5560   40.3030 C.3   175  SIA175      0.2173
      9  C9         1.2470   18.9790   40.2730 C.3   175  SIA175      0.2175
     10  C10        5.9010   16.6580   37.9040 C.2   175  SIA175      0.2420
     11  C11        6.4690   15.5200   38.7070 C.3   175  SIA175      0.0964
     12  N5         6.2630   17.8180   38.3980 N.am  175  SIA175     -0.2020
     13  O1A        6.1840   23.9980   39.0490 O.co2 175  SIA175     -0.2401
     14  O1B        5.2490   22.3970   40.2500 O.co2 175  SIA175     -0.2401
     15  O2         4.4430   22.8690   37.1110 O.3   175  SIA175     -0.1830
     16  O4         7.7740   19.6170   36.7040 O.3   175  SIA175     -0.2210
     17  O6         4.2770   20.9760   38.3230 O.3   175  SIA175     -0.3220
     18  O7         2.9220   18.7630   37.9820 O.3   175  SIA175     -0.2176
     19  O8         3.2310   19.1530   41.5400 O.3   175  SIA175     -0.2175
     20  O9         0.4940   19.2420   41.5110 O.3   175  SIA175     -0.2175
     21  O10        5.2240   16.5010   36.8530 O.2   175  SIA175     -0.2733
@<TRIPOS>BOND
     1    16     4    1
     2    21    10    2
     3    15     2    1
     4     3     4    1
     5     3     2    1
     6     4     5    1
     7    10    12   am
     8    10    11    1
     9    18     7    1
    10     2    17    1
    11     2     1    1
    12     5    12    1
    13     5     6    1
    14    17     6    1
    15     6     7    1
    16    13     1   ar
    17     1    14   ar
    18     7     8    1
    19     9     8    1
    20     9    20    1
    21     8    19    1
