@<TRIPOS>MOLECULE
2cwh_NDP_A_1.pdb
 48 52 0 0 0
SMALL
GASTEIGER

@<TRIPOS>ATOM
      1  PA        30.2620   51.2750   37.2300 P.3   2510  NDP2510     0.2189
      2  O1A       31.5740   51.1070   37.8970 O.3   2510  NDP2510    -0.4371
      3  O2A       29.0510   50.5540   37.7090 O.2   2510  NDP2510    -0.5170
      4  O5B       29.8410   50.8730   35.5740 O.3   2510  NDP2510    -0.3112
      5  C5B       30.7320   51.3290   34.6670 C.3   2510  NDP2510     0.1813
      6  C4B       29.9470   50.8180   33.6520 C.3   2510  NDP2510     0.1820
      7  O4B       30.5790   49.4770   33.7230 O.3   2510  NDP2510    -0.3136
      8  C3B       28.7020   50.7170   32.8650 C.3   2510  NDP2510     0.2157
      9  O3B       28.9030   51.0140   31.5140 O.3   2510  NDP2510    -0.2175
     10  C2B       28.3540   49.2980   33.2700 C.3   2510  NDP2510     0.2314
     11  O2B       27.2220   48.7150   32.7400 O.3   2510  NDP2510    -0.2630
     12  C1B       29.7080   48.5370   33.0770 C.3   2510  NDP2510     0.3158
     13  N9A       29.8450   47.3260   33.9240 N.pl3 2510  NDP2510    -0.1439
     14  C8A       29.7510   47.2980   35.3280 C.3   2510  NDP2510     0.3377
     15  N7A       29.9110   46.1040   35.8550 N.2   2510  NDP2510    -0.2095
     16  C5A       30.1170   45.3060   34.7760 C.2   2510  NDP2510     0.2526
     17  C6A       30.3580   43.8940   34.6540 C.2   2510  NDP2510     0.4393
     18  N6A       30.4190   43.1060   35.7350 N.pl3 2510  NDP2510     0.2180
     19  N1A       30.5290   43.3700   33.3790 N.2   2510  NDP2510     0.0021
     20  C2A       30.4710   44.1760   32.2650 C.3   2510  NDP2510     0.5254
     21  N3A       30.2480   45.5360   32.2730 N.2   2510  NDP2510    -0.0055
     22  C4A       30.0790   46.0350   33.5590 C.2   2510  NDP2510     0.3518
     23  O3        29.8220   52.8030   37.1920 O.3   2510  NDP2510    -0.2703
     24  PN        30.6390   54.0830   37.7980 P.3   2510  NDP2510     0.2189
     25  O1N       31.7960   54.2960   37.1170 O.2   2510  NDP2510    -0.5170
     26  O2N       30.5010   53.9170   39.1270 O.3   2510  NDP2510    -0.4371
     27  O5D       29.3290   55.1020   37.2520 O.3   2510  NDP2510    -0.3112
     28  C5D       27.9240   55.2050   37.6770 C.3   2510  NDP2510     0.1813
     29  C4D       27.8250   56.5490   37.2930 C.3   2510  NDP2510     0.1799
     30  O4D       27.7030   57.8190   37.9260 O.3   2510  NDP2510    -0.3327
     31  C3D       27.5950   56.8310   35.7710 C.3   2510  NDP2510     0.2158
     32  O3D       26.2430   56.7300   35.3330 O.3   2510  NDP2510    -0.2175
     33  C2D       28.1950   58.1800   35.6390 C.3   2510  NDP2510     0.2309
     34  O2D       27.8470   58.8740   34.4880 O.3   2510  NDP2510    -0.2158
     35  C1D       27.8160   58.8350   36.9570 C.3   2510  NDP2510     0.2263
     36  N1N       28.8250   59.8280   37.2820 N.pl3 2510  NDP2510    -0.2787
     37  C2N       28.5030   61.0980   36.8110 C.3   2510  NDP2510     0.1244
     38  C3N       29.3620   62.1630   37.0080 C.2   2510  NDP2510     0.0544
     39  C7N       29.0150   63.5360   36.4870 C.2   2510  NDP2510     0.2818
     40  O7N       27.8370   63.8030   36.1350 O.2   2510  NDP2510    -0.2670
     41  N7N       30.0020   64.4190   36.4150 N.am  2510  NDP2510    -0.0839
     42  C4N       30.6110   61.9270   37.7190 C.2   2510  NDP2510     0.0033
     43  C5N       30.9370   60.6140   38.2040 C.2   2510  NDP2510     0.0157
     44  C6N       30.0380   59.5550   37.9830 C.2   2510  NDP2510     0.0633
     45  P2B       25.9880   49.0590   33.2570 P.3   2510  NDP2510     0.5328
     46  O1X       25.5000   50.5580   33.1760 O.3   2510  NDP2510    -0.1145
     47  O2X       24.8670   48.1410   32.5240 O.2   2510  NDP2510    -0.2224
     48  O3X       25.7820   48.6600   34.7810 O.3   2510  NDP2510    -0.1145
@<TRIPOS>BOND
     1     9     8    1
     2    20    21    1
     3    20    19    1
     4    21    22    2
     5    47    45    2
     6    11    45    1
     7    11    10    1
     8     8    10    1
     9     8     6    1
    10    12    10    1
    11    12     7    1
    12    12    13    1
    13    46    45    1
    14    45    48    1
    15    19    17    2
    16    22    13    1
    17    22    16    1
    18     6     7    1
    19     6     5    1
    20    13    14    1
    21    34    33    1
    22    17    16    1
    23    17    18    1
    24     5     4    1
    25    16    15    2
    26    14    15    1
    27    32    31    1
    28     4     1    1
    29    33    31    1
    30    33    35    1
    31    31    29    1
    32    40    39    2
    33    41    39   am
    34    39    38    1
    35    37    38    1
    36    37    36    1
    37    35    36    1
    38    35    30    1
    39    38    42    2
    40    25    24    2
    41    23     1    1
    42    23    24    1
    43     1     3    2
    44     1     2    1
    45    27    28    1
    46    27    24    1
    47    36    44    1
    48    29    28    1
    49    29    30    1
    50    42    43    1
    51    24    26    1
    52    44    43    2
