@<TRIPOS>MOLECULE
2cww_SAH_A_1.pdb
 26 28 0 0 0
SMALL
GASTEIGER

@<TRIPOS>ATOM
      1  N         64.4730   35.6890   57.0630 N.3   500  SAH500     -0.1208
      2  CA        65.5150   35.5870   58.1120 C.3   500  SAH500      0.1952
      3  CB        65.6540   36.9300   58.8550 C.3   500  SAH500      0.0422
      4  CG        66.3420   37.9620   57.9700 C.3   500  SAH500      0.0597
      5  SD        67.1810   39.1480   59.0370 S.3   500  SAH500     -0.1375
      6  C         65.1450   34.5080   59.1130 C.2   500  SAH500      0.3819
      7  O         63.9760   34.1900   59.2430 O.co2 500  SAH500     -0.2441
      8  OXT       66.1050   33.9100   59.8710 O.co2 500  SAH500     -0.2441
      9  C5'       67.3660   40.5870   57.9350 C.3   500  SAH500      0.0899
     10  C4'       68.4270   40.3040   56.8720 C.3   500  SAH500      0.1630
     11  O4'       68.4510   41.3740   55.9100 O.3   500  SAH500     -0.3153
     12  C3'       69.8420   40.1860   57.4800 C.3   500  SAH500      0.2168
     13  O3'       70.3800   38.8700   57.2910 O.3   500  SAH500     -0.2175
     14  C2'       70.6480   41.2930   56.7440 C.3   500  SAH500      0.2569
     15  O2'       72.0060   40.9060   56.4780 O.3   500  SAH500     -0.2130
     16  C1'       69.8160   41.5410   55.4480 C.3   500  SAH500      0.3185
     17  N9        69.9850   42.9140   54.9090 N.pl3 500  SAH500     -0.1439
     18  C8        70.2490   44.0560   55.6350 C.3   500  SAH500      0.3377
     19  N7        70.3250   45.0930   54.8450 N.2   500  SAH500     -0.2095
     20  C5        70.1180   44.7020   53.5720 C.2   500  SAH500      0.2526
     21  C6        70.0770   45.3740   52.3130 C.2   500  SAH500      0.4393
     22  N6        70.2860   46.7490   52.2520 N.pl3 500  SAH500      0.2180
     23  N1        69.8330   44.6520   51.1930 N.2   500  SAH500      0.0021
     24  C2        69.6330   43.3230   51.2480 C.3   500  SAH500      0.5254
     25  N3        69.6640   42.6540   52.4130 N.2   500  SAH500     -0.0055
     26  C4        69.8980   43.2930   53.5860 C.2   500  SAH500      0.3518
@<TRIPOS>BOND
     1    23    24    1
     2    23    21    2
     3    24    25    1
     4    22    21    1
     5    21    20    1
     6    25    26    2
     7    20    26    1
     8    20    19    2
     9    26    17    1
    10    19    18    1
    11    17    16    1
    12    17    18    1
    13    16    11    1
    14    16    14    1
    15    11    10    1
    16    15    14    1
    17    14    12    1
    18    10    12    1
    19    10     9    1
    20     1     2    1
    21    13    12    1
    22     9     5    1
    23     4     3    1
    24     4     5    1
    25     2     3    1
    26     2     6    1
    27     6     7   ar
    28     6     8   ar
