@<TRIPOS>MOLECULE
2cx8_SAH_A_1.pdb
 26 28 0 0 0
SMALL
GASTEIGER

@<TRIPOS>ATOM
      1  N         32.5480    7.9280   25.2020 N.3   300  SAH300     -0.1208
      2  CA        32.9290    8.5480   23.9240 C.3   300  SAH300      0.1952
      3  CB        32.2190    9.8950   23.7740 C.3   300  SAH300      0.0422
      4  CG        30.6990    9.7690   23.8940 C.3   300  SAH300      0.0597
      5  SD        29.8700    8.9530   22.4810 S.3   300  SAH300     -0.1375
      6  C         34.4410    8.7810   23.9110 C.2   300  SAH300      0.3819
      7  O         34.8820    9.6710   24.6700 O.co2 300  SAH300     -0.2441
      8  OXT       35.1170    8.0570   23.1470 O.co2 300  SAH300     -0.2441
      9  C5'       28.1510    9.1140   23.0920 C.3   300  SAH300      0.0899
     10  C4'       27.4840    7.7690   23.3850 C.3   300  SAH300      0.1630
     11  O4'       27.2190    7.0360   22.1790 O.3   300  SAH300     -0.3153
     12  C3'       28.3650    6.8550   24.2370 C.3   300  SAH300      0.2168
     13  O3'       28.1780    7.1970   25.6130 O.3   300  SAH300     -0.2175
     14  C2'       27.6940    5.5150   23.9480 C.3   300  SAH300      0.2569
     15  O2'       26.4640    5.4140   24.6710 O.3   300  SAH300     -0.2130
     16  C1'       27.3960    5.6350   22.4510 C.3   300  SAH300      0.3185
     17  N9        28.4970    5.1720   21.5760 N.pl3 300  SAH300     -0.1439
     18  C8        29.1750    5.9190   20.7070 C.3   300  SAH300      0.3377
     19  N7        29.9920    5.1480   19.9930 N.2   300  SAH300     -0.2095
     20  C5        29.8360    3.8970   20.4160 C.2   300  SAH300      0.2526
     21  C6        30.3810    2.6700   20.0570 C.2   300  SAH300      0.4393
     22  N6        31.2810    2.5850   19.0810 N.pl3 300  SAH300      0.2180
     23  N1        29.9760    1.5650   20.7020 N.2   300  SAH300      0.0021
     24  C2        29.0720    1.6160   21.6660 C.3   300  SAH300      0.5254
     25  N3        28.5330    2.7650   22.0320 N.2   300  SAH300     -0.0055
     26  C4        28.8890    3.9110   21.4310 C.2   300  SAH300      0.3518
@<TRIPOS>BOND
     1    22    21    1
     2    19    20    2
     3    19    18    1
     4    21    20    1
     5    21    23    2
     6    20    26    1
     7    23    24    1
     8    18    17    1
     9    26    17    1
    10    26    25    2
    11    17    16    1
    12    24    25    1
    13    11    16    1
    14    11    10    1
    15    16    14    1
    16     5     9    1
    17     5     4    1
    18     9    10    1
    19     8     6   ar
    20    10    12    1
    21     3     4    1
    22     3     2    1
    23     6     2    1
    24     6     7   ar
    25     2     1    1
    26    14    12    1
    27    14    15    1
    28    12    13    1
