@<TRIPOS>MOLECULE
2cxb_HEM_A_1.pdb
 43 50 0 0 0
SMALL
GASTEIGER

@<TRIPOS>ATOM
      1 FE          0.4160    2.7940    4.4810 Fe    125  HEM125      0.0000
      2  CHA        3.4800    2.4010    3.0760 C.2   125  HEM125      0.0000
      3  CHB       -0.9210    0.8050    2.0810 C.2   125  HEM125      0.0000
      4  CHC       -2.6740    3.1220    5.9510 C.2   125  HEM125      0.0000
      5  CHD        1.6820    5.0920    6.6380 C.2   125  HEM125      0.0000
      6  NA         1.0950    1.8250    2.8820 N.ar  125  HEM125      0.0000
      7  C1A        2.4330    1.7430    2.4520 C.ar  125  HEM125      0.0000
      8  C2A        2.6060    0.8130    1.3260 C.ar  125  HEM125      0.0000
      9  C3A        1.3510    0.3400    1.0760 C.ar  125  HEM125      0.0000
     10  C4A        0.4360    0.9940    2.0220 C.ar  125  HEM125      0.0000
     11  CMA        0.9690   -0.5870   -0.0800 C.3   125  HEM125      0.0000
     12  CAA        3.9130    0.5600    0.5730 C.3   125  HEM125      0.0000
     13  CBA        3.8570    1.2850   -0.7710 C.3   125  HEM125      0.0000
     14  CGA        5.2070    1.4860   -1.4440 C.2   125  HEM125      0.0000
     15  O1A        5.4050    2.5860   -2.0020 O.co2 125  HEM125      0.0000
     16  O2A        6.0660    0.5740   -1.4630 O.co2 125  HEM125      0.0000
     17  NB        -1.3590    2.0880    4.1370 N.2   125  HEM125      0.0000
     18  C1B       -1.7590    1.3450    3.0400 C.2   125  HEM125      0.0000
     19  C2B       -3.2030    1.1330    3.0410 C.2   125  HEM125      0.0000
     20  C3B       -3.6860    1.6870    4.1650 C.2   125  HEM125      0.0000
     21  C4B       -2.5470    2.2950    4.8360 C.2   125  HEM125      0.0000
     22  CMB       -4.0320    0.4290    1.9680 C.3   125  HEM125      0.0000
     23  CAB       -5.1550    1.6750    4.6070 C.3   125  HEM125      0.0000
     24  CBB       -5.6560    0.3140    5.0720 C.3   125  HEM125      0.0000
     25  NC        -0.3240    3.8200    5.9900 N.ar  125  HEM125      0.0000
     26  C1C       -1.6300    3.8240    6.4750 C.ar  125  HEM125      0.0000
     27  C2C       -1.7920    4.7360    7.5880 C.ar  125  HEM125      0.0000
     28  C3C       -0.5820    5.3050    7.7880 C.ar  125  HEM125      0.0000
     29  C4C        0.3430    4.7220    6.7870 C.ar  125  HEM125      0.0000
     30  CMC       -3.0990    5.0790    8.2850 C.3   125  HEM125      0.0000
     31  CAC       -0.2730    6.4700    8.7250 C.3   125  HEM125      0.0000
     32  CBC       -0.3590    6.1950   10.2180 C.3   125  HEM125      0.0000
     33  ND         2.2050    3.6140    4.7840 N.2   125  HEM125      0.0000
     34  C1D        2.5630    4.5620    5.7120 C.2   125  HEM125      0.0000
     35  C2D        3.9930    4.7520    5.7140 C.2   125  HEM125      0.0000
     36  C3D        4.5300    3.9450    4.7830 C.2   125  HEM125      0.0000
     37  C4D        3.3970    3.2700    4.1710 C.2   125  HEM125      0.0000
     38  CMD        4.7590    5.6860    6.6370 C.3   125  HEM125      0.0000
     39  CAD        6.0360    3.7110    4.5600 C.3   125  HEM125      0.0000
     40  CBD        6.2270    2.3050    5.1290 C.3   125  HEM125      0.0000
     41  CGD        7.6790    1.9130    5.3190 C.2   125  HEM125      0.0000
     42  O1D        7.9080    0.9460    6.0790 O.co2 125  HEM125      0.0000
     43  O2D        8.5870    2.5510    4.7360 O.co2 125  HEM125      0.0000
@<TRIPOS>BOND
     1    15    14   ar
     2    16    14   ar
     3    14    13    1
     4    13    12    1
     5    11     9    1
     6    12     8    1
     7     9     8   ar
     8     9    10   ar
     9     8     7   ar
    10    22    19    1
    11    10     3    2
    12    10     6   ar
    13     3    18    1
    14     7     6   ar
    15     7     2    2
    16     6     1    1
    17    18    19    1
    18    18    17    2
    19    19    20    2
    20     2    37    1
    21    17     1    1
    22    17    21    1
    23    20    23    1
    24    20    21    1
    25    37    36    1
    26    37    33    2
    27     1    33    1
    28     1    25    1
    29    39    36    1
    30    39    40    1
    31    23    24    1
    32    43    41   ar
    33    36    35    2
    34    33    34    1
    35    21     4    2
    36    40    41    1
    37    41    42   ar
    38    34    35    1
    39    34     5    2
    40    35    38    1
    41     4    26    1
    42    25    26   ar
    43    25    29   ar
    44    26    27   ar
    45     5    29    1
    46    29    28   ar
    47    27    28   ar
    48    27    30    1
    49    28    31    1
    50    31    32    1
