@<TRIPOS>MOLECULE
2cxg_ACI_A_1.pdb
 11 11 0 0 0
SMALL
GASTEIGER

@<TRIPOS>ATOM
      1  C1        46.1620   86.0140   44.1530 C.3   695  ACI695      0.1247
      2  C2        44.8260   85.9840   43.4490 C.3   695  ACI695      0.1995
      3  C3        43.8690   86.8610   44.1870 C.3   695  ACI695      0.1837
      4  C4        43.6260   86.3210   45.5790 C.3   695  ACI695      0.0383
      5  C5        44.8070   85.9170   46.2340 C.3   695  ACI695      0.0372
      6  C6        44.6150   84.6920   47.0750 C.3   695  ACI695      0.1822
      7  C7        46.0320   85.7540   45.5410 C.3   695  ACI695      0.0244
      8  N1        46.7770   87.3170   43.9420 N.3   695  ACI695     -0.1301
      9  O2        44.9710   86.4230   42.1070 O.3   695  ACI695     -0.2189
     10  O3        42.6130   86.9500   43.5140 O.3   695  ACI695     -0.2204
     11  O6        43.8940   83.6550   46.4110 O.3   695  ACI695     -0.2204
@<TRIPOS>BOND
     1     9     2    1
     2     2     1    1
     3     2     3    1
     4    10     3    1
     5     8     1    1
     6     1     7    1
     7     3     4    1
     8     7     5    1
     9     4     5    1
    10     5     6    1
    11    11     6    1
