@<TRIPOS>MOLECULE
2cxg_GLC_A_1.pdb
 11 11 0 0 0
SMALL
GASTEIGER

@<TRIPOS>ATOM
      1  C1        62.9190  105.1220   10.3790 C.3   690  GLC690      0.3022
      2  C2        62.3150  104.1420   11.3380 C.3   690  GLC690      0.2409
      3  C3        63.1840  102.9140   11.4100 C.3   690  GLC690      0.1899
      4  C4        63.2440  102.3020   10.0240 C.3   690  GLC690      0.0681
      5  C5        63.7660  103.3300    9.0170 C.3   690  GLC690      0.1534
      6  C6        63.6500  102.8380    7.5950 C.3   690  GLC690      0.2116
      7  O1        64.1510  105.5130   10.8600 O.3   690  GLC690     -0.1869
      8  O2        62.2430  104.7270   12.6390 O.3   690  GLC690     -0.2149
      9  O3        62.6190  102.0350   12.3700 O.3   690  GLC690     -0.2201
     10  O5        62.9810  104.5250    9.0810 O.3   690  GLC690     -0.3263
     11  O6        64.9670  102.5860    7.0960 O.3   690  GLC690     -0.2177
@<TRIPOS>BOND
     1    11     6    1
     2     6     5    1
     3     5    10    1
     4     5     4    1
     5    10     1    1
     6     4     3    1
     7     1     7    1
     8     1     2    1
     9     2     3    1
    10     2     8    1
    11     3     9    1
