@<TRIPOS>MOLECULE
2cxg_G6D_A_1.pdb
 10 10 0 0 0
SMALL
GASTEIGER

@<TRIPOS>ATOM
      1  C1        49.6430   89.6540   46.0020 C.3   694  G6D694      0.3021
      2  O2        51.3170   88.0750   45.3400 O.3   694  G6D694     -0.2149
      3  C2        49.9600   88.1950   45.7420 C.3   694  G6D694      0.2409
      4  C3A       49.0460   87.5410   44.7330 C.3   694  G6D694      0.1898
      5  O3A       49.1460   86.1170   44.8040 O.3   694  G6D694     -0.2201
      6  C4A       47.5990   87.8960   45.0150 C.3   694  G6D694      0.0653
      7  C5A       47.4360   89.4030   45.0040 C.3   694  G6D694      0.1206
      8  O5        48.2580   89.9850   46.0190 O.3   694  G6D694     -0.3290
      9  C6A       46.0220   89.8020   45.3020 C.3   694  G6D694      0.0322
     10  O1        50.3900   90.4880   45.1420 O.3   694  G6D694     -0.1869
@<TRIPOS>BOND
     1     4     5    1
     2     4     6    1
     3     4     3    1
     4     7     6    1
     5     7     9    1
     6     7     8    1
     7    10     1    1
     8     2     3    1
     9     3     1    1
    10     1     8    1
