@<TRIPOS>MOLECULE
2cxo_DER_A_1.pdb
 13 12 0 0 0
SMALL
GASTEIGER

@<TRIPOS>ATOM
      1  OH2        9.0130    3.6870    0.3980 O.2   1601  DER1601    -0.2640
      2  C1         7.7950    3.4950   -0.2920 C.3   1601  DER1601     0.4581
      3  OH1        8.0190    2.6210   -1.3960 O.2   1601  DER1601    -0.2640
      4  C2         7.2920    4.8380   -0.7420 C.3   1601  DER1601     0.2758
      5  O2         8.4000    5.6030   -1.2020 O.3   1601  DER1601    -0.2118
      6  C3         6.6290    5.5350    0.4520 C.3   1601  DER1601     0.2201
      7  O3         5.4890    4.7920    0.8610 O.3   1601  DER1601    -0.2174
      8  C4         6.1940    6.9650    0.1530 C.3   1601  DER1601     0.1894
      9  O4         5.2760    6.9800   -0.9380 O.3   1601  DER1601    -0.2674
     10  P          4.8490    8.3700   -1.6230 P.3   1601  DER1601     0.5327
     11  O1P        4.3460    9.2570   -0.5140 O.3   1601  DER1601    -0.1145
     12  O2P        6.1310    8.8910   -2.2380 O.3   1601  DER1601    -0.1145
     13  O3P        3.7990    7.9350   -2.6150 O.2   1601  DER1601    -0.2224
@<TRIPOS>BOND
     1    13    10    2
     2    12    10    1
     3    10     9    1
     4    10    11    1
     5     3     2    1
     6     5     4    1
     7     9     8    1
     8     4     2    1
     9     4     6    1
    10     2     1    1
    11     8     6    1
    12     6     7    1
