@<TRIPOS>MOLECULE
2cxp_A5P_A_1.pdb
 14 13 0 0 0
SMALL
GASTEIGER

@<TRIPOS>ATOM
      1  C1         8.1420    2.7770   -2.0170 C.3   1601  A5P1601     0.2175
      2  O1         9.4750    2.9040   -2.5360 O.3   1601  A5P1601    -0.2175
      3  C2         7.8700    3.5080   -0.6870 C.3   1601  A5P1601     0.2175
      4  O2         9.0100    3.5480    0.1680 O.3   1601  A5P1601    -0.2175
      5  C3         7.3490    4.9330   -0.8610 C.3   1601  A5P1601     0.2174
      6  O3         8.4430    5.7790   -1.1690 O.3   1601  A5P1601    -0.2175
      7  C4         6.6790    5.4530    0.4160 C.3   1601  A5P1601     0.2147
      8  O4         5.6260    4.5820    0.8010 O.3   1601  A5P1601    -0.2176
      9  C5         6.1180    6.8630    0.2580 C.3   1601  A5P1601     0.1892
     10  O5         5.2380    6.9210   -0.8630 O.3   1601  A5P1601    -0.2674
     11  P          4.8830    8.3310   -1.5470 P.3   1601  A5P1601     0.5327
     12  O1P        4.3920    9.2290   -0.4350 O.3   1601  A5P1601    -0.1145
     13  O2P        6.1830    8.8210   -2.1300 O.3   1601  A5P1601    -0.1145
     14  O3P        3.8470    7.9690   -2.5810 O.2   1601  A5P1601    -0.2224
@<TRIPOS>BOND
     1    14    11    2
     2     2     1    1
     3    13    11    1
     4     1     3    1
     5    11    10    1
     6    11    12    1
     7     6     5    1
     8    10     9    1
     9     5     3    1
    10     5     7    1
    11     3     4    1
    12     9     7    1
    13     7     8    1
