@<TRIPOS>MOLECULE
2cxq_S6P_A_1.pdb
 16 15 0 0 0
SMALL
GASTEIGER

@<TRIPOS>ATOM
      1  C1         9.2310    3.4090   -2.4570 C.3   1601  S6P1601     0.2175
      2  C2         8.0050    2.8830   -1.7060 C.3   1601  S6P1601     0.2175
      3  C3         7.6510    3.7220   -0.4690 C.3   1601  S6P1601     0.2175
      4  C4         7.1560    5.1320   -0.7870 C.3   1601  S6P1601     0.2174
      5  C5         6.5000    5.7550    0.4510 C.3   1601  S6P1601     0.2147
      6  C6         6.0400    7.1800    0.1950 C.3   1601  S6P1601     0.1892
      7  O1         9.6800    2.5190   -3.4700 O.3   1601  S6P1601    -0.2175
      8  O2         6.8970    2.8040   -2.5980 O.3   1601  S6P1601    -0.2175
      9  O3         8.7740    3.8260    0.4070 O.3   1601  S6P1601    -0.2175
     10  O4         8.2430    5.9490   -1.2200 O.3   1601  S6P1601    -0.2175
     11  O5         5.3760    4.9870    0.8730 O.3   1601  S6P1601    -0.2176
     12  O6         5.1630    7.1700   -0.9270 O.3   1601  S6P1601    -0.2674
     13  P          4.7870    8.5540   -1.6280 P.3   1601  S6P1601     0.5327
     14  O1P        4.2760    9.4590   -0.5440 O.3   1601  S6P1601    -0.1145
     15  O2P        6.0580    9.0690   -2.2410 O.3   1601  S6P1601    -0.1145
     16  O3P        3.7300    8.1470   -2.6270 O.2   1601  S6P1601    -0.2224
@<TRIPOS>BOND
     1     7     1    1
     2    16    13    2
     3     8     2    1
     4     1     2    1
     5    15    13    1
     6     2     3    1
     7    13    12    1
     8    13    14    1
     9    10     4    1
    10    12     6    1
    11     4     3    1
    12     4     5    1
    13     3     9    1
    14     6     5    1
    15     5    11    1
