@<TRIPOS>MOLECULE
2cxr_6PG_A_1.pdb
 17 16 0 0 0
SMALL
GASTEIGER

@<TRIPOS>ATOM
      1  C1         9.0510    2.7950   -2.5190 C.2   1601  6PG1601     0.3973
      2  C2         7.7740    2.5940   -1.7480 C.3   1601  6PG1601     0.2865
      3  C3         7.6110    3.5330   -0.5290 C.3   1601  6PG1601     0.2260
      4  C4         7.1780    4.9570   -0.8780 C.3   1601  6PG1601     0.2179
      5  C5         6.5760    5.6580    0.3420 C.3   1601  6PG1601     0.2147
      6  C6         6.1760    7.0970    0.0540 C.3   1601  6PG1601     0.1892
      7  O1A        9.0180    3.2680   -3.6310 O.co2 1601  6PG1601    -0.2427
      8  O1        10.2150    2.4410   -2.0290 O.co2 1601  6PG1601    -0.2427
      9  O2         6.7070    2.7160   -2.6920 O.3   1601  6PG1601    -0.2080
     10  O3         8.7840    3.5800    0.2940 O.3   1601  6PG1601    -0.2169
     11  O4         8.3090    5.6700   -1.3370 O.3   1601  6PG1601    -0.2175
     12  O5         5.4060    4.9670    0.7500 O.3   1601  6PG1601    -0.2176
     13  O6         5.2070    7.0910   -0.9910 O.3   1601  6PG1601    -0.2674
     14  P          4.8210    8.4870   -1.6810 P.3   1601  6PG1601     0.5327
     15  O1P        4.2840    9.4800   -0.5800 O.3   1601  6PG1601    -0.1145
     16  O2P        6.1090    9.0930   -2.3720 O.3   1601  6PG1601    -0.1145
     17  O3P        3.6920    8.1450   -2.7330 O.2   1601  6PG1601    -0.2224
@<TRIPOS>BOND
     1     7     1   ar
     2    17    14    2
     3     9     2    1
     4     1     8   ar
     5     1     2    1
     6    16    14    1
     7     2     3    1
     8    14    13    1
     9    14    15    1
    10    11     4    1
    11    13     6    1
    12     4     3    1
    13     4     5    1
    14     3    10    1
    15     6     5    1
    16     5    12    1
