@<TRIPOS>MOLECULE
2cxs_F6P_A_1.pdb
 16 16 0 0 0
SMALL
GASTEIGER

@<TRIPOS>ATOM
      1  O1         6.7830    1.6930    1.4700 O.3   1601  F6P1601    -0.2148
      2  C1         5.6840    2.0480    0.6700 C.3   1601  F6P1601     0.2434
      3  C2         5.9850    3.3030   -0.1330 C.3   1601  F6P1601     0.2807
      4  O2         5.0410    3.3640   -1.2370 O.3   1601  F6P1601    -0.1896
      5  C3         7.4080    3.3740   -0.6790 C.3   1601  F6P1601     0.2409
      6  O3         7.6020    2.6030   -1.8460 O.3   1601  F6P1601    -0.2149
      7  C4         7.4870    4.8630   -0.9250 C.3   1601  F6P1601     0.2167
      8  O4         8.7970    5.3210   -1.1420 O.3   1601  F6P1601    -0.2175
      9  C5         6.8620    5.4010    0.3570 C.3   1601  F6P1601     0.1808
     10  O5         5.8340    4.4700    0.6760 O.3   1601  F6P1601    -0.3254
     11  C6         6.3170    6.8200    0.2250 C.3   1601  F6P1601     0.1859
     12  O6         5.4050    6.9150   -0.8470 O.3   1601  F6P1601    -0.2675
     13  P          5.0390    8.3440   -1.4810 P.3   1601  F6P1601     0.5327
     14  O1P        6.2660    8.9460   -2.0640 O.3   1601  F6P1601    -0.1145
     15  O2P        3.9710    8.0950   -2.5570 O.2   1601  F6P1601    -0.2224
     16  O3P        4.4920    9.2590   -0.3710 O.3   1601  F6P1601    -0.1145
@<TRIPOS>BOND
     1    15    13    2
     2    14    13    1
     3     6     5    1
     4    13    12    1
     5    13    16    1
     6     4     3    1
     7     8     7    1
     8     7     5    1
     9     7     9    1
    10    12    11    1
    11     5     3    1
    12     3     2    1
    13     3    10    1
    14    11     9    1
    15     9    10    1
    16     2     1    1
