@<TRIPOS>MOLECULE
2cxt_F6P_A_1.pdb
 16 16 0 0 0
SMALL
GASTEIGER

@<TRIPOS>ATOM
      1  O1         6.9490    1.5780    1.6170 O.3   1601  F6P1601    -0.2148
      2  C1         5.7790    2.0670    1.0270 C.3   1601  F6P1601     0.2434
      3  C2         6.0830    3.2250    0.0960 C.3   1601  F6P1601     0.2807
      4  O2         5.1720    3.1350   -1.0340 O.3   1601  F6P1601    -0.1896
      5  C3         7.5130    3.3080   -0.4310 C.3   1601  F6P1601     0.2409
      6  O3         7.7440    2.4800   -1.5500 O.3   1601  F6P1601    -0.2149
      7  C4         7.5430    4.7800   -0.7760 C.3   1601  F6P1601     0.2167
      8  O4         8.8360    5.2760   -1.0270 O.3   1601  F6P1601    -0.2175
      9  C5         6.9110    5.3570    0.4810 C.3   1601  F6P1601     0.1808
     10  O5         5.8650    4.4450    0.7990 O.3   1601  F6P1601    -0.3254
     11  C6         6.3710    6.7710    0.3160 C.3   1601  F6P1601     0.1859
     12  O6         5.5020    6.8420   -0.7950 O.3   1601  F6P1601    -0.2675
     13  P          5.1020    8.2660   -1.4180 P.3   1601  F6P1601     0.5327
     14  O1P        6.3390    8.8830   -1.9610 O.3   1601  F6P1601    -0.1145
     15  O2P        4.0050    8.0350   -2.4620 O.2   1601  F6P1601    -0.2224
     16  O3P        4.5720    9.1920   -0.3030 O.3   1601  F6P1601    -0.1145
@<TRIPOS>BOND
     1    15    13    2
     2    14    13    1
     3     6     5    1
     4    13    12    1
     5    13    16    1
     6     4     3    1
     7     8     7    1
     8    12    11    1
     9     7     5    1
    10     7     9    1
    11     5     3    1
    12     3    10    1
    13     3     2    1
    14    11     9    1
    15     9    10    1
    16     2     1    1
