@<TRIPOS>MOLECULE
2cxv_BBL_A_1.pdb
 16 16 0 0 0
SMALL
GASTEIGER

@<TRIPOS>ATOM
      1  OG2       15.7360   16.1810   35.0300 O.co2 901  BBL901     -0.2437
      2  CB2       16.6570   15.7200   35.7340 C.2   901  BBL901      0.3843
      3  OG1       17.7250   16.3540   35.9120 O.co2 901  BBL901     -0.2437
      4  CA        16.4910   14.3560   36.3580 C.3   901  BBL901      0.2012
      5  CBZ       15.2740   14.2440   37.2770 C.3   901  BBL901      0.0358
      6  N         17.6600   13.9770   37.1170 N.am  901  BBL901     -0.1589
      7  C         18.7180   13.4080   36.5590 C.2   901  BBL901      0.4219
      8  O         18.7710   13.0070   35.4030 O.2   901  BBL901     -0.2245
      9  OEZ       19.8600   13.2770   37.4380 O.3   901  BBL901     -0.4285
     10  CB        21.1090   12.8160   36.9390 C.3   901  BBL901      0.2368
     11  CG        22.1990   13.2540   37.8820 C.ar  901  BBL901      0.0213
     12  CD1       23.4820   12.7270   37.7350 C.ar  901  BBL901     -0.0007
     13  CE1       24.4920   13.1280   38.6060 C.ar  901  BBL901     -0.0002
     14  CZ        24.2210   14.0520   39.6140 C.ar  901  BBL901     -0.0000
     15  CE2       22.9380   14.5780   39.7610 C.ar  901  BBL901     -0.0002
     16  CD2       21.9260   14.1790   38.8920 C.ar  901  BBL901     -0.0007
@<TRIPOS>BOND
     1     1     2   ar
     2     8     7    2
     3     2     3   ar
     4     2     4    1
     5     4     6    1
     6     4     5    1
     7     7     6   am
     8     7     9    1
     9    10     9    1
    10    10    11    1
    11    12    11   ar
    12    12    13   ar
    13    11    16   ar
    14    13    14   ar
    15    16    15   ar
    16    14    15   ar
