@<TRIPOS>MOLECULE
2cxx_GDP_A_1.pdb
 28 30 0 0 0
SMALL
GASTEIGER

@<TRIPOS>ATOM
      1  PB       -25.6210   22.4780   48.2460 P.3   1401  GDP1401     0.5373
      2  O1B      -26.0380   23.8590   48.6240 O.3   1401  GDP1401    -0.1143
      3  O2B      -26.6920   21.8110   47.2930 O.2   1401  GDP1401    -0.2221
      4  O3B      -24.1600   22.2410   47.9250 O.3   1401  GDP1401    -0.1143
      5  O3A      -25.8280   21.6350   49.5760 O.3   1401  GDP1401    -0.2261
      6  PA       -24.9170   20.9830   50.7150 P.3   1401  GDP1401     0.2231
      7  O1A      -24.1130   19.8810   50.1460 O.2   1401  GDP1401    -0.5169
      8  O2A      -24.0180   22.0820   51.3920 O.3   1401  GDP1401    -0.4370
      9  O5'      -25.9740   20.2740   51.6900 O.3   1401  GDP1401    -0.3111
     10  C5'      -26.9010   21.1920   52.1870 C.3   1401  GDP1401     0.1813
     11  C4'      -27.5710   20.6250   53.4450 C.3   1401  GDP1401     0.1799
     12  O4'      -28.2020   19.3050   53.1340 O.3   1401  GDP1401    -0.3326
     13  C3'      -26.6810   20.2910   54.5930 C.3   1401  GDP1401     0.2158
     14  O3'      -26.9600   20.6160   55.9610 O.3   1401  GDP1401    -0.2175
     15  C2'      -26.2200   18.8440   54.3140 C.3   1401  GDP1401     0.2310
     16  O2'      -25.8500   18.1920   55.5870 O.3   1401  GDP1401    -0.2158
     17  C1'      -27.5910   18.2550   53.9690 C.3   1401  GDP1401     0.2293
     18  N9       -27.5430   17.0320   53.1550 N.pl3 1401  GDP1401    -0.2354
     19  C8       -26.8040   16.7870   51.9760 C.3   1401  GDP1401     0.2246
     20  N7       -27.0480   15.5960   51.5480 N.2   1401  GDP1401    -0.2322
     21  C5       -27.9400   14.9900   52.3930 C.2   1401  GDP1401     0.2182
     22  C6       -28.5800   13.7140   52.4490 C.1   1401  GDP1401     0.2372
     23  O6       -28.3750   12.8680   51.6350 O.2   1401  GDP1401    -0.2069
     24  N1       -29.4690   13.4480   53.4860 N.2   1401  GDP1401    -0.2485
     25  C2       -29.7230   14.3870   54.4450 C.1   1401  GDP1401     0.2531
     26  N2       -30.6040   14.0720   55.4540 N.pl3 1401  GDP1401    -0.0226
     27  N3       -29.1420   15.5770   54.4190 N.2   1401  GDP1401    -0.3074
     28  C4       -28.2530   15.9100   53.4160 C.2   1401  GDP1401     0.2300
@<TRIPOS>BOND
     1     3     1    2
     2     4     1    1
     3     1     2    1
     4     1     5    1
     5     5     6    1
     6     7     6    2
     7     6     8    1
     8     6     9    1
     9    20    19    1
    10    20    21    2
    11    23    22    2
    12     9    10    1
    13    19    18    1
    14    10    11    1
    15    21    22    1
    16    21    28    1
    17    22    24    2
    18    12    11    1
    19    12    17    1
    20    18    28    1
    21    18    17    1
    22    28    27    2
    23    11    13    1
    24    24    25    2
    25    17    15    1
    26    15    13    1
    27    15    16    1
    28    27    25    2
    29    25    26    1
    30    13    14    1
