@<TRIPOS>MOLECULE
2cy0_NAP_A_1.pdb
 48 52 0 0 0
SMALL
GASTEIGER

@<TRIPOS>ATOM
      1  PA        29.6960    6.2340   13.3700 P.3   1411  NAP1411     0.2189
      2  O1A       30.9200    6.0080   14.2680 O.3   1411  NAP1411    -0.4371
      3  O2A       28.6850    5.2150   13.5850 O.2   1411  NAP1411    -0.5170
      4  O5B       30.0540    6.2360   11.7640 O.3   1411  NAP1411    -0.3112
      5  C5B       29.8310    4.7980   11.1880 C.3   1411  NAP1411     0.1813
      6  C4B       29.8680    5.3290    9.6830 C.3   1411  NAP1411     0.1820
      7  O4B       31.1900    6.0190    9.3630 O.3   1411  NAP1411    -0.3136
      8  C3B       29.5100    4.5340    8.5220 C.3   1411  NAP1411     0.2157
      9  O3B       28.7770    5.0890    7.4890 O.3   1411  NAP1411    -0.2175
     10  C2B       30.8710    3.9880    8.2460 C.3   1411  NAP1411     0.2314
     11  O2B       30.9370    3.0550    7.2280 O.3   1411  NAP1411    -0.2630
     12  C1B       31.6780    5.2640    8.1140 C.3   1411  NAP1411     0.3158
     13  N9A       33.1600    5.0510    8.1170 N.pl3 1411  NAP1411    -0.1439
     14  C8A       33.9420    4.7270    9.1970 C.3   1411  NAP1411     0.3377
     15  N7A       35.2330    4.5060    8.9020 N.2   1411  NAP1411    -0.2095
     16  C5A       35.2940    4.6110    7.5540 C.2   1411  NAP1411     0.2526
     17  C6A       36.3970    4.4270    6.6440 C.2   1411  NAP1411     0.4393
     18  N6A       37.6580    4.2080    7.0290 N.pl3 1411  NAP1411     0.2180
     19  N1A       36.0980    4.5730    5.3010 N.2   1411  NAP1411     0.0021
     20  C2A       34.8300    4.8040    4.8590 C.3   1411  NAP1411     0.5254
     21  N3A       33.7050    4.9470    5.6550 N.2   1411  NAP1411    -0.0055
     22  C4A       33.9980    4.8560    7.0240 C.2   1411  NAP1411     0.3518
     23  O3        28.8660    7.5100   13.9640 O.3   1411  NAP1411    -0.2703
     24  PN        28.1130    8.8850   13.8310 P.3   1411  NAP1411     0.2189
     25  O1N       27.4430    9.1180   15.1540 O.3   1411  NAP1411    -0.4371
     26  O2N       27.2130    8.7730   12.6410 O.2   1411  NAP1411    -0.5170
     27  O5D       29.2040    9.9960   13.5210 O.3   1411  NAP1411    -0.3112
     28  C5D       29.7040   10.1870   12.1890 C.3   1411  NAP1411     0.1813
     29  C4D       30.7020   11.3110   12.0920 C.3   1411  NAP1411     0.1799
     30  O4D       30.0850   12.6300   11.9250 O.3   1411  NAP1411    -0.3327
     31  C3D       31.6980   11.5230   13.2670 C.3   1411  NAP1411     0.2158
     32  O3D       32.9790   11.9200   12.8560 O.3   1411  NAP1411    -0.2175
     33  C2D       30.9540   12.5210   14.1360 C.3   1411  NAP1411     0.2309
     34  O2D       31.8720   13.2450   14.9510 O.3   1411  NAP1411    -0.2158
     35  C1D       30.2460   13.3850   13.1150 C.3   1411  NAP1411     0.2263
     36  N1N       28.9530   13.9980   13.5970 N.pl3 1411  NAP1411    -0.2787
     37  C2N       28.9490   15.3650   13.7740 C.3   1411  NAP1411     0.1244
     38  C3N       27.8350   16.0620   14.2150 C.2   1411  NAP1411     0.0544
     39  C7N       27.8510   17.5770   14.3940 C.2   1411  NAP1411     0.2818
     40  O7N       27.0530   18.1140   15.1700 O.2   1411  NAP1411    -0.2670
     41  N7N       28.7610   18.2520   13.6480 N.am  1411  NAP1411    -0.0839
     42  C4N       26.6360   15.3160   14.5320 C.2   1411  NAP1411     0.0033
     43  C5N       26.6420   13.9060   14.3590 C.2   1411  NAP1411     0.0157
     44  C6N       27.7840   13.2410   13.9100 C.2   1411  NAP1411     0.0633
     45  P2B       30.5440    1.4960    7.5350 P.3   1411  NAP1411     0.5328
     46  O1X       29.0620    1.4420    7.8130 O.3   1411  NAP1411    -0.1145
     47  O2X       31.0100    0.8070    6.2790 O.2   1411  NAP1411    -0.2224
     48  O3X       31.3620    1.1270    8.7500 O.3   1411  NAP1411    -0.1145
@<TRIPOS>BOND
     1    20    19    1
     2    20    21    1
     3    19    17    2
     4    21    22    2
     5    47    45    2
     6    17    18    1
     7    17    16    1
     8    22    16    1
     9    22    13    1
    10    11    45    1
    11    11    10    1
    12     9     8    1
    13    45    46    1
    14    45    48    1
    15    16    15    2
    16    12    13    1
    17    12    10    1
    18    12     7    1
    19    13    14    1
    20    10     8    1
    21     8     6    1
    22    15    14    1
    23     7     6    1
    24     6     5    1
    25     5     4    1
    26     4     1    1
    27    30    29    1
    28    30    35    1
    29    29    28    1
    30    29    31    1
    31    28    27    1
    32    26    24    2
    33    32    31    1
    34    35    36    1
    35    35    33    1
    36    31    33    1
    37     1     3    2
    38     1    23    1
    39     1     2    1
    40    27    24    1
    41    36    37    1
    42    36    44    1
    43    41    39   am
    44    37    38    1
    45    24    23    1
    46    24    25    1
    47    44    43    2
    48    33    34    1
    49    38    39    1
    50    38    42    2
    51    43    42    1
    52    39    40    2
