@<TRIPOS>MOLECULE
2cy3_HEM_A_1.pdb
 43 50 0 0 0
SMALL
GASTEIGER

@<TRIPOS>ATOM
      1 FE         14.1800   33.8850   10.8370 Fe    119  HEM119      0.0000
      2  CHA       16.8820   32.0780    9.7080 C.2   119  HEM119      0.0000
      3  CHB       16.2330   36.1300   12.2210 C.2   119  HEM119      0.0000
      4  CHC       11.5190   35.8900   11.4800 C.2   119  HEM119      0.0000
      5  CHD       12.1040   31.4460    9.8010 C.2   119  HEM119      0.0000
      6  NA        16.1460   34.0320   11.0040 N.2   119  HEM119      0.0000
      7  C1A       17.1330   33.2280   10.4680 C.2   119  HEM119      0.0000
      8  C2A       18.4740   33.7190   10.8290 C.2   119  HEM119      0.0000
      9  C3A       18.2740   34.8220   11.5800 C.2   119  HEM119      0.0000
     10  C4A       16.8330   35.0220   11.6560 C.2   119  HEM119      0.0000
     11  CMA       19.3260   35.6560   12.3150 C.3   119  HEM119      0.0000
     12  CAA       19.8080   33.1460   10.3870 C.3   119  HEM119      0.0000
     13  CBA       20.0930   31.7950   11.0060 C.3   119  HEM119      0.0000
     14  CGA       21.3850   31.1890   10.5020 C.2   119  HEM119      0.0000
     15  O1A       22.3150   30.9900   11.3170 O.co2 119  HEM119      0.0000
     16  O2A       21.4770   30.9110    9.2910 O.co2 119  HEM119      0.0000
     17  NB        13.9120   35.5940   11.7760 N.ar  119  HEM119      0.0000
     18  C1B       14.8720   36.3870   12.3190 C.ar  119  HEM119      0.0000
     19  C2B       14.2600   37.6120   12.9200 C.ar  119  HEM119      0.0000
     20  C3B       12.9380   37.5730   12.6350 C.ar  119  HEM119      0.0000
     21  C4B       12.7370   36.3010   11.9610 C.ar  119  HEM119      0.0000
     22  CMB       14.9690   38.6430   13.8230 C.3   119  HEM119      0.0000
     23  CAB       11.8860   38.6220   12.9460 C.3   119  HEM119      0.0000
     24  CBB       12.2690   39.9500   12.2830 C.3   119  HEM119      0.0000
     25  NC        12.2130   33.7260   10.5710 N.2   119  HEM119      0.0000
     26  C1C       11.2480   34.7010   10.8190 C.2   119  HEM119      0.0000
     27  C2C        9.8950   34.2350   10.5890 C.2   119  HEM119      0.0000
     28  C3C       10.0660   32.9020   10.2330 C.2   119  HEM119      0.0000
     29  C4C       11.5080   32.6310   10.1900 C.2   119  HEM119      0.0000
     30  CMC        8.6220   35.0660   10.7970 C.3   119  HEM119      0.0000
     31  CAC        8.9820   31.8750    9.9750 C.3   119  HEM119      0.0000
     32  CBC        8.0360   32.2630    8.8370 C.3   119  HEM119      0.0000
     33  ND        14.4180   32.1380    9.8840 N.ar  119  HEM119      0.0000
     34  C1D       13.4570   31.2070    9.6420 C.ar  119  HEM119      0.0000
     35  C2D       14.0610   29.9460    9.1510 C.ar  119  HEM119      0.0000
     36  C3D       15.4080   30.1460    9.0650 C.ar  119  HEM119      0.0000
     37  C4D       15.6110   31.5230    9.5010 C.ar  119  HEM119      0.0000
     38  CMD       13.3540   28.6320    8.8420 C.3   119  HEM119      0.0000
     39  CAD       16.4540   29.0850    8.7130 C.3   119  HEM119      0.0000
     40  CBD       16.7420   28.3060    9.9930 C.3   119  HEM119      0.0000
     41  CGD       17.7000   27.1380    9.7980 C.2   119  HEM119      0.0000
     42  O1D       17.9040   26.3650   10.7620 O.co2 119  HEM119      0.0000
     43  O2D       18.2600   26.9780    8.6950 O.co2 119  HEM119      0.0000
@<TRIPOS>BOND
     1    43    41   ar
     2    39    36    1
     3    39    40    1
     4    32    31    1
     5    38    35    1
     6    36    35   ar
     7    36    37   ar
     8    35    34   ar
     9    16    14   ar
    10    37     2    2
    11    37    33   ar
    12    34     5    2
    13    34    33   ar
    14     2     7    1
    15    41    40    1
    16    41    42   ar
    17     5    29    1
    18    33     1    1
    19    31    28    1
    20    29    28    1
    21    29    25    2
    22    28    27    2
    23    12     8    1
    24    12    13    1
    25     7     8    1
    26     7     6    2
    27    14    13    1
    28    14    15   ar
    29    25    26    1
    30    25     1    1
    31    27    30    1
    32    27    26    1
    33    26     4    2
    34     8     9    2
    35     1     6    1
    36     1    17    1
    37     6    10    1
    38     4    21    1
    39     9    10    1
    40     9    11    1
    41    10     3    2
    42    17    21   ar
    43    17    18   ar
    44    21    20   ar
    45     3    18    1
    46    24    23    1
    47    18    19   ar
    48    20    19   ar
    49    20    23    1
    50    19    22    1
