@<TRIPOS>MOLECULE
2cy6_TRE_A_1.pdb
 23 24 0 0 0
SMALL
GASTEIGER

@<TRIPOS>ATOM
      1  C1         9.7580   22.0760   41.8620 C.3   5676  TRE5676     0.2713
      2  C2         9.1280   23.4500   41.4980 C.3   5676  TRE5676     0.2406
      3  C3        10.1420   24.4960   40.8860 C.3   5676  TRE5676     0.2198
      4  C4        11.6740   24.4080   40.8690 C.3   5676  TRE5676     0.2144
      5  C5        11.9850   22.9550   41.1640 C.3   5676  TRE5676     0.1835
      6  C6        12.5360   22.8160   42.5170 C.3   5676  TRE5676     0.2142
      7  O1         8.9640   20.8610   41.6640 O.3   5676  TRE5676    -0.3016
      8  O2         7.9720   23.2200   40.6480 O.3   5676  TRE5676    -0.2149
      9  O3        10.1500   25.6760   41.6160 O.3   5676  TRE5676    -0.2174
     10  O4        12.3230   24.8750   39.6030 O.3   5676  TRE5676    -0.2176
     11  O5        10.9320   22.0050   41.0340 O.3   5676  TRE5676    -0.3256
     12  O6        13.9050   22.8420   42.1800 O.3   5676  TRE5676    -0.2176
     13  C1P        7.6700   20.7340   42.3500 C.3   5676  TRE5676     0.2713
     14  C2P        7.0800   19.3060   42.2050 C.3   5676  TRE5676     0.2406
     15  C3P        6.7050   19.2580   40.7150 C.3   5676  TRE5676     0.2198
     16  C4P        5.3630   19.9910   40.5780 C.3   5676  TRE5676     0.2144
     17  C5P        5.3090   21.3100   41.3770 C.3   5676  TRE5676     0.1835
     18  C6P        4.1790   21.3400   42.4760 C.3   5676  TRE5676     0.2142
     19  O2P        7.9150   18.2120   42.6700 O.3   5676  TRE5676    -0.2149
     20  O3P        6.6610   17.9450   40.1560 O.3   5676  TRE5676    -0.2174
     21  O4P        5.1260   20.2800   39.1910 O.3   5676  TRE5676    -0.2176
     22  O5P        6.6660   21.6980   41.8450 O.3   5676  TRE5676    -0.3256
     23  O6P        2.8010   21.1320   42.0270 O.3   5676  TRE5676    -0.2176
@<TRIPOS>BOND
     1    21    16    1
     2    10     4    1
     3    20    15    1
     4    16    15    1
     5    16    17    1
     6     8     2    1
     7    15    14    1
     8     4     3    1
     9     4     5    1
    10     3     2    1
    11     3     9    1
    12    11     5    1
    13    11     1    1
    14     5     6    1
    15    17    22    1
    16    17    18    1
    17     2     1    1
    18     7     1    1
    19     7    13    1
    20    22    13    1
    21    23    18    1
    22    12     6    1
    23    14    13    1
    24    14    19    1
