@<TRIPOS>MOLECULE
2cyb_TYR_B_1.pdb
 13 13 0 0 0
SMALL
GASTEIGER

@<TRIPOS>ATOM
      1  N          5.5820   -5.3210   13.8250 N.3   401  TYR401     -0.1205
      2  CA         6.5650   -5.9110   12.8830 C.3   401  TYR401      0.1986
      3  C          6.1750   -7.3380   12.5050 C.2   401  TYR401      0.3822
      4  O          6.9150   -7.9530   11.7200 O.co2 401  TYR401     -0.2440
      5  CB         7.9590   -5.8800   13.5180 C.3   401  TYR401      0.0569
      6  CG         8.4160   -4.4660   13.7850 C.ar  401  TYR401     -0.0200
      7  CD1        8.7870   -4.0520   15.0650 C.ar  401  TYR401     -0.0009
      8  CD2        8.4720   -3.5340   12.7410 C.ar  401  TYR401     -0.0009
      9  CE1        9.2110   -2.7320   15.2990 C.ar  401  TYR401      0.0417
     10  CE2        8.8860   -2.2320   12.9590 C.ar  401  TYR401      0.0417
     11  CZ         9.2570   -1.8340   14.2370 C.ar  401  TYR401      0.1957
     12  OH         9.6860   -0.5450   14.4320 O.3   401  TYR401     -0.2866
     13  OXT        5.1260   -7.8150   12.9860 O.co2 401  TYR401     -0.2440
@<TRIPOS>BOND
     1     4     3   ar
     2     3     2    1
     3     3    13   ar
     4     8    10   ar
     5     8     6   ar
     6     2     5    1
     7     2     1    1
     8    10    11   ar
     9     5     6    1
    10     6     7   ar
    11    11    12    1
    12    11     9   ar
    13     7     9   ar
