@<TRIPOS>MOLECULE
2cyc_TYR_A_1.pdb
 13 13 0 0 0
SMALL
GASTEIGER

@<TRIPOS>ATOM
      1  N         59.8380   61.3050   25.0070 N.3   701  TYR701     -0.1205
      2  CA        59.7240   60.5100   23.7470 C.3   701  TYR701      0.1986
      3  C         58.7070   61.1490   22.8030 C.2   701  TYR701      0.3822
      4  O         58.0060   62.0890   23.2370 O.co2 701  TYR701     -0.2440
      5  CB        59.3040   59.0670   24.0690 C.3   701  TYR701      0.0569
      6  CG        60.3330   58.3030   24.8800 C.ar  701  TYR701     -0.0200
      7  CD1       61.6160   58.0770   24.3820 C.ar  701  TYR701     -0.0009
      8  CD2       60.0230   57.8040   26.1480 C.ar  701  TYR701     -0.0009
      9  CE1       62.5730   57.3730   25.1340 C.ar  701  TYR701      0.0417
     10  CE2       60.9610   57.0960   26.8980 C.ar  701  TYR701      0.0417
     11  CZ        62.2330   56.8870   26.3920 C.ar  701  TYR701      0.1957
     12  OH        63.1620   56.1950   27.1500 O.3   701  TYR701     -0.2866
     13  OXT       58.6190   60.6990   21.6440 O.co2 701  TYR701     -0.2440
@<TRIPOS>BOND
     1    13     3   ar
     2     3     4   ar
     3     3     2    1
     4     2     5    1
     5     2     1    1
     6     5     6    1
     7     7     6   ar
     8     7     9   ar
     9     6     8   ar
    10     9    11   ar
    11     8    10   ar
    12    11    10   ar
    13    11    12    1
