@<TRIPOS>MOLECULE
2cye_COA_B_1.pdb
 48 50 0 0 0
SMALL
GASTEIGER

@<TRIPOS>ATOM
      1  N1A       27.4940   38.3850    3.7830 N.2   601  COA601      0.0021
      2  C2A       26.7810   38.0840    2.7110 C.3   601  COA601      0.5254
      3  N3A       26.4860   36.8300    2.4100 N.2   601  COA601     -0.0055
      4  C4A       26.9020   35.8210    3.1900 C.2   601  COA601      0.3518
      5  C5A       27.6480   36.1020    4.3270 C.2   601  COA601      0.2526
      6  C6A       27.9430   37.4290    4.6110 C.2   601  COA601      0.4393
      7  N6A       28.6680   37.7360    5.6830 N.pl3 601  COA601      0.2180
      8  N7A       27.8950   34.9530    4.9480 N.2   601  COA601     -0.2095
      9  C8A       27.3280   33.9820    4.2380 C.3   601  COA601      0.3377
     10  N9A       26.7350   34.5020    3.1660 N.pl3 601  COA601     -0.1439
     11  C1B       26.3200   33.7990    2.1140 C.3   601  COA601      0.3185
     12  C2B       25.9890   34.1600    0.8120 C.3   601  COA601      0.2543
     13  O2B       25.8220   35.4260    0.3430 O.3   601  COA601     -0.2131
     14  C3B       25.8790   32.8740   -0.0090 C.3   601  COA601      0.1928
     15  O3B       24.4950   32.5620   -0.1910 O.3   601  COA601     -0.2673
     16  P3B       23.9460   31.8050   -1.5040 P.3   601  COA601      0.5327
     17  O7A       23.7960   30.2560   -1.0960 O.3   601  COA601     -0.1145
     18  O8A       22.4570   32.3670   -1.7320 O.3   601  COA601     -0.1145
     19  O9A       24.8010   31.9990   -2.6970 O.2   601  COA601     -0.2224
     20  C4B       26.5740   31.9550    0.9960 C.3   601  COA601      0.1795
     21  O4B       26.0870   32.4650    2.2430 O.3   601  COA601     -0.3136
     22  C5B       26.2810   30.4570    0.9270 C.3   601  COA601      0.1812
     23  O5B       26.7620   29.8440    2.1280 O.3   601  COA601     -0.3112
     24  P1A       28.2850   29.3480    2.3060 P.3   601  COA601      0.2189
     25  O1A       28.3530   28.0190    1.6580 O.2   601  COA601     -0.5170
     26  O2A       29.2280   30.3980    1.8650 O.3   601  COA601     -0.4371
     27  O3A       28.3920   29.1420    3.9000 O.3   601  COA601     -0.2703
     28  P2A       29.5490   29.7720    4.8270 P.3   601  COA601      0.2188
     29  O4A       30.6710   28.8070    4.8720 O.3   601  COA601     -0.4371
     30  O5A       29.8380   31.1650    4.4220 O.2   601  COA601     -0.5170
     31  O6A       28.7930   29.7830    6.2470 O.3   601  COA601     -0.3138
     32  CBP       27.1490   30.6400    7.8500 C.3   601  COA601      0.0599
     33  CCP       27.7030   30.6900    6.4250 C.3   601  COA601      0.1516
     34  CDP       26.4860   29.2810    8.0890 C.3   601  COA601      0.0052
     35  CEP       26.1110   31.7540    8.0080 C.3   601  COA601      0.0052
     36  CAP       28.2890   30.8420    8.8530 C.3   601  COA601      0.2012
     37  OAP       29.1040   31.9510    8.4620 O.3   601  COA601     -0.2187
     38  C9P       27.7410   31.0450   10.2680 C.3   601  COA601      0.2561
     39  O9P       27.8720   29.8200   10.9920 O.3   601  COA601     -0.2008
     40  N8P       28.4690   32.1270   10.9450 N.3   601  COA601     -0.1869
     41  C7P       27.9250   32.3920   12.2870 C.3   601  COA601      0.0955
     42  C6P       26.5020   32.9530   12.2130 C.3   601  COA601      0.0702
     43  C5P       26.0710   33.4940   13.5780 C.3   601  COA601      0.2270
     44  O5P       26.0790   32.4430   14.5470 O.3   601  COA601     -0.2036
     45  N4P       24.7300   34.0910   13.4810 N.3   601  COA601     -0.1883
     46  C3P       24.3440   34.6890   14.7680 C.3   601  COA601      0.1038
     47  C2P       23.3730   33.7600   15.5000 C.3   601  COA601      0.0875
     48  S1P       21.8260   33.4640   14.5670 S.3   601  COA601     -0.0806
@<TRIPOS>BOND
     1    19    16    2
     2    18    16    1
     3    16    17    1
     4    16    15    1
     5    15    14    1
     6    14    12    1
     7    14    20    1
     8    13    12    1
     9    12    11    1
    10    22    20    1
    11    22    23    1
    12    20    21    1
    13    25    24    2
    14    26    24    1
    15    11    21    1
    16    11    10    1
    17    23    24    1
    18    24    27    1
    19     3     2    1
    20     3     4    2
    21     2     1    1
    22    10     4    1
    23    10     9    1
    24     4     5    1
    25     1     6    2
    26    27    28    1
    27     9     8    1
    28     5     6    1
    29     5     8    2
    30    30    28    2
    31     6     7    1
    32    28    29    1
    33    28    31    1
    34    31    33    1
    35    33    32    1
    36    32    35    1
    37    32    34    1
    38    32    36    1
    39    37    36    1
    40    36    38    1
    41    38    40    1
    42    38    39    1
    43    40    41    1
    44    42    41    1
    45    42    43    1
    46    45    43    1
    47    45    46    1
    48    43    44    1
    49    48    47    1
    50    46    47    1
