@<TRIPOS>MOLECULE
2cyf_MAL_A_1.pdb
 22 23 0 0 0
SMALL
GASTEIGER

@<TRIPOS>ATOM
      1  C1         7.1100  -22.5770   -5.9140 C.3   240  MAL240      0.2695
      2  C2         6.8950  -21.1000   -5.6010 C.3   240  MAL240      0.2406
      3  C3         8.1260  -20.2870   -5.9570 C.3   240  MAL240      0.2198
      4  C4         9.3330  -20.9110   -5.2580 C.3   240  MAL240      0.2144
      5  C5         9.4780  -22.3860   -5.6080 C.3   240  MAL240      0.1835
      6  C6        10.5980  -23.0880   -4.8330 C.3   240  MAL240      0.2142
      7  O1         7.2620  -22.7140   -7.3180 O.3   240  MAL240     -0.3257
      8  O2         5.7950  -20.6320   -6.3830 O.3   240  MAL240     -0.2149
      9  O3         7.8670  -18.9270   -5.5640 O.3   240  MAL240     -0.2174
     10  O4        10.5720  -20.3060   -5.6320 O.3   240  MAL240     -0.2176
     11  O5         8.2770  -23.0830   -5.2850 O.3   240  MAL240     -0.3256
     12  O6        10.3240  -23.0860   -3.4070 O.3   240  MAL240     -0.2176
     13  C1'        6.0720  -25.0720  -10.3720 C.3   240  MAL240      0.1777
     14  C2'        5.2700  -25.2590   -9.0840 C.3   240  MAL240      0.2140
     15  C3'        5.5730  -24.1130   -8.1270 C.3   240  MAL240      0.2141
     16  C4'        7.0680  -24.0410   -7.8240 C.3   240  MAL240      0.1802
     17  C5'        7.9360  -24.2120   -9.0800 C.3   240  MAL240      0.1778
     18  C6'        9.3640  -24.6230   -8.7400 C.3   240  MAL240      0.2140
     19  O2'        3.8700  -25.2790   -9.3820 O.3   240  MAL240     -0.2176
     20  O3'        4.7790  -24.1450   -6.9170 O.3   240  MAL240     -0.2176
     21  O5'        7.4560  -25.1840  -10.0270 O.3   240  MAL240     -0.3482
     22  O6'       10.1650  -24.2120   -9.8470 O.3   240  MAL240     -0.2176
@<TRIPOS>BOND
     1    13    21    1
     2    13    14    1
     3    21    17    1
     4    22    18    1
     5    19    14    1
     6    14    15    1
     7    17    18    1
     8    17    16    1
     9    15    16    1
    10    15    20    1
    11    16     7    1
    12     7     1    1
    13     8     2    1
    14     3     2    1
    15     3     9    1
    16     3     4    1
    17     1     2    1
    18     1    11    1
    19    10     4    1
    20     5    11    1
    21     5     4    1
    22     5     6    1
    23     6    12    1
