@<TRIPOS>MOLECULE
2cym_HEM_A_1.pdb
 43 50 0 0 0
SMALL
GASTEIGER

@<TRIPOS>ATOM
      1 FE        -13.0220    0.5770  -26.6120 Fe    108  HEM108      0.0000
      2  CHA      -15.1630    2.9370  -27.8690 C.2   108  HEM108      0.0000
      3  CHB      -11.6850    2.8960  -24.4590 C.2   108  HEM108      0.0000
      4  CHC      -10.8400   -1.7310  -25.4970 C.2   108  HEM108      0.0000
      5  CHD      -14.5740   -1.8670  -28.4410 C.2   108  HEM108      0.0000
      6  NA       -13.3730    2.5110  -26.2610 N.2   108  HEM108      0.0000
      7  C1A      -14.2620    3.3680  -26.9140 C.2   108  HEM108      0.0000
      8  C2A      -14.1070    4.6980  -26.3890 C.2   108  HEM108      0.0000
      9  C3A      -13.2530    4.6300  -25.3590 C.2   108  HEM108      0.0000
     10  C4A      -12.7320    3.2840  -25.3160 C.2   108  HEM108      0.0000
     11  CMA      -12.6350    5.7020  -24.4450 C.3   108  HEM108      0.0000
     12  CAA      -15.0050    5.8870  -26.7850 C.3   108  HEM108      0.0000
     13  CBA      -16.2460    6.1430  -25.9170 C.3   108  HEM108      0.0000
     14  CGA      -16.7600    7.5970  -25.9480 C.2   108  HEM108      0.0000
     15  O1A      -15.9180    8.5000  -25.9980 O.co2 108  HEM108      0.0000
     16  O2A      -17.9650    7.7290  -25.6540 O.co2 108  HEM108      0.0000
     17  NB       -11.5050    0.5630  -25.3030 N.ar  108  HEM108      0.0000
     18  C1B      -11.1990    1.6140  -24.4040 C.ar  108  HEM108      0.0000
     19  C2B      -10.4180    1.0820  -23.3070 C.ar  108  HEM108      0.0000
     20  C3B      -10.3950   -0.2470  -23.4590 C.ar  108  HEM108      0.0000
     21  C4B      -10.8830   -0.5420  -24.8160 C.ar  108  HEM108      0.0000
     22  CMB      -10.0360    1.9260  -22.0710 C.3   108  HEM108      0.0000
     23  CAB       -9.9610   -1.3440  -22.4590 C.2   108  HEM108      0.0000
     24  CBB      -10.2220   -1.2570  -21.1290 C.2   108  HEM108      0.0000
     25  NC       -12.7410   -1.4000  -26.9310 N.2   108  HEM108      0.0000
     26  C1C      -11.6230   -2.1650  -26.5210 C.2   108  HEM108      0.0000
     27  C2C      -11.5540   -3.3830  -27.2610 C.2   108  HEM108      0.0000
     28  C3C      -12.6970   -3.4970  -27.9590 C.2   108  HEM108      0.0000
     29  C4C      -13.3210   -2.1850  -27.9140 C.2   108  HEM108      0.0000
     30  CMC      -10.4290   -4.4370  -27.1010 C.3   108  HEM108      0.0000
     31  CAC      -13.2590   -4.6740  -28.7850 C.2   108  HEM108      0.0000
     32  CBC      -13.2800   -5.9870  -28.5390 C.2   108  HEM108      0.0000
     33  ND       -14.5690    0.5310  -27.8830 N.ar  108  HEM108      0.0000
     34  C1D      -15.0710   -0.5790  -28.4970 C.ar  108  HEM108      0.0000
     35  C2D      -16.3120   -0.2230  -29.1850 C.ar  108  HEM108      0.0000
     36  C3D      -16.4290    1.1240  -29.1160 C.ar  108  HEM108      0.0000
     37  C4D      -15.3520    1.6120  -28.2920 C.ar  108  HEM108      0.0000
     38  CMD      -17.0480   -1.2520  -30.0740 C.3   108  HEM108      0.0000
     39  CAD      -17.4750    2.0160  -29.7930 C.2   108  HEM108      0.0000
     40  CBD      -17.3090    2.4270  -31.2380 C.2   108  HEM108      0.0000
     41  CGD      -18.1210    3.5840  -31.7510 C.2   108  HEM108      0.0000
     42  O1D      -19.3330    3.4220  -31.9530 O.co2 108  HEM108      0.0000
     43  O2D      -17.5540    4.6670  -31.9670 O.co2 108  HEM108      0.0000
@<TRIPOS>BOND
     1    43    41   ar
     2    42    41   ar
     3    41    40    1
     4    40    39    2
     5    38    35    1
     6    39    36    1
     7    35    36   ar
     8    35    34   ar
     9    36    37   ar
    10    31    32    2
    11    31    28    1
    12    34     5    2
    13    34    33   ar
    14     5    29    1
    15    37    33   ar
    16    37     2    2
    17    28    29    1
    18    28    27    2
    19    29    25    2
    20    33     1    1
    21     2     7    1
    22    27    30    1
    23    27    26    1
    24    25     1    1
    25    25    26    1
    26     7     8    1
    27     7     6    2
    28    12     8    1
    29    12    13    1
    30     1     6    1
    31     1    17    1
    32    26     4    2
    33     8     9    2
    34     6    10    1
    35    15    14   ar
    36    14    13    1
    37    14    16   ar
    38     4    21    1
    39     9    10    1
    40     9    11    1
    41    10     3    2
    42    17    21   ar
    43    17    18   ar
    44    21    20   ar
    45     3    18    1
    46    18    19   ar
    47    20    19   ar
    48    20    23    1
    49    19    22    1
    50    23    24    2
