@<TRIPOS>MOLECULE
2cyp_HEM_A_1.pdb
 43 50 0 0 0
SMALL
GASTEIGER

@<TRIPOS>ATOM
      1 FE         28.0040   93.2400   52.4720 Fe    295  HEM295      0.0000
      2  CHA       27.7240   95.3750   49.7160 C.2   295  HEM295      0.0000
      3  CHB       30.3440   95.3190   53.8200 C.2   295  HEM295      0.0000
      4  CHC       28.2220   91.1810   55.2010 C.2   295  HEM295      0.0000
      5  CHD       25.4050   91.4340   51.3120 C.2   295  HEM295      0.0000
      6  NA        28.8090   94.9730   51.9100 N.2   295  HEM295      0.0000
      7  C1A       28.5830   95.6910   50.7430 C.2   295  HEM295      0.0000
      8  C2A       29.3780   96.9010   50.7900 C.2   295  HEM295      0.0000
      9  C3A       30.0470   96.8870   51.9420 C.2   295  HEM295      0.0000
     10  C4A       29.7840   95.6730   52.6030 C.2   295  HEM295      0.0000
     11  CMA       30.9960   97.9900   52.4700 C.3   295  HEM295      0.0000
     12  CAA       29.2760   98.0010   49.7160 C.3   295  HEM295      0.0000
     13  CBA       28.1390   99.0440   49.9920 C.3   295  HEM295      0.0000
     14  CGA       28.1760   99.9770   48.8370 C.2   295  HEM295      0.0000
     15  O1A       29.2780  100.6390   48.6610 O.co2 295  HEM295      0.0000
     16  O2A       27.3720   99.9440   47.9270 O.co2 295  HEM295      0.0000
     17  NB        28.9700   93.2920   54.1860 N.ar  295  HEM295      0.0000
     18  C1B       30.0170   94.1570   54.5080 C.ar  295  HEM295      0.0000
     19  C2B       30.5870   93.7620   55.7670 C.ar  295  HEM295      0.0000
     20  C3B       30.0550   92.6110   56.1180 C.ar  295  HEM295      0.0000
     21  C4B       29.0680   92.2650   55.1050 C.ar  295  HEM295      0.0000
     22  CMB       31.6640   94.5750   56.4970 C.3   295  HEM295      0.0000
     23  CAB       30.2420   91.7240   57.3700 C.2   295  HEM295      0.0000
     24  CBB       31.4640   91.5930   57.9250 C.2   295  HEM295      0.0000
     25  NC        26.9890   91.6380   53.1170 N.2   295  HEM295      0.0000
     26  C1C       27.2090   90.9490   54.3020 C.2   295  HEM295      0.0000
     27  C2C       26.1670   89.9320   54.4600 C.2   295  HEM295      0.0000
     28  C3C       25.4050   89.9580   53.3620 C.2   295  HEM295      0.0000
     29  C4C       25.8500   91.0850   52.5530 C.2   295  HEM295      0.0000
     30  CMC       26.1190   89.0720   55.7240 C.3   295  HEM295      0.0000
     31  CAC       24.0490   89.2850   53.0830 C.2   295  HEM295      0.0000
     32  CBC       23.6160   88.0970   53.2810 C.2   295  HEM295      0.0000
     33  ND        26.7600   93.4270   50.8710 N.ar  295  HEM295      0.0000
     34  C1D       25.8620   92.4310   50.4880 C.ar  295  HEM295      0.0000
     35  C2D       25.4350   92.6760   49.1460 C.ar  295  HEM295      0.0000
     36  C3D       26.1340   93.7400   48.7080 C.ar  295  HEM295      0.0000
     37  C4D       26.8960   94.2580   49.7920 C.ar  295  HEM295      0.0000
     38  CMD       24.4710   91.7630   48.3460 C.3   295  HEM295      0.0000
     39  CAD       26.0270   94.4180   47.3100 C.3   295  HEM295      0.0000
     40  CBD       25.1570   95.6870   47.3850 C.3   295  HEM295      0.0000
     41  CGD       25.0930   96.3970   46.0770 C.2   295  HEM295      0.0000
     42  O1D       24.3720   97.4540   46.1040 O.co2 295  HEM295      0.0000
     43  O2D       25.4130   96.0320   44.9550 O.co2 295  HEM295      0.0000
@<TRIPOS>BOND
     1    43    41   ar
     2    41    42   ar
     3    41    40    1
     4    39    40    1
     5    39    36    1
     6    16    14   ar
     7    38    35    1
     8    15    14   ar
     9    36    35   ar
    10    36    37   ar
    11    14    13    1
    12    35    34   ar
    13     2    37    2
    14     2     7    1
    15    12    13    1
    16    12     8    1
    17    37    33   ar
    18    34    33   ar
    19    34     5    2
    20     7     8    1
    21     7     6    2
    22     8     9    2
    23    33     1    1
    24     5    29    1
    25     6     1    1
    26     6    10    1
    27     9    11    1
    28     9    10    1
    29     1    25    1
    30     1    17    1
    31    29    25    2
    32    29    28    1
    33    10     3    2
    34    31    32    2
    35    31    28    1
    36    25    26    1
    37    28    27    2
    38     3    18    1
    39    17    18   ar
    40    17    21   ar
    41    26    27    1
    42    26     4    2
    43    27    30    1
    44    18    19   ar
    45    21     4    1
    46    21    20   ar
    47    19    20   ar
    48    19    22    1
    49    20    23    1
    50    23    24    2
