@<TRIPOS>MOLECULE
2cz2_GSH_A_1.pdb
 20 19 0 0 0
SMALL
GASTEIGER

@<TRIPOS>ATOM
      1  N1        -1.8000   21.8930    9.2410 N.3   1001  GSH1001    -0.1208
      2  CA1       -2.0060   21.9230    7.8210 C.3   1001  GSH1001     0.1948
      3  C1        -1.6480   20.7420    7.0600 C.2   1001  GSH1001     0.3819
      4  O11       -2.2900   20.2560    5.9510 O.co2 1001  GSH1001    -0.2441
      5  O12       -0.5210   20.2440    7.4480 O.co2 1001  GSH1001    -0.2441
      6  CB1       -1.9520   23.3450    7.2420 C.3   1001  GSH1001     0.0402
      7  CG1       -2.4050   23.4660    5.7930 C.3   1001  GSH1001     0.0889
      8  CD1       -2.0300   24.8230    5.2720 C.2   1001  GSH1001     0.2418
      9  OE1       -1.7610   25.8550    6.1250 O.2   1001  GSH1001    -0.2733
     10  N2        -1.9040   24.9980    3.9720 N.am  1001  GSH1001    -0.1968
     11  CA2       -1.5640   26.2650    3.3660 C.3   1001  GSH1001     0.1843
     12  C2        -2.7330   26.9300    2.7370 C.2   1001  GSH1001     0.2627
     13  O2        -3.5580   26.1910    1.9280 O.2   1001  GSH1001    -0.2714
     14  CB2       -0.5390   25.9670    2.2790 C.3   1001  GSH1001     0.0997
     15  SG2        1.0650   25.4850    2.9610 S.3   1001  GSH1001    -0.0797
     16  N3        -2.9630   28.1950    3.0300 N.am  1001  GSH1001    -0.1917
     17  CA3       -4.0960   28.8000    2.4120 C.3   1001  GSH1001     0.2285
     18  C3        -4.2920   30.1300    3.0510 C.2   1001  GSH1001     0.3865
     19  O31       -5.3350   30.9430    2.6320 O.co2 1001  GSH1001    -0.2437
     20  O32       -3.5100   30.5020    4.0070 O.co2 1001  GSH1001    -0.2437
@<TRIPOS>BOND
     1    13    12    2
     2    14    15    1
     3    14    11    1
     4    17    16    1
     5    17    18    1
     6    19    18   ar
     7    12    16   am
     8    12    11    1
     9    18    20   ar
    10    11    10    1
    11    10     8   am
    12     8     7    1
    13     8     9    2
    14     7     6    1
    15     4     3   ar
    16     3     5   ar
    17     3     2    1
    18     6     2    1
    19     2     1    1
