@<TRIPOS>MOLECULE
2czc_NAD_A_1.pdb
 44 48 0 0 0
SMALL
GASTEIGER

@<TRIPOS>ATOM
      1  PA        36.1520    8.1810   -4.5910 P.3   501  NAD501      0.2189
      2  O1A       34.7440    8.4880   -4.9100 O.3   501  NAD501     -0.4371
      3  O2A       36.9770    7.5440   -5.6310 O.2   501  NAD501     -0.5170
      4  O5B       36.8050    9.5290   -4.0330 O.3   501  NAD501     -0.3112
      5  C5B       37.7580    9.4800   -2.9830 C.3   501  NAD501      0.1813
      6  C4B       38.4910   10.8140   -3.0030 C.3   501  NAD501      0.1821
      7  O4B       39.8810   10.6630   -2.7240 O.3   501  NAD501     -0.3135
      8  C3B       38.4560   11.4570   -4.3940 C.3   501  NAD501      0.2184
      9  O3B       37.6240   12.6180   -4.3370 O.3   501  NAD501     -0.2174
     10  C2B       39.8910   11.8610   -4.7260 C.3   501  NAD501      0.2570
     11  O2B       39.9170   13.2000   -5.2260 O.3   501  NAD501     -0.2130
     12  C1B       40.4280   11.8420   -3.3060 C.3   501  NAD501      0.3186
     13  N9A       41.8490   11.5900   -3.2610 N.pl3 501  NAD501     -0.1439
     14  C8A       42.6580   10.8540   -3.9950 C.3   501  NAD501      0.3377
     15  N7A       43.8810   10.9300   -3.4900 N.2   501  NAD501     -0.2095
     16  C5A       43.8120   11.7250   -2.4360 C.2   501  NAD501      0.2526
     17  C6A       44.7040   12.1940   -1.4920 C.2   501  NAD501      0.4393
     18  N6A       45.9790   11.8390   -1.5730 N.pl3 501  NAD501      0.2180
     19  N1A       44.2540   12.9990   -0.5210 N.2   501  NAD501      0.0021
     20  C2A       42.9900   13.3660   -0.4360 C.3   501  NAD501      0.5254
     21  N3A       42.1030   12.9520   -1.3130 N.2   501  NAD501     -0.0055
     22  C4A       42.5130   12.1480   -2.2850 C.2   501  NAD501      0.3518
     23  O3        36.1780    7.1920   -3.3300 O.3   501  NAD501     -0.2703
     24  PN        34.8150    6.8800   -2.5290 P.3   501  NAD501      0.2189
     25  O1N       34.2340    8.1260   -1.9840 O.3   501  NAD501     -0.4371
     26  O2N       33.9310    6.0050   -3.3270 O.2   501  NAD501     -0.5170
     27  O5D       35.3100    5.9670   -1.3030 O.3   501  NAD501     -0.3112
     28  C5D       36.3820    6.4270   -0.4800 C.3   501  NAD501      0.1813
     29  C4D       36.3400    5.7800    0.9090 C.3   501  NAD501      0.1799
     30  O4D       34.9410    5.6550    1.2450 O.3   501  NAD501     -0.3327
     31  C3D       36.9440    4.3690    0.8710 C.3   501  NAD501      0.2158
     32  O3D       37.4970    3.9320    2.1120 O.3   501  NAD501     -0.2175
     33  C2D       35.7170    3.5350    0.5150 C.3   501  NAD501      0.2309
     34  O2D       35.8410    2.1720    0.9210 O.3   501  NAD501     -0.2158
     35  C1D       34.6360    4.2490    1.3240 C.3   501  NAD501      0.2263
     36  N1N       33.2960    3.8080    0.8770 N.pl3 501  NAD501     -0.2787
     37  C2N       32.9500    3.9210   -0.4750 C.3   501  NAD501      0.1244
     38  C3N       31.7080    3.4690   -0.9060 C.2   501  NAD501      0.0544
     39  C7N       31.3250    3.5990   -2.3820 C.2   501  NAD501      0.2818
     40  O7N       32.2170    4.0110   -3.3220 O.2   501  NAD501     -0.2670
     41  N7N       30.0690    3.3010   -2.6980 N.am  501  NAD501     -0.0839
     42  C4N       30.8210    2.9120    0.0100 C.2   501  NAD501      0.0033
     43  C5N       31.1580    2.8040    1.3560 C.2   501  NAD501      0.0157
     44  C6N       32.3990    3.2500    1.7970 C.2   501  NAD501      0.0633
@<TRIPOS>BOND
     1     3     1    2
     2    11    10    1
     3     2     1    1
     4    10     8    1
     5    10    12    1
     6     1     4    1
     7     1    23    1
     8     8     9    1
     9     8     6    1
    10     4     5    1
    11    14    15    1
    12    14    13    1
    13    15    16    2
    14    23    24    1
    15    26    24    2
    16    40    39    2
    17    12    13    1
    18    12     7    1
    19    13    22    1
    20     6     5    1
    21     6     7    1
    22    41    39   am
    23    24    25    1
    24    24    27    1
    25    16    22    1
    26    16    17    1
    27    39    38    1
    28    22    21    2
    29    18    17    1
    30    17    19    2
    31    21    20    1
    32    27    28    1
    33    38    37    1
    34    38    42    2
    35    19    20    1
    36    28    29    1
    37    37    36    1
    38    42    43    1
    39    33    31    1
    40    33    34    1
    41    33    35    1
    42    31    29    1
    43    31    32    1
    44    36    35    1
    45    36    44    1
    46    29    30    1
    47    30    35    1
    48    43    44    2
