@<TRIPOS>MOLECULE
2cze_U5P_A_1.pdb
 21 22 0 0 0
SMALL
GASTEIGER

@<TRIPOS>ATOM
      1  N1         9.5130   -2.4010   16.2670 N.am  401  U5P401     -0.1766
      2  C2        10.6070   -3.2450   16.0300 C.1   401  U5P401      0.2845
      3  N3        10.4020   -4.6270   15.9480 N.2   401  U5P401     -0.2452
      4  C4         9.1170   -5.1640   16.1030 C.1   401  U5P401      0.2182
      5  C5         8.0320   -4.3270   16.3480 C.2   401  U5P401      0.1242
      6  C6         8.2330   -2.9540   16.4290 C.2   401  U5P401      0.0929
      7  O2        11.7480   -2.7950   15.9030 O.2   401  U5P401     -0.1918
      8  O4         8.9520   -6.3780   16.0030 O.2   401  U5P401     -0.2085
      9  C1'        9.6720   -0.9270   16.2650 C.3   401  U5P401      0.2401
     10  C2'       10.7460   -0.4320   17.2370 C.3   401  U5P401      0.2319
     11  O2'       10.1380   -0.1910   18.5080 O.3   401  U5P401     -0.2157
     12  C3'       11.0980    0.9090   16.5930 C.3   401  U5P401      0.2158
     13  C4'       11.0730    0.5420   15.1070 C.3   401  U5P401      0.1801
     14  O3'       10.1070    1.8990   16.8840 O.3   401  U5P401     -0.2175
     15  O4'       10.0950   -0.5030   14.9580 O.3   401  U5P401     -0.3320
     16  C5'       12.4400    0.0040   14.6740 C.3   401  U5P401      0.1859
     17  O5'       13.3920    1.0640   14.7720 O.3   401  U5P401     -0.2675
     18  P         14.9490    0.8810   14.4050 P.3   401  U5P401      0.5327
     19  O1P       15.7400    1.9700   15.0210 O.3   401  U5P401     -0.1145
     20  O2P       15.0390    0.8630   12.7990 O.2   401  U5P401     -0.2224
     21  O3P       15.3990   -0.5750   14.9190 O.3   401  U5P401     -0.1145
@<TRIPOS>BOND
     1    20    18    2
     2    18    17    1
     3    18    21    1
     4    18    19    1
     5    16    17    1
     6    16    13    1
     7    15    13    1
     8    15     9    1
     9    13    12    1
    10     7     2    2
    11     3     2    2
    12     3     4    2
    13     8     4    2
    14     2     1   am
    15     4     5    1
    16     9     1    1
    17     9    10    1
    18     1     6    1
    19     5     6    2
    20    12    14    1
    21    12    10    1
    22    10    11    1
