@<TRIPOS>MOLECULE
2czf_XMP_A_1.pdb
 24 26 0 0 0
SMALL
GASTEIGER

@<TRIPOS>ATOM
      1  P         -2.0790   -3.9270   -4.6850 P.3   209  XMP209      0.5327
      2  O1P       -0.7360   -3.3870   -5.0010 O.3   209  XMP209     -0.1145
      3  O2P       -2.7170   -4.7400   -5.9190 O.2   209  XMP209     -0.2224
      4  O5'       -2.0770   -4.9450   -3.4380 O.3   209  XMP209     -0.2675
      5  O3P       -3.1350   -2.7680   -4.3150 O.3   209  XMP209     -0.1145
      6  C5'       -3.0800   -5.9610   -3.3630 C.3   209  XMP209      0.1859
      7  C4'       -3.1600   -6.5540   -1.9540 C.3   209  XMP209      0.1801
      8  O4'       -1.8300   -6.9120   -1.5400 O.3   209  XMP209     -0.3326
      9  C1'       -1.6720   -6.3900   -0.2120 C.3   209  XMP209      0.2293
     10  N9        -0.2370   -6.3170    0.1520 N.pl3 209  XMP209     -0.2353
     11  C4         0.3760   -7.1310    1.0040 C.2   209  XMP209      0.2316
     12  N3        -0.0800   -8.2150    1.7700 N.2   209  XMP209     -0.2901
     13  N1         2.1480   -8.5060    2.6580 N.2   209  XMP209     -0.2311
     14  C2         0.8080   -8.9080    2.5990 C.1   209  XMP209      0.3668
     15  O2         0.4190   -9.8720    3.2610 O.2   209  XMP209     -0.1744
     16  C6         2.5920   -7.4210    1.8890 C.1   209  XMP209      0.2388
     17  O6         3.7710   -7.0620    1.9630 O.2   209  XMP209     -0.2068
     18  C5         1.7090   -6.7410    1.0650 C.2   209  XMP209      0.2183
     19  N7         1.8460   -5.7030    0.2400 N.2   209  XMP209     -0.2322
     20  C8         0.6620   -5.4500   -0.3120 C.3   209  XMP209      0.2246
     21  C2'       -2.3440   -5.0230   -0.3210 C.3   209  XMP209      0.2310
     22  O2'       -2.6200   -4.5180    0.9880 O.3   209  XMP209     -0.2158
     23  C3'       -3.6480   -5.4910   -0.9640 C.3   209  XMP209      0.2158
     24  O3'       -4.4840   -6.1000    0.0230 O.3   209  XMP209     -0.2175
@<TRIPOS>BOND
     1     3     1    2
     2     2     1    1
     3     1     5    1
     4     1     4    1
     5     4     6    1
     6     6     7    1
     7     7     8    1
     8     7    23    1
     9     8     9    1
    10    23    21    1
    11    23    24    1
    12    21     9    1
    13    21    22    1
    14    20    10    1
    15    20    19    1
    16     9    10    1
    17    10    11    1
    18    19    18    2
    19    11    18    1
    20    11    12    2
    21    18    16    1
    22    12    14    2
    23    16    17    2
    24    16    13    2
    25    14    13    2
    26    14    15    2
