@<TRIPOS>MOLECULE
2czl_TLA_A_1.pdb
 10 9 0 0 0
SMALL
GASTEIGER

@<TRIPOS>ATOM
      1  O1        42.0600    0.8660   78.0380 O.co2 401  TLA401     -0.2427
      2  O11       41.8850    2.3590   79.6780 O.co2 401  TLA401     -0.2427
      3  C1        42.4260    1.9130   78.5590 C.2   401  TLA401      0.3979
      4  C2        43.4930    2.7340   77.9260 C.3   401  TLA401      0.2950
      5  O2        43.9200    2.0360   76.7370 O.3   401  TLA401     -0.2075
      6  C3        44.6660    2.9400   78.8950 C.3   401  TLA401      0.2950
      7  O3        45.2830    1.6930   79.2350 O.3   401  TLA401     -0.2075
      8  C4        45.6640    3.8600   78.2350 C.2   401  TLA401      0.3979
      9  O4        46.8030    3.5370   78.0440 O.co2 401  TLA401     -0.2427
     10  O41       45.2430    5.0740   77.8610 O.co2 401  TLA401     -0.2427
@<TRIPOS>BOND
     1     5     4    1
     2    10     8   ar
     3     4     3    1
     4     4     6    1
     5     1     3   ar
     6     9     8   ar
     7     8     6    1
     8     3     2   ar
     9     6     7    1
