@<TRIPOS>MOLECULE
2czs_HEM_A_1.pdb
 43 50 0 0 0
SMALL
GASTEIGER

@<TRIPOS>ATOM
      1  CHA        8.6340    4.5510    7.8610 C.2   500  HEM500      0.0000
      2  CHB        7.7940    9.1480    6.7990 C.2   500  HEM500      0.0000
      3  CHC       12.5530    9.9100    6.3420 C.2   500  HEM500      0.0000
      4  CHD       13.3840    5.2380    7.1680 C.2   500  HEM500      0.0000
      5  C1A        7.9900    5.7160    7.6060 C.ar  500  HEM500      0.0000
      6  C2A        6.5610    5.8590    7.5900 C.ar  500  HEM500      0.0000
      7  C3A        6.3360    7.1410    7.2850 C.ar  500  HEM500      0.0000
      8  C4A        7.6090    7.8120    7.1130 C.ar  500  HEM500      0.0000
      9  CMA        4.9790    7.8490    7.1390 C.3   500  HEM500      0.0000
     10  CAA        5.5430    4.7110    7.8340 C.3   500  HEM500      0.0000
     11  CBA        5.3440    4.4740    9.3190 C.3   500  HEM500      0.0000
     12  CGA        4.2640    3.4580    9.6030 C.2   500  HEM500      0.0000
     13  O1A        3.9730    2.5440    8.7800 O.co2 500  HEM500      0.0000
     14  O2A        3.6750    3.6100   10.6990 O.co2 500  HEM500      0.0000
     15  C1B        9.0050    9.7600    6.6130 C.2   500  HEM500      0.0000
     16  C2B        9.1850   11.1560    6.3010 C.2   500  HEM500      0.0000
     17  C3B       10.5130   11.3920    6.1880 C.2   500  HEM500      0.0000
     18  C4B       11.2160   10.1390    6.3990 C.2   500  HEM500      0.0000
     19  CMB        7.9860   12.1280    6.1590 C.3   500  HEM500      0.0000
     20  CAB       11.2180   12.7360    5.9090 C.2   500  HEM500      0.0000
     21  CBB       10.9870   13.7960    6.7530 C.2   500  HEM500      0.0000
     22  C1C       13.1580    8.6730    6.4510 C.ar  500  HEM500      0.0000
     23  C2C       14.5950    8.4710    6.2480 C.ar  500  HEM500      0.0000
     24  C3C       14.8240    7.1530    6.4940 C.ar  500  HEM500      0.0000
     25  C4C       13.5640    6.5570    6.8480 C.ar  500  HEM500      0.0000
     26  CMC       15.6040    9.5450    5.8020 C.3   500  HEM500      0.0000
     27  CAC       16.1630    6.3810    6.4430 C.2   500  HEM500      0.0000
     28  CBC       17.0790    6.6430    7.3840 C.2   500  HEM500      0.0000
     29  C1D       12.2090    4.6260    7.4950 C.2   500  HEM500      0.0000
     30  C2D       12.0180    3.2490    7.9190 C.2   500  HEM500      0.0000
     31  C3D       10.5370    3.0360    8.1050 C.2   500  HEM500      0.0000
     32  C4D        9.9610    4.3140    7.7910 C.2   500  HEM500      0.0000
     33  CMD       13.0920    2.1690    8.1370 C.3   500  HEM500      0.0000
     34  CAD        9.8300    1.7440    8.5890 C.3   500  HEM500      0.0000
     35  CBD        9.1790    1.9300    9.9590 C.3   500  HEM500      0.0000
     36  CGD       10.1840    2.4530   10.9380 C.2   500  HEM500      0.0000
     37  O1D       11.0060    1.6340   11.4110 O.co2 500  HEM500      0.0000
     38  O2D       10.1710    3.6740   11.2410 O.co2 500  HEM500      0.0000
     39  NA         8.6100    6.8900    7.3000 N.ar  500  HEM500      0.0000
     40  NB        10.2710    9.1670    6.6520 N.2   500  HEM500      0.0000
     41  NC        12.5590    7.5040    6.8110 N.ar  500  HEM500      0.0000
     42  ND        10.9650    5.2080    7.4140 N.2   500  HEM500      0.0000
     43 FE         10.6020    7.2300    7.0480 Fe    500  HEM500      0.0000
@<TRIPOS>BOND
     1    26    23    1
     2    20    17    1
     3    20    21    2
     4    19    16    1
     5    17    16    2
     6    17    18    1
     7    23    22   ar
     8    23    24   ar
     9    16    15    1
    10     3    18    2
    11     3    22    1
    12    18    40    1
    13    27    24    1
    14    27    28    2
    15    22    41   ar
    16    24    25   ar
    17    15    40    2
    18    15     2    1
    19    40    43    1
    20     2     8    2
    21    41    25   ar
    22    41    43    1
    23    25     4    1
    24    43    39    1
    25    43    42    1
    26     8     7   ar
    27     8    39   ar
    28     9     7    1
    29     4    29    2
    30     7     6   ar
    31    39     5   ar
    32    42    29    1
    33    42    32    2
    34    29    30    1
    35     6     5   ar
    36     6    10    1
    37     5     1    2
    38    32     1    1
    39    32    31    1
    40    10    11    1
    41    30    31    2
    42    30    33    1
    43    31    34    1
    44    34    35    1
    45    13    12   ar
    46    11    12    1
    47    12    14   ar
    48    35    36    1
    49    36    38   ar
    50    36    37   ar
