@<TRIPOS>MOLECULE
2d03_MES_H_1.pdb
 12 12 0 0 0
SMALL
GASTEIGER

@<TRIPOS>ATOM
      1  O1        24.2620    5.7450  107.3800 O.3   901  MES901     -0.3508
      2  C2        24.1830    6.7120  106.3070 C.3   901  MES901      0.1595
      3  C3        24.5220    8.1090  106.8390 C.3   901  MES901      0.1047
      4  N4        23.5990    8.4430  107.9450 N.3   901  MES901     -0.2670
      5  C5        23.6260    7.4390  109.0190 C.3   901  MES901      0.1047
      6  C6        23.3540    6.0550  108.4490 C.3   901  MES901      0.1595
      7  C7        23.8780    9.7810  108.5050 C.3   901  MES901      0.0940
      8  C8        23.2990   10.9140  107.6560 C.3   901  MES901      0.1225
      9  S         24.1010   12.4520  107.9540 S.3   901  MES901     -0.1946
     10  O1S       25.4730   12.2750  107.5040 O.3   901  MES901     -0.3074
     11  O2S       24.0380   12.7020  109.3670 O.3   901  MES901     -0.3074
     12  O3S       23.3970   13.4490  107.1680 O.3   901  MES901     -0.3074
@<TRIPOS>BOND
     1     2     3    1
     2     2     1    1
     3     3     4    1
     4    12     9    1
     5     1     6    1
     6    10     9    1
     7     8     9    1
     8     8     7    1
     9     4     7    1
    10     4     5    1
    11     9    11    1
    12     6     5    1
