@<TRIPOS>MOLECULE
2d06_EST_A_1.pdb
 20 23 0 0 0
SMALL
GASTEIGER

@<TRIPOS>ATOM
      1  C1       128.6100  -58.3750    1.7680 C.ar  304  EST304     -0.0013
      2  C2       129.1900  -59.6810    1.8690 C.ar  304  EST304      0.0417
      3  C3       130.1020  -60.1400    0.8620 C.ar  304  EST304      0.1954
      4  O3       130.6500  -61.3880    0.9750 O.3   304  EST304     -0.2866
      5  C4       130.4440  -59.3160   -0.2520 C.ar  304  EST304      0.0375
      6  C5       129.8700  -57.9880   -0.3820 C.ar  304  EST304     -0.0230
      7  C6       130.2510  -57.1210   -1.6040 C.3   304  EST304      0.0261
      8  C7       129.5660  -55.7180   -1.6750 C.3   304  EST304      0.0050
      9  C8       129.2790  -55.0970   -0.3010 C.3   304  EST304      0.0044
     10  C9       128.3090  -56.0720    0.5280 C.3   304  EST304      0.0220
     11  C10      128.9250  -57.4950    0.6590 C.ar  304  EST304     -0.0263
     12  C11      128.0440  -55.4080    1.9220 C.3   304  EST304      0.0044
     13  C12      127.4320  -53.9810    1.8460 C.3   304  EST304      0.0028
     14  C13      128.3200  -53.0150    1.0080 C.3   304  EST304      0.0282
     15  C14      128.5750  -53.6700   -0.4250 C.3   304  EST304      0.0028
     16  C15      129.2370  -52.4930   -1.1590 C.3   304  EST304      0.0027
     17  C16      128.2450  -51.3200   -0.8390 C.3   304  EST304      0.0329
     18  C17      127.6460  -51.6760    0.5680 C.3   304  EST304      0.1519
     19  O17      127.8430  -50.5550    1.4710 O.3   304  EST304     -0.2232
     20  C18      129.6430  -52.6660    1.8270 C.3   304  EST304      0.0025
@<TRIPOS>BOND
     1     8     7    1
     2     8     9    1
     3     7     6    1
     4    16    17    1
     5    16    15    1
     6    17    18    1
     7    15     9    1
     8    15    14    1
     9     6     5   ar
    10     6    11   ar
    11     9    10    1
    12     5     3   ar
    13    10    11    1
    14    10    12    1
    15    18    14    1
    16    18    19    1
    17    11     1   ar
    18     3     4    1
    19     3     2   ar
    20    14    20    1
    21    14    13    1
    22     1     2   ar
    23    13    12    1
