@<TRIPOS>MOLECULE
2d06_A3P_A_1.pdb
 27 29 0 0 0
SMALL
GASTEIGER

@<TRIPOS>ATOM
      1  P1       140.6820  -62.6730    1.7990 P.3   2001  A3P2001     0.5327
      2  O1P      140.0980  -61.5410    2.5410 O.3   2001  A3P2001    -0.1145
      3  O2P      141.6640  -62.3650    0.7650 O.2   2001  A3P2001    -0.2224
      4  O3P      140.9710  -63.8360    2.6970 O.3   2001  A3P2001    -0.1145
      5  P2       133.6710  -62.5290   -1.0800 P.3   2001  A3P2001     0.5327
      6  O4P      132.9480  -61.5110   -0.2830 O.3   2001  A3P2001    -0.1145
      7  O5P      133.7250  -62.3130   -2.5460 O.2   2001  A3P2001    -0.2224
      8  O6P      133.1900  -64.0800   -0.5950 O.3   2001  A3P2001    -0.1145
      9  O5'      135.2050  -62.3910   -0.5230 O.3   2001  A3P2001    -0.2675
     10  C5'      136.1970  -63.0070   -1.2790 C.3   2001  A3P2001     0.1859
     11  C4'      137.4070  -63.4590   -0.4820 C.3   2001  A3P2001     0.1796
     12  O4'      138.1500  -64.1120   -1.5430 O.3   2001  A3P2001    -0.3136
     13  C3'      138.4470  -62.3990    0.0540 C.3   2001  A3P2001     0.1928
     14  O3'      139.3330  -63.2010    0.9470 O.3   2001  A3P2001    -0.2673
     15  C2'      139.1260  -61.9890   -1.2520 C.3   2001  A3P2001     0.2543
     16  O2'      140.3490  -61.2460   -1.0610 O.3   2001  A3P2001    -0.2131
     17  C1'      139.3220  -63.3700   -1.8480 C.3   2001  A3P2001     0.3185
     18  N9       139.4340  -63.4750   -3.3040 N.pl3 2001  A3P2001    -0.1439
     19  C8       138.8070  -62.6330   -4.2230 C.3   2001  A3P2001     0.3377
     20  N7       139.0640  -62.9280   -5.4700 N.2   2001  A3P2001    -0.2095
     21  C5       139.9350  -64.0600   -5.3790 C.2   2001  A3P2001     0.2526
     22  C6       140.5940  -64.8870   -6.3830 C.2   2001  A3P2001     0.4393
     23  N6       140.4520  -64.6540   -7.6940 N.pl3 2001  A3P2001     0.2180
     24  N1       141.3810  -65.9290   -5.9430 N.2   2001  A3P2001     0.0021
     25  C2       141.4970  -66.1270   -4.6090 C.3   2001  A3P2001     0.5254
     26  N3       140.9360  -65.4310   -3.5760 N.2   2001  A3P2001    -0.0055
     27  C4       140.1530  -64.4010   -4.0380 C.2   2001  A3P2001     0.3518
@<TRIPOS>BOND
     1    23    22    1
     2    22    24    2
     3    22    21    1
     4    24    25    1
     5    20    21    2
     6    20    19    1
     7    21    27    1
     8    25    26    1
     9    19    18    1
    10    27    26    2
    11    27    18    1
    12    18    17    1
    13     7     5    2
    14    17    12    1
    15    17    15    1
    16    12    11    1
    17    10     9    1
    18    10    11    1
    19    15    16    1
    20    15    13    1
    21     5     8    1
    22     5     9    1
    23     5     6    1
    24    11    13    1
    25    13    14    1
    26     3     1    2
    27    14     1    1
    28     1     2    1
    29     1     4    1
