@<TRIPOS>MOLECULE
2d09_FLV_A_1.pdb
 15 16 0 0 0
SMALL
GASTEIGER

@<TRIPOS>ATOM
      1  OAB       49.5520   69.4230   62.9070 O.2   431  FLV431     -0.2831
      2  CAM       50.7070   69.8070   62.7360 C.2   431  FLV431      0.2346
      3  CAN       51.2530   69.8570   61.4540 C.ar  431  FLV431      0.0516
      4  CAH       50.4860   69.4780   60.3550 C.ar  431  FLV431      0.0456
      5  CAI       51.0400   69.4810   59.0780 C.ar  431  FLV431      0.1990
      6  OAC       50.3120   69.0480   58.0120 O.3   431  FLV431     -0.2865
      7  CAF       52.3620   69.8760   58.8980 C.ar  431  FLV431      0.0841
      8  CAK       53.1290   70.2570   59.9940 C.ar  431  FLV431      0.2020
      9  OAE       54.4270   70.6150   59.8020 O.3   431  FLV431     -0.2864
     10  CAO       52.5800   70.2490   61.2750 C.ar  431  FLV431      0.0813
     11  CAL       53.3520   70.5960   62.3790 C.2   431  FLV431      0.2021
     12  OAA       54.5220   70.9480   62.2360 O.2   431  FLV431     -0.2864
     13  CAG       52.8070   70.5470   63.6600 C.2   431  FLV431      0.0875
     14  CAJ       51.4850   70.1510   63.8370 C.2   431  FLV431      0.2374
     15  OAD       50.9520   70.0830   65.0870 O.2   431  FLV431     -0.2830
@<TRIPOS>BOND
     1     6     5    1
     2     7     5   ar
     3     7     8   ar
     4     5     4   ar
     5     9     8    1
     6     8    10   ar
     7     4     3   ar
     8    10     3   ar
     9    10    11    1
    10     3     2    1
    11    12    11    2
    12    11    13    1
    13     2     1    2
    14     2    14    1
    15    13    14    2
    16    14    15    1
