@<TRIPOS>MOLECULE
2d09_HEM_A_1.pdb
 43 50 0 0 0
SMALL
GASTEIGER

@<TRIPOS>ATOM
      1  CHA       51.7580   66.1870   58.5130 C.2   430  HEM430      0.0000
      2  CHB       56.4280   67.2820   59.1240 C.2   430  HEM430      0.0000
      3  CHC       57.1190   66.9860   54.3580 C.2   430  HEM430      0.0000
      4  CHD       52.4610   65.9350   53.7380 C.2   430  HEM430      0.0000
      5  C1A       52.9550   66.4980   59.1220 C.2   430  HEM430      0.0000
      6  C2A       53.1760   66.7000   60.5590 C.2   430  HEM430      0.0000
      7  C3A       54.4760   66.9980   60.7180 C.2   430  HEM430      0.0000
      8  C4A       55.1110   67.0040   59.4110 C.2   430  HEM430      0.0000
      9  CMA       55.2040   67.3070   62.0270 C.3   430  HEM430      0.0000
     10  CAA       52.0810   66.6090   61.6690 C.3   430  HEM430      0.0000
     11  CBA       51.6720   65.2320   62.2030 C.3   430  HEM430      0.0000
     12  CGA       50.4460   65.3550   63.1350 C.2   430  HEM430      0.0000
     13  O1A       50.6560   65.1140   64.3720 O.co2 430  HEM430      0.0000
     14  O2A       49.3660   65.6980   62.6600 O.co2 430  HEM430      0.0000
     15  C1B       57.0250   67.3030   57.8850 C.ar  430  HEM430      0.0000
     16  C2B       58.4300   67.6270   57.6530 C.ar  430  HEM430      0.0000
     17  C3B       58.6200   67.5480   56.2970 C.ar  430  HEM430      0.0000
     18  C4B       57.3600   67.1750   55.7100 C.ar  430  HEM430      0.0000
     19  CMB       59.4380   67.9820   58.7650 C.3   430  HEM430      0.0000
     20  CAB       59.8800   67.7880   55.4190 C.3   430  HEM430      0.0000
     21  CBB       61.2580   67.4950   56.0410 C.3   430  HEM430      0.0000
     22  C1C       55.9100   66.6620   53.7880 C.2   430  HEM430      0.0000
     23  C2C       55.7180   66.4940   52.3480 C.2   430  HEM430      0.0000
     24  C3C       54.4190   66.2030   52.1580 C.2   430  HEM430      0.0000
     25  C4C       53.7900   66.1830   53.4660 C.2   430  HEM430      0.0000
     26  CMC       56.8570   66.6440   51.3010 C.3   430  HEM430      0.0000
     27  CAC       53.6570   65.9370   50.8400 C.3   430  HEM430      0.0000
     28  CBC       54.0100   64.6470   50.1310 C.3   430  HEM430      0.0000
     29  C1D       51.8420   65.9030   54.9600 C.ar  430  HEM430      0.0000
     30  C2D       50.4340   65.6510   55.2090 C.ar  430  HEM430      0.0000
     31  C3D       50.2410   65.7130   56.5530 C.ar  430  HEM430      0.0000
     32  C4D       51.5250   66.0160   57.1500 C.ar  430  HEM430      0.0000
     33  CMD       49.3730   65.3660   54.1110 C.3   430  HEM430      0.0000
     34  CAD       48.9090   65.5090   57.2930 C.3   430  HEM430      0.0000
     35  CBD       48.7460   63.9890   57.6910 C.3   430  HEM430      0.0000
     36  CGD       47.4600   63.6910   58.4290 C.2   430  HEM430      0.0000
     37  O1D       46.9380   64.5450   59.1720 O.co2 430  HEM430      0.0000
     38  O2D       47.0050   62.5290   58.2350 O.co2 430  HEM430      0.0000
     39  NA        54.1480   66.6880   58.4530 N.2   430  HEM430      0.0000
     40  NB        56.3930   67.0330   56.6770 N.ar  430  HEM430      0.0000
     41  NC        54.7310   66.4580   54.4530 N.2   430  HEM430      0.0000
     42  ND        52.5030   66.1280   56.1790 N.ar  430  HEM430      0.0000
     43 FE         54.4510   66.5460   56.4430 Fe    430  HEM430      0.0000
@<TRIPOS>BOND
     1    28    27    1
     2    27    24    1
     3    26    23    1
     4    24    23    2
     5    24    25    1
     6    23    22    1
     7    25     4    1
     8    25    41    2
     9     4    29    2
    10    22     3    2
    11    22    41    1
    12    33    30    1
    13     3    18    1
    14    41    43    1
    15    29    30   ar
    16    29    42   ar
    17    30    31   ar
    18    20    21    1
    19    20    17    1
    20    18    17   ar
    21    18    40   ar
    22    42    43    1
    23    42    32   ar
    24    17    16   ar
    25    43    40    1
    26    43    39    1
    27    31    32   ar
    28    31    34    1
    29    40    15   ar
    30    32     1    2
    31    34    35    1
    32    16    15   ar
    33    16    19    1
    34    35    36    1
    35    15     2    1
    36    38    36   ar
    37    36    37   ar
    38    39     5    2
    39    39     8    1
    40     1     5    1
    41     5     6    1
    42     2     8    2
    43     8     7    1
    44     6     7    2
    45     6    10    1
    46     7     9    1
    47    10    11    1
    48    11    12    1
    49    14    12   ar
    50    12    13   ar
