@<TRIPOS>MOLECULE
2d0e_HEM_A_1.pdb
 43 50 0 0 0
SMALL
GASTEIGER

@<TRIPOS>ATOM
      1  CHA      -24.1470  -30.3740  112.8940 C.2   408  HEM408      0.0000
      2  CHB      -28.8580  -31.3100  113.2960 C.2   408  HEM408      0.0000
      3  CHC      -29.2040  -31.4670  108.4740 C.2   408  HEM408      0.0000
      4  CHD      -24.5000  -30.5570  108.1100 C.2   408  HEM408      0.0000
      5  C1A      -25.3800  -30.5950  113.4450 C.2   408  HEM408      0.0000
      6  C2A      -25.6850  -30.6550  114.8730 C.2   408  HEM408      0.0000
      7  C3A      -26.9960  -30.9060  114.9950 C.2   408  HEM408      0.0000
      8  C4A      -27.5520  -31.0230  113.6500 C.2   408  HEM408      0.0000
      9  CMA      -27.7980  -31.0740  116.2890 C.3   408  HEM408      0.0000
     10  CAA      -24.6260  -30.4820  115.9920 C.3   408  HEM408      0.0000
     11  CBA      -24.4890  -29.1160  116.6520 C.3   408  HEM408      0.0000
     12  CGA      -23.4310  -29.1690  117.7600 C.2   408  HEM408      0.0000
     13  O1A      -23.6720  -28.4640  118.7920 O.co2 408  HEM408      0.0000
     14  O2A      -22.4310  -29.8860  117.5990 O.co2 408  HEM408      0.0000
     15  C1B      -29.3710  -31.4460  112.0250 C.ar  408  HEM408      0.0000
     16  C2B      -30.7690  -31.7870  111.7100 C.ar  408  HEM408      0.0000
     17  C3B      -30.8640  -31.8420  110.3470 C.ar  408  HEM408      0.0000
     18  C4B      -29.5510  -31.5250  109.8180 C.ar  408  HEM408      0.0000
     19  CMB      -31.8710  -32.0390  112.7540 C.3   408  HEM408      0.0000
     20  CAB      -32.0810  -32.1780  109.4390 C.3   408  HEM408      0.0000
     21  CBB      -33.3960  -31.4210  109.7220 C.3   408  HEM408      0.0000
     22  C1C      -27.9450  -31.2110  107.9610 C.2   408  HEM408      0.0000
     23  C2C      -27.6350  -31.1760  106.5220 C.2   408  HEM408      0.0000
     24  C3C      -26.3270  -30.9290  106.4150 C.2   408  HEM408      0.0000
     25  C4C      -25.8060  -30.7970  107.7670 C.2   408  HEM408      0.0000
     26  CMC      -28.6820  -31.4000  105.4030 C.3   408  HEM408      0.0000
     27  CAC      -25.4510  -30.7980  105.1430 C.3   408  HEM408      0.0000
     28  CBC      -25.4680  -29.4190  104.4840 C.3   408  HEM408      0.0000
     29  C1D      -23.9760  -30.4330  109.3660 C.ar  408  HEM408      0.0000
     30  C2D      -22.5800  -30.1900  109.6840 C.ar  408  HEM408      0.0000
     31  C3D      -22.4880  -30.1310  111.0270 C.ar  408  HEM408      0.0000
     32  C4D      -23.8230  -30.3450  111.5570 C.ar  408  HEM408      0.0000
     33  CMD      -21.4300  -30.0310  108.6390 C.3   408  HEM408      0.0000
     34  CAD      -21.2250  -29.8880  111.8470 C.3   408  HEM408      0.0000
     35  CBD      -21.0850  -28.3690  112.1330 C.3   408  HEM408      0.0000
     36  CGD      -19.8730  -28.0350  112.9560 C.2   408  HEM408      0.0000
     37  O1D      -19.5470  -28.7730  113.9070 O.co2 408  HEM408      0.0000
     38  O2D      -19.2800  -26.9890  112.6100 O.co2 408  HEM408      0.0000
     39  NA       -26.5260  -30.8160  112.7360 N.2   408  HEM408      0.0000
     40  NB       -28.6520  -31.2990  110.8490 N.ar  408  HEM408      0.0000
     41  NC       -26.8160  -30.9610  108.7000 N.2   408  HEM408      0.0000
     42  ND       -24.7360  -30.5280  110.5430 N.ar  408  HEM408      0.0000
     43 FE        -26.6850  -30.8570  110.7150 Fe    408  HEM408      0.0000
@<TRIPOS>BOND
     1    28    27    1
     2    27    24    1
     3    26    23    1
     4    24    23    2
     5    24    25    1
     6    23    22    1
     7    25     4    1
     8    25    41    2
     9    22     3    2
    10    22    41    1
    11     4    29    2
    12     3    18    1
    13    33    30    1
    14    41    43    1
    15    29    30   ar
    16    29    42   ar
    17    20    21    1
    18    20    17    1
    19    30    31   ar
    20    18    17   ar
    21    18    40   ar
    22    17    16   ar
    23    42    43    1
    24    42    32   ar
    25    43    40    1
    26    43    39    1
    27    40    15   ar
    28    31    32   ar
    29    31    34    1
    30    32     1    2
    31    16    15   ar
    32    16    19    1
    33    34    35    1
    34    15     2    1
    35    35    36    1
    36    38    36   ar
    37    39     5    2
    38    39     8    1
    39     1     5    1
    40    36    37   ar
    41     2     8    2
    42     5     6    1
    43     8     7    1
    44     6     7    2
    45     6    10    1
    46     7     9    1
    47    10    11    1
    48    11    12    1
    49    14    12   ar
    50    12    13   ar
