@<TRIPOS>MOLECULE
2d0e_NQ_A_1.pdb
 13 14 0 0 0
SMALL
GASTEIGER

@<TRIPOS>ATOM
      1  OAB      -24.3900  -34.0450  116.5160 O.2   409  NQ409      -0.2831
      2  CAK      -25.2310  -34.2130  115.6330 C.2   409  NQ409       0.2344
      3  CAM      -24.8740  -34.1040  114.2900 C.ar  409  NQ409       0.0453
      4  CAG      -23.5680  -33.7770  113.9360 C.ar  409  NQ409       0.0034
      5  CAE      -23.2140  -33.6540  112.5950 C.ar  409  NQ409       0.0001
      6  CAD      -24.1710  -33.8560  111.6040 C.ar  409  NQ409       0.0001
      7  CAF      -25.4770  -34.1830  111.9560 C.ar  409  NQ409       0.0033
      8  CAL      -25.8310  -34.3090  113.2960 C.ar  409  NQ409       0.0422
      9  CAJ      -27.1410  -34.6280  113.6470 C.2   409  NQ409       0.1990
     10  OAA      -27.9850  -34.8340  112.7750 O.2   409  NQ409      -0.2865
     11  CAH      -27.4950  -34.7330  114.9890 C.2   409  NQ409       0.0874
     12  CAI      -26.5420  -34.5230  115.9800 C.2   409  NQ409       0.2374
     13  OAC      -26.9000  -34.5980  117.2910 O.2   409  NQ409      -0.2830
@<TRIPOS>BOND
     1     6     7   ar
     2     6     5   ar
     3     7     8   ar
     4     5     4   ar
     5    10     9    2
     6     8     9    1
     7     8     3   ar
     8     9    11    1
     9     4     3   ar
    10     3     2    1
    11    11    12    2
    12     2    12    1
    13     2     1    2
    14    12    13    1
