@<TRIPOS>MOLECULE
2d0f_BGC_A_1.pdb
 12 12 0 0 0
SMALL
GASTEIGER

@<TRIPOS>ATOM
      1  C2        23.5350   39.6430   24.2810 C.3   705  BGC705      0.2434
      2  C3        23.1320   40.5540   23.1090 C.3   705  BGC705      0.2199
      3  C4        21.8710   41.4010   23.3750 C.3   705  BGC705      0.2144
      4  C5        21.8400   41.9590   24.8090 C.3   705  BGC705      0.1836
      5  C6        20.5040   42.5800   25.1880 C.3   705  BGC705      0.2142
      6  C1        23.4310   40.3930   25.6100 C.3   705  BGC705      0.3024
      7  O1        23.6830   39.5340   26.6670 O.3   705  BGC705     -0.1869
      8  O2        24.8750   39.2040   24.0940 O.3   705  BGC705     -0.2148
      9  O3        22.9100   39.7690   21.9480 O.3   705  BGC705     -0.2174
     10  O4        21.9030   42.5080   22.4590 O.3   705  BGC705     -0.2176
     11  O5        22.1120   40.9150   25.7620 O.3   705  BGC705     -0.3236
     12  O6        19.4480   41.6300   25.1280 O.3   705  BGC705     -0.2176
@<TRIPOS>BOND
     1     9     2    1
     2    10     3    1
     3     2     3    1
     4     2     1    1
     5     3     4    1
     6     8     1    1
     7     1     6    1
     8     4     5    1
     9     4    11    1
    10    12     5    1
    11     6    11    1
    12     6     7    1
