@<TRIPOS>MOLECULE
2d0f_GLC_A_1.pdb
 11 11 0 0 0
SMALL
GASTEIGER

@<TRIPOS>ATOM
      1  C1        20.3920   51.5470   18.1040 C.3   702  GLC702      0.1777
      2  C2        20.6610   51.3910   16.6040 C.3   702  GLC702      0.2141
      3  C3        22.1630   51.2080   16.3620 C.3   702  GLC702      0.2173
      4  C4        22.9340   52.3800   16.9780 C.3   702  GLC702      0.2142
      5  C5        22.5760   52.5210   18.4630 C.3   702  GLC702      0.1810
      6  C6        23.2020   53.7440   19.1020 C.3   702  GLC702      0.2141
      7  O2        19.9510   50.2690   16.1060 O.3   702  GLC702     -0.2176
      8  O3        22.4220   51.1380   14.9680 O.3   702  GLC702     -0.2175
      9  O4        24.3560   52.1660   16.8410 O.3   702  GLC702     -0.2176
     10  O5        21.1440   52.6430   18.6240 O.3   702  GLC702     -0.3481
     11  O6        24.5500   53.4920   19.4710 O.3   702  GLC702     -0.2176
@<TRIPOS>BOND
     1     8     3    1
     2     7     2    1
     3     3     2    1
     4     3     4    1
     5     2     1    1
     6     9     4    1
     7     4     5    1
     8     1    10    1
     9     5    10    1
    10     5     6    1
    11     6    11    1
