@<TRIPOS>MOLECULE
2d0g_GLC_A_1.pdb
 11 11 0 0 0
SMALL
GASTEIGER

@<TRIPOS>ATOM
      1  C1        24.3150   47.5660   19.9030 C.3   706  GLC706      0.1777
      2  C2        24.4650   47.6130   18.3760 C.3   706  GLC706      0.2141
      3  C3        25.8430   47.0570   17.9760 C.3   706  GLC706      0.2173
      4  C4        26.9490   47.8320   18.7040 C.3   706  GLC706      0.2142
      5  C5        26.6810   47.7940   20.2110 C.3   706  GLC706      0.1810
      6  C6        27.6680   48.6020   21.0100 C.3   706  GLC706      0.2141
      7  O2        23.4340   46.8540   17.7600 O.3   706  GLC706     -0.2176
      8  O3        26.0210   47.1620   16.5720 O.3   706  GLC706     -0.2175
      9  O4        28.2210   47.2660   18.4220 O.3   706  GLC706     -0.2176
     10  O5        25.3630   48.3240   20.4890 O.3   706  GLC706     -0.3481
     11  O6        27.5200   49.9880   20.6730 O.3   706  GLC706     -0.2176
@<TRIPOS>BOND
     1     8     3    1
     2     7     2    1
     3     3     2    1
     4     3     4    1
     5     2     1    1
     6     9     4    1
     7     4     5    1
     8     1    10    1
     9     5    10    1
    10     5     6    1
    11    11     6    1
