@<TRIPOS>MOLECULE
2d0g_BGC_A_1.pdb
 11 11 0 0 0
SMALL
GASTEIGER

@<TRIPOS>ATOM
      1  C2        30.9850   48.5240   12.2090 C.3   703  BGC703      0.2141
      2  C3        31.7690   47.2140   12.3240 C.3   703  BGC703      0.2173
      3  C4        33.2140   47.4040   11.8020 C.3   703  BGC703      0.2142
      4  C5        33.8830   48.6460   12.4370 C.3   703  BGC703      0.1810
      5  C6        35.1980   49.0550   11.8050 C.3   703  BGC703      0.2141
      6  C1        31.7620   49.5550   12.9990 C.3   703  BGC703      0.1777
      7  O2        29.6810   48.3810   12.7500 O.3   703  BGC703     -0.2176
      8  O3        31.1130   46.1930   11.5880 O.3   703  BGC703     -0.2175
      9  O4        33.9800   46.2500   12.1160 O.3   703  BGC703     -0.2176
     10  O5        33.0070   49.7880   12.3720 O.3   703  BGC703     -0.3481
     11  O6        35.0240   49.3660   10.4060 O.3   703  BGC703     -0.2176
@<TRIPOS>BOND
     1    11     5    1
     2     8     2    1
     3     3     9    1
     4     3     2    1
     5     3     4    1
     6     5     4    1
     7     1     2    1
     8     1     7    1
     9     1     6    1
    10    10     4    1
    11    10     6    1
