@<TRIPOS>MOLECULE
2d0h_GLC_A_1.pdb
 11 11 0 0 0
SMALL
GASTEIGER

@<TRIPOS>ATOM
      1  C1       -35.4960  -34.0550   72.5780 C.3   701  GLC701      0.1777
      2  C2       -34.5090  -34.9530   73.3600 C.3   701  GLC701      0.2141
      3  C3       -35.2230  -36.0500   74.1680 C.3   701  GLC701      0.2173
      4  C4       -36.3900  -35.4730   74.9710 C.3   701  GLC701      0.2142
      5  C5       -37.3330  -34.7270   74.0330 C.3   701  GLC701      0.1810
      6  C6       -38.5110  -34.1070   74.7660 C.3   701  GLC701      0.2141
      7  O2       -33.5950  -35.5560   72.4540 O.3   701  GLC701     -0.2176
      8  O3       -34.3000  -36.6640   75.0580 O.3   701  GLC701     -0.2175
      9  O4       -37.0900  -36.5230   75.6250 O.3   701  GLC701     -0.2176
     10  O5       -36.6230  -33.6560   73.3710 O.3   701  GLC701     -0.3481
     11  O6       -38.7830  -32.7910   74.3000 O.3   701  GLC701     -0.2176
@<TRIPOS>BOND
     1     7     2    1
     2     1     2    1
     3     1    10    1
     4     2     3    1
     5    10     5    1
     6     5     6    1
     7     5     4    1
     8     3     4    1
     9     3     8    1
    10    11     6    1
    11     4     9    1
