@<TRIPOS>MOLECULE
2d0k_FOL_A_1.pdb
 32 34 0 0 0
SMALL
GASTEIGER

@<TRIPOS>ATOM
      1  N1        25.7130   -0.1330    4.2750 N.2   1161  FOL1161    -0.2672
      2  C2        26.2710   -0.3150    3.0890 C.1   1161  FOL1161     0.2609
      3  NA2       25.7410   -0.6880    2.0920 N.pl3 1161  FOL1161    -0.0220
      4  N3        27.5850   -0.0500    2.9650 N.2   1161  FOL1161    -0.2466
      5  C4        28.3040    0.3780    3.9530 C.1   1161  FOL1161     0.2569
      6  O4        29.4380    0.5880    3.7640 O.2   1161  FOL1161    -0.2052
      7  C4A       27.6520    0.5690    5.2130 C.2   1161  FOL1161     0.2988
      8  N5        28.3700    1.0460    6.3350 N.2   1161  FOL1161    -0.3839
      9  C6        27.5940    1.1820    7.4800 C.2   1161  FOL1161     0.1356
     10  C7        26.2380    0.8330    7.3980 C.3   1161  FOL1161     0.1931
     11  N8        25.6260    0.4320    6.4720 N.2   1161  FOL1161    -0.1992
     12  C8A       26.3710    0.2950    5.3150 C.1   1161  FOL1161     0.1401
     13  C9        28.2430    1.6700    8.6450 C.3   1161  FOL1161     0.1683
     14  N10       29.6990    2.1740    8.4260 N.pl3 1161  FOL1161    -0.2303
     15  C11       30.7510    5.7450    6.1770 C.ar  1161  FOL1161     0.0551
     16  C12       31.7260    4.8990    6.7820 C.ar  1161  FOL1161     0.0059
     17  C13       31.4170    3.6730    7.5650 C.ar  1161  FOL1161     0.0162
     18  C14       29.9990    3.3010    7.7260 C.ar  1161  FOL1161     0.0658
     19  C15       29.1170    4.0920    7.1670 C.ar  1161  FOL1161     0.0162
     20  C16       29.4850    5.3610    6.3620 C.ar  1161  FOL1161     0.0059
     21  C         31.1030    6.9670    5.3850 C.2   1161  FOL1161     0.2652
     22  O         32.2050    7.7750    5.6790 O.2   1161  FOL1161    -0.2684
     23  N         30.3340    7.2710    4.3580 N.am  1161  FOL1161    -0.1918
     24  CA        30.3960    8.4790    3.6150 C.3   1161  FOL1161     0.1986
     25  CB        30.7060    8.1460    2.0550 C.3   1161  FOL1161     0.0451
     26  CG        32.0230    8.5750    1.7430 C.3   1161  FOL1161     0.1164
     27  CD        32.0030    8.7940    0.4780 C.2   1161  FOL1161     0.3649
     28  OE1       31.9240   10.2340    0.2760 O.co2 1161  FOL1161    -0.2457
     29  OE2       32.0540    7.7580   -0.3590 O.co2 1161  FOL1161    -0.2457
     30  CT        29.0780    9.0430    3.5080 C.2   1161  FOL1161     0.3842
     31  O1        27.9580    8.3150    3.5160 O.co2 1161  FOL1161    -0.2437
     32  O2        29.1130   10.2300    3.4120 O.co2 1161  FOL1161    -0.2437
@<TRIPOS>BOND
     1    29    27   ar
     2    28    27   ar
     3    27    26    1
     4    26    25    1
     5    25    24    1
     6     3     2    1
     7     4     2    2
     8     4     5    2
     9     2     1    2
    10    32    30   ar
    11    30    31   ar
    12    30    24    1
    13    24    23    1
    14     6     5    2
    15     5     7    1
    16     1    12    2
    17    23    21   am
    18     7    12    1
    19     7     8    2
    20    12    11    2
    21    21    22    2
    22    21    15    1
    23    15    20   ar
    24    15    16   ar
    25     8     9    2
    26    20    19   ar
    27    11    10    1
    28    16    17   ar
    29    19    18   ar
    30    10     9    1
    31     9    13    1
    32    17    18   ar
    33    18    14    1
    34    14    13    1
