@<TRIPOS>MOLECULE
2d0s_HEC_A_1.pdb
 43 50 0 0 0
SMALL
GASTEIGER

@<TRIPOS>ATOM
      1 FE         18.0680   16.3530    5.4620 Fe     80  HEC80       0.0000
      2  CHA       16.2920   18.3350    7.6330 C.2    80  HEC80       0.0000
      3  CHB       15.2300   14.9140    4.3350 C.2    80  HEC80       0.0000
      4  CHC       19.8810   14.8650    2.9770 C.2    80  HEC80       0.0000
      5  CHD       21.0120   17.3760    6.9880 C.2    80  HEC80       0.0000
      6  NA        16.1760   16.5540    5.8960 N.ar   80  HEC80       0.0000
      7  C1A       15.6140   17.4340    6.8390 C.ar   80  HEC80       0.0000
      8  C2A       14.1790   17.2680    6.8250 C.ar   80  HEC80       0.0000
      9  C3A       13.8730   16.2890    5.9470 C.ar   80  HEC80       0.0000
     10  C4A       15.1220   15.8400    5.3300 C.ar   80  HEC80       0.0000
     11  CMA       12.4500   15.7620    5.5820 C.3    80  HEC80       0.0000
     12  CAA       13.1890   18.0500    7.7400 C.3    80  HEC80       0.0000
     13  CBA       12.9190   19.3900    7.0570 C.3    80  HEC80       0.0000
     14  CGA       12.2340   20.3620    7.9780 C.2    80  HEC80       0.0000
     15  O1A       11.6810   19.9440    9.0190 O.co2  80  HEC80       0.0000
     16  O2A       12.2120   21.5580    7.6390 O.co2  80  HEC80       0.0000
     17  NB        17.6560   15.1410    3.9290 N.2    80  HEC80       0.0000
     18  C1B       16.3960   14.6690    3.6230 C.2    80  HEC80       0.0000
     19  C2B       16.4790   13.9470    2.3820 C.2    80  HEC80       0.0000
     20  C3B       17.7720   13.9060    2.0120 C.2    80  HEC80       0.0000
     21  C4B       18.5190   14.7040    2.9620 C.2    80  HEC80       0.0000
     22  CMB       15.2740   13.2020    1.7700 C.3    80  HEC80       0.0000
     23  CAB       18.4250   13.1600    0.7990 C.3    80  HEC80       0.0000
     24  CBB       17.7770   13.5720   -0.5440 C.3    80  HEC80       0.0000
     25  NC        20.0320   16.1500    5.0880 N.ar   80  HEC80       0.0000
     26  C1C       20.5840   15.4730    3.9930 C.ar   80  HEC80       0.0000
     27  C2C       22.0220   15.4560    4.1260 C.ar   80  HEC80       0.0000
     28  C3C       22.3340   16.3280    5.1340 C.ar   80  HEC80       0.0000
     29  C4C       21.0930   16.6490    5.8140 C.ar   80  HEC80       0.0000
     30  CMC       22.9280   15.0040    2.9600 C.3    80  HEC80       0.0000
     31  CAC       23.7230   16.7180    5.7720 C.3    80  HEC80       0.0000
     32  CBC       24.9460   16.8100    4.8510 C.3    80  HEC80       0.0000
     33  ND        18.5920   17.7190    7.0780 N.2    80  HEC80       0.0000
     34  C1D       19.8860   17.9960    7.4800 C.2    80  HEC80       0.0000
     35  C2D       19.8450   18.9500    8.5620 C.2    80  HEC80       0.0000
     36  C3D       18.3740   19.2120    8.7770 C.2    80  HEC80       0.0000
     37  C4D       17.6710   18.4000    7.8150 C.2    80  HEC80       0.0000
     38  CMD       21.0530   19.5510    9.2990 C.3    80  HEC80       0.0000
     39  CAD       17.7270   20.1970    9.7390 C.3    80  HEC80       0.0000
     40  CBD       17.4520   21.4590    8.9440 C.3    80  HEC80       0.0000
     41  CGD       16.7840   22.4470    9.8860 C.2    80  HEC80       0.0000
     42  O1D       17.1990   22.4670   11.0670 O.co2  80  HEC80       0.0000
     43  O2D       15.8440   23.2000    9.4540 O.co2  80  HEC80       0.0000
@<TRIPOS>BOND
     1    24    23    1
     2    23    20    1
     3    22    19    1
     4    20    19    2
     5    20    21    1
     6    19    18    1
     7    30    27    1
     8    21     4    2
     9    21    17    1
    10     4    26    1
    11    18    17    2
    12    18     3    1
    13    17     1    1
    14    26    27   ar
    15    26    25   ar
    16    27    28   ar
    17     3    10    2
    18    32    31    1
    19    25     1    1
    20    25    29   ar
    21    28    31    1
    22    28    29   ar
    23    10     6   ar
    24    10     9   ar
    25     1     6    1
    26     1    33    1
    27    11     9    1
    28    29     5    1
    29     6     7   ar
    30     9     8   ar
    31     8     7   ar
    32     8    12    1
    33     7     2    2
    34     5    34    2
    35    13    12    1
    36    13    14    1
    37    33    34    1
    38    33    37    2
    39    34    35    1
    40     2    37    1
    41    16    14   ar
    42    37    36    1
    43    14    15   ar
    44    35    36    2
    45    35    38    1
    46    36    39    1
    47    40    39    1
    48    40    41    1
    49    43    41   ar
    50    41    42   ar
