@<TRIPOS>MOLECULE
2d0t_HEM_A_1.pdb
 43 50 0 0 0
SMALL
GASTEIGER

@<TRIPOS>ATOM
      1 FE         64.6770   54.6840   18.7730 Fe    404  HEM404      0.0000
      2  CHA       66.0220   52.0780   20.4930 C.2   404  HEM404      0.0000
      3  CHB       64.2420   56.3450   21.6250 C.2   404  HEM404      0.0000
      4  CHC       63.2120   57.3050   16.9760 C.2   404  HEM404      0.0000
      5  CHD       65.0230   52.9600   15.8050 C.2   404  HEM404      0.0000
      6  NA        65.0640   54.2820   20.7120 N.2   404  HEM404      0.0000
      7  C1A       65.5740   53.1530   21.2450 C.2   404  HEM404      0.0000
      8  C2A       65.5810   53.2060   22.6690 C.2   404  HEM404      0.0000
      9  C3A       65.0800   54.4250   22.9890 C.2   404  HEM404      0.0000
     10  C4A       64.7570   55.0720   21.7510 C.2   404  HEM404      0.0000
     11  CMA       64.8490   55.0070   24.3750 C.3   404  HEM404      0.0000
     12  CAA       66.0620   52.1090   23.5650 C.3   404  HEM404      0.0000
     13  CBA       65.2250   50.8610   23.8570 C.3   404  HEM404      0.0000
     14  CGA       63.7190   50.9680   24.1440 C.2   404  HEM404      0.0000
     15  O1A       62.9130   50.4330   23.2890 O.co2 404  HEM404      0.0000
     16  O2A       63.3270   51.6070   25.1830 O.co2 404  HEM404      0.0000
     17  NB        63.8830   56.4690   19.1990 N.ar  404  HEM404      0.0000
     18  C1B       63.8500   57.0060   20.4550 C.ar  404  HEM404      0.0000
     19  C2B       63.3560   58.3630   20.4410 C.ar  404  HEM404      0.0000
     20  C3B       63.0330   58.6860   19.1190 C.ar  404  HEM404      0.0000
     21  C4B       63.3730   57.4760   18.3540 C.ar  404  HEM404      0.0000
     22  CMB       63.2100   59.2540   21.7130 C.3   404  HEM404      0.0000
     23  CAB       62.4940   59.9480   18.6530 C.3   404  HEM404      0.0000
     24  CBB       61.4300   60.6730   19.2420 C.3   404  HEM404      0.0000
     25  NC        64.1770   55.0670   16.7310 N.2   404  HEM404      0.0000
     26  C1C       63.5710   56.1630   16.2160 C.2   404  HEM404      0.0000
     27  C2C       63.3490   56.0020   14.7650 C.2   404  HEM404      0.0000
     28  C3C       63.8700   54.7760   14.4210 C.2   404  HEM404      0.0000
     29  C4C       64.3790   54.2100   15.6800 C.2   404  HEM404      0.0000
     30  CMC       62.6850   57.0230   13.8140 C.3   404  HEM404      0.0000
     31  CAC       63.8900   54.1890   13.1350 C.3   404  HEM404      0.0000
     32  CBC       63.0110   53.1920   12.7440 C.3   404  HEM404      0.0000
     33  ND        65.3940   52.8890   18.2460 N.ar  404  HEM404      0.0000
     34  C1D       65.5070   52.3470   17.0020 C.ar  404  HEM404      0.0000
     35  C2D       66.1790   51.0730   17.0670 C.ar  404  HEM404      0.0000
     36  C3D       66.4650   50.8100   18.3730 C.ar  404  HEM404      0.0000
     37  C4D       65.9640   51.9540   19.0970 C.ar  404  HEM404      0.0000
     38  CMD       66.4890   50.1710   15.8750 C.3   404  HEM404      0.0000
     39  CAD       67.1920   49.5780   18.9640 C.3   404  HEM404      0.0000
     40  CBD       68.6970   49.5170   19.0770 C.3   404  HEM404      0.0000
     41  CGD       69.6240   49.5560   17.8460 C.2   404  HEM404      0.0000
     42  O1D       70.4720   50.4610   17.8340 O.co2 404  HEM404      0.0000
     43  O2D       69.5040   48.7310   16.9060 O.co2 404  HEM404      0.0000
@<TRIPOS>BOND
     1    32    31    1
     2    31    28    1
     3    30    27    1
     4    28    27    2
     5    28    29    1
     6    27    26    1
     7    29     5    1
     8    29    25    2
     9     5    34    2
    10    38    35    1
    11    26    25    1
    12    26     4    2
    13    25     1    1
    14    43    41   ar
    15     4    21    1
    16    34    35   ar
    17    34    33   ar
    18    35    36   ar
    19    42    41   ar
    20    41    40    1
    21    33     1    1
    22    33    37   ar
    23    21    20   ar
    24    21    17   ar
    25    36    39    1
    26    36    37   ar
    27    23    20    1
    28    23    24    1
    29     1    17    1
    30     1     6    1
    31    39    40    1
    32    37     2    2
    33    20    19   ar
    34    17    18   ar
    35    19    18   ar
    36    19    22    1
    37    18     3    1
    38     2     7    1
    39     6     7    2
    40     6    10    1
    41     7     8    1
    42     3    10    2
    43    10     9    1
    44     8     9    2
    45     8    12    1
    46     9    11    1
    47    15    14   ar
    48    12    13    1
    49    13    14    1
    50    14    16   ar
