@<TRIPOS>MOLECULE
2d0t_NHE_A_1.pdb
 13 13 0 0 0
SMALL
GASTEIGER

@<TRIPOS>ATOM
      1  C3'       58.4720   54.5120   24.0660 C.3   502  NHE502      0.0014
      2  C2'       58.9300   53.2830   24.8740 C.3   502  NHE502      0.0174
      3  C1'       59.7880   52.3650   23.9850 C.3   502  NHE502      0.0728
      4  C6'       60.9850   53.1240   23.4190 C.3   502  NHE502      0.0174
      5  N         60.2790   51.1430   24.7170 N.3   502  NHE502     -0.2177
      6  C1        59.5310   50.8140   25.9490 C.3   502  NHE502      0.1101
      7  C2        60.3160   49.6690   26.5720 C.3   502  NHE502      0.1240
      8  S         59.6530   49.1430   27.9440 S.3   502  NHE502     -0.1946
      9  O1        59.6230   50.3250   28.8360 O.3   502  NHE502     -0.3074
     10  O2        58.3090   48.6540   27.5620 O.3   502  NHE502     -0.3074
     11  O3        60.5650   48.0750   28.3890 O.3   502  NHE502     -0.3074
     12  C5'       60.5260   54.3610   22.6390 C.3   502  NHE502      0.0014
     13  C4'       59.7020   55.2710   23.5200 C.3   502  NHE502      0.0001
@<TRIPOS>BOND
     1    12     4    1
     2    12    13    1
     3     4     3    1
     4    13     1    1
     5     3     5    1
     6     3     2    1
     7     1     2    1
     8     5     6    1
     9     6     7    1
    10     7     8    1
    11    10     8    1
    12     8    11    1
    13     8     9    1
