@<TRIPOS>MOLECULE
2d0t_PIM_A_1.pdb
 11 12 0 0 0
SMALL
GASTEIGER

@<TRIPOS>ATOM
      1  N1        61.2770   52.4210   19.8560 N.2   501  PIM501     -0.2427
      2  C2        62.5490   52.8660   19.9060 C.3   501  PIM501      0.2508
      3  N3        62.7370   53.8520   19.0890 N.2   501  PIM501     -0.2412
      4  C4        61.6440   54.0940   18.4840 C.2   501  PIM501      0.1141
      5  C5        60.7000   53.2210   18.9330 C.2   501  PIM501      0.0970
      6  C6        59.2580   53.1660   18.4580 C.ar  501  PIM501      0.0188
      7  C7        58.3100   52.5560   19.3000 C.ar  501  PIM501      0.0015
      8  C8        56.9340   52.4900   18.8450 C.ar  501  PIM501      0.0000
      9  C9        56.6550   53.0500   17.5860 C.ar  501  PIM501      0.0000
     10  C10       57.6000   53.6630   16.7320 C.ar  501  PIM501      0.0000
     11  C11       58.9330   53.7080   17.2010 C.ar  501  PIM501      0.0015
@<TRIPOS>BOND
     1    10    11   ar
     2    10     9   ar
     3    11     6   ar
     4     9     8   ar
     5     6     5    1
     6     6     7   ar
     7     4     5    1
     8     4     3    2
     9     8     7   ar
    10     5     1    2
    11     3     2    1
    12     1     2    1
