@<TRIPOS>MOLECULE
2d0u_HEM_A_1.pdb
 43 50 0 0 0
SMALL
GASTEIGER

@<TRIPOS>ATOM
      1 FE         64.9210   54.1110   18.7920 Fe    404  HEM404      0.0000
      2  CHA       66.1580   51.5920   20.5890 C.2   404  HEM404      0.0000
      3  CHB       64.3670   55.9100   21.6860 C.2   404  HEM404      0.0000
      4  CHC       63.4250   56.7970   16.9810 C.2   404  HEM404      0.0000
      5  CHD       65.2650   52.4260   15.8030 C.2   404  HEM404      0.0000
      6  NA        65.1900   53.8150   20.7830 N.2   404  HEM404      0.0000
      7  C1A       65.7130   52.7010   21.3310 C.2   404  HEM404      0.0000
      8  C2A       65.7650   52.8110   22.7660 C.2   404  HEM404      0.0000
      9  C3A       65.2610   54.0220   23.0620 C.2   404  HEM404      0.0000
     10  C4A       64.9070   54.6410   21.8180 C.2   404  HEM404      0.0000
     11  CMA       65.0810   54.6340   24.4570 C.3   404  HEM404      0.0000
     12  CAA       66.2880   51.7570   23.7240 C.3   404  HEM404      0.0000
     13  CBA       65.4810   50.5560   24.1770 C.3   404  HEM404      0.0000
     14  CGA       63.9630   50.6240   24.4320 C.2   404  HEM404      0.0000
     15  O1A       63.1680   50.0740   23.6180 O.co2 404  HEM404      0.0000
     16  O2A       63.5850   51.2520   25.4320 O.co2 404  HEM404      0.0000
     17  NB        64.0570   55.9740   19.2340 N.ar  404  HEM404      0.0000
     18  C1B       63.9830   56.5310   20.4840 C.ar  404  HEM404      0.0000
     19  C2B       63.4430   57.8520   20.4280 C.ar  404  HEM404      0.0000
     20  C3B       63.1580   58.1440   19.0960 C.ar  404  HEM404      0.0000
     21  C4B       63.5410   56.9510   18.3650 C.ar  404  HEM404      0.0000
     22  CMB       63.2290   58.7740   21.6540 C.3   404  HEM404      0.0000
     23  CAB       62.5980   59.3660   18.5860 C.3   404  HEM404      0.0000
     24  CBB       61.4130   60.0120   19.0190 C.3   404  HEM404      0.0000
     25  NC        64.4020   54.5550   16.7280 N.2   404  HEM404      0.0000
     26  C1C       63.8090   55.6710   16.2260 C.2   404  HEM404      0.0000
     27  C2C       63.6170   55.5670   14.8030 C.2   404  HEM404      0.0000
     28  C3C       64.1430   54.3400   14.4310 C.2   404  HEM404      0.0000
     29  C4C       64.6180   53.7280   15.6890 C.2   404  HEM404      0.0000
     30  CMC       62.9820   56.6420   13.8960 C.3   404  HEM404      0.0000
     31  CAC       64.1590   53.8160   13.1310 C.3   404  HEM404      0.0000
     32  CBC       63.3930   52.7430   12.7240 C.3   404  HEM404      0.0000
     33  ND        65.5640   52.3640   18.2870 N.ar  404  HEM404      0.0000
     34  C1D       65.7140   51.8060   17.0430 C.ar  404  HEM404      0.0000
     35  C2D       66.3760   50.5120   17.1570 C.ar  404  HEM404      0.0000
     36  C3D       66.6250   50.2690   18.4900 C.ar  404  HEM404      0.0000
     37  C4D       66.1180   51.4320   19.1820 C.ar  404  HEM404      0.0000
     38  CMD       66.7240   49.5760   16.0000 C.3   404  HEM404      0.0000
     39  CAD       67.3280   49.0310   19.1370 C.3   404  HEM404      0.0000
     40  CBD       68.8340   48.8940   19.3320 C.3   404  HEM404      0.0000
     41  CGD       69.8990   48.9510   18.1960 C.2   404  HEM404      0.0000
     42  O1D       70.7400   49.8520   18.2410 O.co2 404  HEM404      0.0000
     43  O2D       69.8950   48.0940   17.2790 O.co2 404  HEM404      0.0000
@<TRIPOS>BOND
     1    32    31    1
     2    31    28    1
     3    30    27    1
     4    28    27    2
     5    28    29    1
     6    27    26    1
     7    29     5    1
     8    29    25    2
     9     5    34    2
    10    38    35    1
    11    26    25    1
    12    26     4    2
    13    25     1    1
    14     4    21    1
    15    34    35   ar
    16    34    33   ar
    17    35    36   ar
    18    43    41   ar
    19    41    42   ar
    20    41    40    1
    21    33     1    1
    22    33    37   ar
    23    21    20   ar
    24    21    17   ar
    25    36    39    1
    26    36    37   ar
    27    23    24    1
    28    23    20    1
    29     1    17    1
    30     1     6    1
    31    20    19   ar
    32    39    40    1
    33    37     2    2
    34    17    18   ar
    35    19    18   ar
    36    19    22    1
    37    18     3    1
    38     2     7    1
    39     6     7    2
    40     6    10    1
    41     7     8    1
    42     3    10    2
    43    10     9    1
    44     8     9    2
    45     8    12    1
    46     9    11    1
    47    15    14   ar
    48    12    13    1
    49    13    14    1
    50    14    16   ar
