@<TRIPOS>MOLECULE
2d0u_NHE_A_1.pdb
 13 13 0 0 0
SMALL
GASTEIGER

@<TRIPOS>ATOM
      1  C3'       60.0860   54.9780   23.9150 C.3   406  NHE406      0.0014
      2  C2'       60.6080   53.7840   24.7430 C.3   406  NHE406      0.0174
      3  C1'       60.2270   52.4530   24.0470 C.3   406  NHE406      0.0728
      4  C6'       60.8410   52.4420   22.6580 C.3   406  NHE406      0.0174
      5  N         60.7600   51.2760   24.8430 N.3   406  NHE406     -0.2177
      6  C1        59.8400   50.9080   25.9610 C.3   406  NHE406      0.1101
      7  C2        60.5130   49.7150   26.6450 C.3   406  NHE406      0.1240
      8  S         59.6050   49.1800   27.9720 S.3   406  NHE406     -0.1946
      9  O1        59.5390   50.3300   28.8550 O.3   406  NHE406     -0.3074
     10  O2        58.3190   48.8070   27.4170 O.3   406  NHE406     -0.3074
     11  O3        60.3580   48.0660   28.5080 O.3   406  NHE406     -0.3074
     12  C5'       60.3240   53.6000   21.8250 C.3   406  NHE406      0.0014
     13  C4'       60.6770   54.9360   22.4990 C.3   406  NHE406      0.0001
@<TRIPOS>BOND
     1    12    13    1
     2    12     4    1
     3    13     1    1
     4     4     3    1
     5     1     2    1
     6     3     2    1
     7     3     5    1
     8     5     6    1
     9     6     7    1
    10     7     8    1
    11    10     8    1
    12     8    11    1
    13     8     9    1
