@<TRIPOS>MOLECULE
2d0v_PQQ_A_1.pdb
 24 26 0 0 0
SMALL
GASTEIGER

@<TRIPOS>ATOM
      1  N1         7.3580  -37.0900  -34.8420 N.2   601  PQQ601     -0.3987
      2  C2         6.4370  -36.2280  -35.4140 C.2   601  PQQ601      0.2104
      3  C2X        6.7030  -35.1760  -36.4300 C.2   601  PQQ601      0.4168
      4  O2A        7.8050  -34.6400  -36.3520 O.co2 601  PQQ601     -0.2377
      5  O2B        5.8500  -34.6620  -37.1550 O.co2 601  PQQ601     -0.2377
      6  C3         5.1900  -36.3490  -34.8130 C.2   601  PQQ601      0.0441
      7  C3A        5.3740  -37.3890  -33.8310 C.2   601  PQQ601      0.0665
      8  C1A        6.7930  -37.8720  -33.8440 C.2   601  PQQ601      0.1225
      9  C4         4.3980  -37.9990  -32.8440 C.2   601  PQQ601      0.2120
     10  O4         3.2250  -37.5630  -32.8480 O.2   601  PQQ601     -0.2881
     11  C5         4.8060  -39.0910  -31.8730 C.3   601  PQQ601      0.2608
     12  O5         3.9710  -39.6120  -31.0460 O.3   601  PQQ601     -0.2073
     13  C6A        6.2620  -39.5340  -31.9470 C.2   601  PQQ601      0.1352
     14  N6         6.6760  -40.5080  -31.0750 N.2   601  PQQ601     -0.4001
     15  C7         7.9590  -41.0180  -31.0200 C.2   601  PQQ601      0.2099
     16  C7X        8.1990  -42.0160  -29.9230 C.2   601  PQQ601      0.4168
     17  O7A        7.4390  -41.9350  -28.9270 O.co2 601  PQQ601     -0.2377
     18  O7B        9.2030  -42.7260  -29.8940 O.co2 601  PQQ601     -0.2377
     19  C8         8.9760  -40.5450  -31.8620 C.2   601  PQQ601      0.0419
     20  C9         8.6740  -39.5340  -32.7880 C.2   601  PQQ601      0.0731
     21  C9X        9.8660  -39.2210  -33.5900 C.2   601  PQQ601      0.3847
     22  O9A       10.8250  -39.9390  -33.2170 O.co2 601  PQQ601     -0.2409
     23  O9B        9.8300  -38.4410  -34.5840 O.co2 601  PQQ601     -0.2409
     24  C9A        7.2760  -38.9220  -32.9320 C.3   601  PQQ601      0.1320
@<TRIPOS>BOND
     1     5     3   ar
     2     3     4   ar
     3     3     2    1
     4     2     1    2
     5     2     6    1
     6     1     8    2
     7     6     7    2
     8    23    21   ar
     9     8     7    1
    10     8    24    1
    11     7     9    1
    12    21    22   ar
    13    21    20    1
    14    24    20    1
    15    24    13    1
    16    10     9    2
    17     9    11    1
    18    20    19    2
    19    13    11    1
    20    13    14    2
    21    11    12    1
    22    19    15    1
    23    14    15    2
    24    15    16    1
    25    16    18   ar
    26    16    17   ar
