@<TRIPOS>MOLECULE
2d0w_HEM_A_1.pdb
 43 50 0 0 0
SMALL
GASTEIGER

@<TRIPOS>ATOM
      1 FE         12.0220    1.3630   44.0690 Fe    200  HEM200      0.0000
      2  CHA       12.2140   -1.4330   46.2170 C.2   200  HEM200      0.0000
      3  CHB       13.0300   -0.4970   41.5010 C.2   200  HEM200      0.0000
      4  CHC       11.3570    4.0620   41.9240 C.2   200  HEM200      0.0000
      5  CHD       11.7360    3.4410   46.7240 C.2   200  HEM200      0.0000
      6  NA        12.5850   -0.6500   43.9140 N.ar  200  HEM200      0.0000
      7  C1A       12.5210   -1.6450   44.8710 C.ar  200  HEM200      0.0000
      8  C2A       12.8580   -2.8960   44.2030 C.ar  200  HEM200      0.0000
      9  C3A       13.1050   -2.6170   42.9230 C.ar  200  HEM200      0.0000
     10  C4A       12.9100   -1.1920   42.6900 C.ar  200  HEM200      0.0000
     11  CMA       13.5390   -3.6140   41.8000 C.3   200  HEM200      0.0000
     12  CAA       12.9860   -4.2750   44.8880 C.3   200  HEM200      0.0000
     13  CBA       14.4300   -4.3580   45.4130 C.3   200  HEM200      0.0000
     14  CGA       14.7710   -5.7350   45.9700 C.2   200  HEM200      0.0000
     15  O1A       14.0340   -6.7130   45.6970 O.co2 200  HEM200      0.0000
     16  O2A       15.7880   -5.8340   46.6970 O.co2 200  HEM200      0.0000
     17  NB        12.1530    1.7660   42.0580 N.2   200  HEM200      0.0000
     18  C1B       12.6020    0.7980   41.1850 C.2   200  HEM200      0.0000
     19  C2B       12.5840    1.4990   39.8960 C.2   200  HEM200      0.0000
     20  C3B       12.0800    2.6300   40.0100 C.2   200  HEM200      0.0000
     21  C4B       11.7800    2.8910   41.3840 C.2   200  HEM200      0.0000
     22  CMB       13.1880    0.8510   38.6510 C.3   200  HEM200      0.0000
     23  CAB       11.5730    3.5110   38.8570 C.2   200  HEM200      0.0000
     24  CBB       10.7600    3.0410   37.9620 C.2   200  HEM200      0.0000
     25  NC        11.6740    3.3850   44.2530 N.ar  200  HEM200      0.0000
     26  C1C       11.3340    4.3120   43.2790 C.ar  200  HEM200      0.0000
     27  C2C       10.8230    5.5250   43.9490 C.ar  200  HEM200      0.0000
     28  C3C       10.9860    5.3650   45.2490 C.ar  200  HEM200      0.0000
     29  C4C       11.4770    3.9990   45.4930 C.ar  200  HEM200      0.0000
     30  CMC       10.7180    6.8380   43.1890 C.3   200  HEM200      0.0000
     31  CAC       10.9500    6.4110   46.4100 C.2   200  HEM200      0.0000
     32  CBC        9.9500    7.2500   46.4080 C.2   200  HEM200      0.0000
     33  ND        12.0220    1.0450   46.1980 N.2   200  HEM200      0.0000
     34  C1D       11.7980    2.1060   47.0700 C.2   200  HEM200      0.0000
     35  C2D       11.6900    1.5580   48.4090 C.2   200  HEM200      0.0000
     36  C3D       11.8260    0.0470   48.2550 C.2   200  HEM200      0.0000
     37  C4D       12.0330   -0.1930   46.8400 C.2   200  HEM200      0.0000
     38  CMD       11.4670    2.3630   49.7260 C.3   200  HEM200      0.0000
     39  CAD       11.7620   -1.0710   49.3570 C.3   200  HEM200      0.0000
     40  CBD       10.3540   -1.6420   49.1660 C.3   200  HEM200      0.0000
     41  CGD       10.1460   -2.9830   49.8250 C.2   200  HEM200      0.0000
     42  O1D        9.0680   -3.5850   49.6690 O.co2 200  HEM200      0.0000
     43  O2D       11.0820   -3.4540   50.4860 O.co2 200  HEM200      0.0000
@<TRIPOS>BOND
     1    24    23    2
     2    22    19    1
     3    23    20    1
     4    19    20    2
     5    19    18    1
     6    20    21    1
     7    18     3    1
     8    18    17    2
     9    21     4    2
    10    21    17    1
    11     3    10    2
    12    11     9    1
    13     4    26    1
    14    17     1    1
    15    10     9   ar
    16    10     6   ar
    17     9     8   ar
    18    30    27    1
    19    26    27   ar
    20    26    25   ar
    21     6     1    1
    22     6     7   ar
    23    27    28   ar
    24     1    25    1
    25     1    33    1
    26     8     7   ar
    27     8    12    1
    28    25    29   ar
    29     7     2    2
    30    12    13    1
    31    28    29   ar
    32    28    31    1
    33    13    14    1
    34    29     5    1
    35    15    14   ar
    36    14    16   ar
    37    33    37    2
    38    33    34    1
    39     2    37    1
    40    32    31    2
    41     5    34    2
    42    37    36    1
    43    34    35    1
    44    36    35    2
    45    36    39    1
    46    35    38    1
    47    40    39    1
    48    40    41    1
    49    42    41   ar
    50    41    43   ar
