@<TRIPOS>MOLECULE
2d1c_NAP_A_1.pdb
 48 52 0 0 0
SMALL
GASTEIGER

@<TRIPOS>ATOM
      1  PA        21.7650   60.5330   56.5820 P.3   1002  NAP1002     0.2189
      2  O1A       22.6330   61.7720   56.9470 O.2   1002  NAP1002    -0.5170
      3  O2A       21.9710   59.4130   57.3660 O.3   1002  NAP1002    -0.4371
      4  O5B       22.0110   60.1020   55.1050 O.3   1002  NAP1002    -0.3112
      5  C5B       21.8430   61.0460   53.8950 C.3   1002  NAP1002     0.1813
      6  C4B       22.8610   61.0220   52.8280 C.3   1002  NAP1002     0.1820
      7  O4B       24.0280   61.7130   53.3620 O.3   1002  NAP1002    -0.3136
      8  C3B       23.3730   59.7290   52.5720 C.3   1002  NAP1002     0.2157
      9  O3B       22.5780   58.7030   51.9850 O.3   1002  NAP1002    -0.2175
     10  C2B       24.6850   60.0220   51.8900 C.3   1002  NAP1002     0.2314
     11  O2B       24.4110   60.6130   50.4750 O.3   1002  NAP1002    -0.2630
     12  C1B       25.2020   61.0820   52.7710 C.3   1002  NAP1002     0.3158
     13  N9A       26.0250   60.7030   53.9460 N.pl3 1002  NAP1002    -0.1439
     14  C8A       25.7090   60.7360   55.3050 C.3   1002  NAP1002     0.3377
     15  N7A       26.6520   60.3470   56.0940 N.2   1002  NAP1002    -0.2095
     16  C5A       27.6720   60.0280   55.2460 C.2   1002  NAP1002     0.2526
     17  C6A       28.9880   59.5430   55.4900 C.2   1002  NAP1002     0.4393
     18  N6A       29.4060   59.3270   56.7060 N.pl3 1002  NAP1002     0.2180
     19  N1A       29.8220   59.3030   54.3990 N.2   1002  NAP1002     0.0021
     20  C2A       29.3740   59.5340   53.1250 C.3   1002  NAP1002     0.5254
     21  N3A       28.1440   59.9970   52.8140 N.2   1002  NAP1002    -0.0055
     22  C4A       27.3200   60.2320   53.9260 C.2   1002  NAP1002     0.3518
     23  O3        20.3260   60.8150   56.3660 O.3   1002  NAP1002    -0.2703
     24  PN        18.8550   60.2120   56.3140 P.3   1002  NAP1002     0.2189
     25  O1N       18.8820   59.0830   55.3740 O.2   1002  NAP1002    -0.5170
     26  O2N       17.8890   61.2580   55.9730 O.3   1002  NAP1002    -0.4371
     27  O5D       18.4680   59.5240   57.8830 O.3   1002  NAP1002    -0.3112
     28  C5D       18.7560   58.3230   58.0400 C.3   1002  NAP1002     0.1813
     29  C4D       18.5370   58.1440   59.6970 C.3   1002  NAP1002     0.1799
     30  O4D       19.4010   58.9570   60.3380 O.3   1002  NAP1002    -0.3327
     31  C3D       17.1950   58.5460   60.4640 C.3   1002  NAP1002     0.2158
     32  O3D       16.5570   57.8430   61.4570 O.3   1002  NAP1002    -0.2175
     33  C2D       17.6380   60.0090   60.8190 C.3   1002  NAP1002     0.2309
     34  O2D       16.6990   60.6770   61.9270 O.3   1002  NAP1002    -0.2158
     35  C1D       19.0900   59.7600   61.3030 C.3   1002  NAP1002     0.2263
     36  N1N       19.9040   60.9710   61.6330 N.pl3 1002  NAP1002    -0.2787
     37  C2N       20.6460   61.0010   62.8370 C.3   1002  NAP1002     0.1244
     38  C3N       21.4390   62.1610   63.0820 C.2   1002  NAP1002     0.0544
     39  C7N       22.2360   62.2230   64.3300 C.2   1002  NAP1002     0.2818
     40  O7N       22.5010   61.1740   64.9250 O.2   1002  NAP1002    -0.2670
     41  N7N       22.6780   63.3740   64.8310 N.am  1002  NAP1002    -0.0839
     42  C4N       21.5450   63.3930   62.1160 C.2   1002  NAP1002     0.0033
     43  C5N       20.6670   63.1440   60.9060 C.2   1002  NAP1002     0.0157
     44  C6N       19.8960   62.0200   60.6600 C.2   1002  NAP1002     0.0633
     45  P2B       24.1190   59.7990   49.1460 P.3   1002  NAP1002     0.5328
     46  O1X       22.9140   59.0220   49.3900 O.3   1002  NAP1002    -0.1145
     47  O2X       23.9790   60.8500   48.1540 O.2   1002  NAP1002    -0.2224
     48  O3X       25.2980   58.9460   48.9690 O.3   1002  NAP1002    -0.1145
@<TRIPOS>BOND
     1    47    45    2
     2    48    45    1
     3    45    46    1
     4    45    11    1
     5    11    10    1
     6    10     8    1
     7    10    12    1
     8     9     8    1
     9     8     6    1
    10    12     7    1
    11    12    13    1
    12    21    20    1
    13    21    22    2
    14     6     7    1
    15     6     5    1
    16    20    19    1
    17     5     4    1
    18    22    13    1
    19    22    16    1
    20    13    14    1
    21    19    17    2
    22     4     1    1
    23    16    17    1
    24    16    15    2
    25    14    15    1
    26    25    24    2
    27    17    18    1
    28    26    24    1
    29    24    23    1
    30    24    27    1
    31    23     1    1
    32     1     2    2
    33     1     3    1
    34    27    28    1
    35    28    29    1
    36    29    30    1
    37    29    31    1
    38    30    35    1
    39    31    33    1
    40    31    32    1
    41    44    43    2
    42    44    36    1
    43    33    35    1
    44    33    34    1
    45    43    42    1
    46    35    36    1
    47    36    37    1
    48    42    38    2
    49    37    38    1
    50    38    39    1
    51    39    41   am
    52    39    40    2
