@<TRIPOS>MOLECULE
2d1e_BLA_A_1.pdb
 43 46 0 0 0
SMALL
GASTEIGER

@<TRIPOS>ATOM
      1  CHA       -1.7090  -21.5490   42.1300 C.3   1130  BLA1130     0.1170
      2  NA        -0.8040  -19.2460   42.5380 N.2   1130  BLA1130    -0.4104
      3  C1A       -1.7210  -20.2330   42.7260 C.2   1130  BLA1130     0.1114
      4  C2A       -2.7570  -19.9230   43.6750 C.2   1130  BLA1130     0.0024
      5  C3A       -2.4950  -18.5480   44.0230 C.2   1130  BLA1130     0.0021
      6  C4A       -1.2530  -18.2530   43.3680 C.2   1130  BLA1130     0.1114
      7  CMA       -3.2560  -17.7080   44.9980 C.3   1130  BLA1130     0.0331
      8  CAA       -3.8930  -20.8280   44.1380 C.3   1130  BLA1130     0.0402
      9  CBA       -3.4060  -21.7170   45.3200 C.3   1130  BLA1130     0.1188
     10  CGA       -4.3090  -22.8760   45.6590 C.2   1130  BLA1130     0.3652
     11  O1A       -5.1840  -23.1640   44.8330 O.co2 1130  BLA1130    -0.2456
     12  O2A       -4.1480  -23.4760   46.7410 O.co2 1130  BLA1130    -0.2456
     13  CHB       -0.7150  -16.9160   43.4280 C.3   1130  BLA1130     0.1181
     14  NB         1.4880  -17.2870   42.4310 N.2   1130  BLA1130    -0.3372
     15  C1B        0.5320  -16.4880   42.9600 C.2   1130  BLA1130     0.1257
     16  C2B        0.9700  -15.1130   42.9980 C.2   1130  BLA1130     0.0168
     17  C3B        2.2920  -15.1490   42.4620 C.2   1130  BLA1130     0.0929
     18  C4B        2.5030  -16.5430   42.1160 C.1   1130  BLA1130     0.2041
     19  CMB        0.2200  -13.9610   43.5050 C.3   1130  BLA1130     0.0342
     20  OB         3.6310  -16.9050   41.5980 O.2   1130  BLA1130    -0.2093
     21  CAB        3.2210  -14.0740   42.1020 C.2   1130  BLA1130     0.0124
     22  CBB        2.7810  -12.8170   42.0310 C.2   1130  BLA1130     0.0008
     23  NC         2.9650  -20.4800   39.4130 N.2   1130  BLA1130    -0.3371
     24  C1C        4.1630  -19.9410   39.1740 C.1   1130  BLA1130     0.2003
     25  C2C        5.1990  -20.7960   38.7290 C.2   1130  BLA1130     0.0749
     26  C3C        4.5120  -22.0580   38.6990 C.2   1130  BLA1130     0.0347
     27  C4C        3.1670  -21.7960   39.1480 C.2   1130  BLA1130     0.1293
     28  CMC        6.5980  -20.4290   38.3960 C.3   1130  BLA1130     0.0448
     29  OC         4.3130  -18.6580   39.3310 O.2   1130  BLA1130    -0.2096
     30  CAC        4.9790  -23.4200   38.4030 C.2   1130  BLA1130     0.0027
     31  CBC        6.2640  -23.7380   38.4250 C.2   1130  BLA1130     0.0001
     32  CHD        2.1410  -22.7830   39.2740 C.3   1130  BLA1130     0.1184
     33  ND         0.4230  -21.8530   40.7460 N.2   1130  BLA1130    -0.4104
     34  C1D        0.8260  -22.7340   39.7810 C.2   1130  BLA1130     0.1115
     35  C2D       -0.1390  -23.7980   39.6280 C.2   1130  BLA1130     0.0021
     36  C3D       -1.2390  -23.4260   40.4580 C.2   1130  BLA1130     0.0024
     37  C4D       -0.8300  -22.1890   41.1500 C.2   1130  BLA1130     0.1114
     38  CMD       -0.1070  -24.9630   38.7260 C.3   1130  BLA1130     0.0331
     39  CAD       -2.5930  -24.0760   40.5480 C.3   1130  BLA1130     0.0402
     40  CBD       -3.5880  -23.3240   39.6270 C.3   1130  BLA1130     0.1188
     41  CGD       -5.0470  -23.7810   39.6830 C.2   1130  BLA1130     0.3652
     42  O1D       -5.3300  -24.4410   40.6980 O.co2 1130  BLA1130    -0.2456
     43  O2D       -5.8190  -23.4490   38.7520 O.co2 1130  BLA1130    -0.2456
@<TRIPOS>BOND
     1    28    25    1
     2    30    31    2
     3    30    26    1
     4    26    25    2
     5    26    27    1
     6    38    35    1
     7    25    24    1
     8    43    41   ar
     9    27    32    1
    10    27    23    2
    11    24    29    2
    12    24    23    2
    13    32    34    1
    14    40    41    1
    15    40    39    1
    16    35    34    1
    17    35    36    2
    18    41    42   ar
    19    34    33    2
    20    36    39    1
    21    36    37    1
    22    33    37    2
    23    37     1    1
    24    20    18    2
    25    22    21    2
    26    21    17    1
    27    18    14    2
    28    18    17    1
    29     1     3    1
    30    14    15    2
    31    17    16    2
    32     2     3    2
    33     2     6    2
    34     3     4    1
    35    15    16    1
    36    15    13    1
    37    16    19    1
    38     6    13    1
    39     6     5    1
    40     4     5    2
    41     4     8    1
    42     5     7    1
    43     8     9    1
    44    11    10   ar
    45     9    10    1
    46    10    12   ar
