@<TRIPOS>MOLECULE
2d1f_PLP_A_1.pdb
 15 15 0 0 0
SMALL
GASTEIGER

@<TRIPOS>ATOM
      1  N1        -8.7590   37.7270  -11.8750 N.ar  500  PLP500     -0.2452
      2  C2        -8.5730   39.0420  -11.4880 C.ar  500  PLP500      0.0978
      3  C2A       -8.6610   39.3760  -10.0200 C.3   500  PLP500      0.0555
      4  C3        -8.3010   40.0190  -12.4580 C.ar  500  PLP500      0.2049
      5  O3        -7.7180   41.2030  -12.0890 O.3   500  PLP500     -0.2857
      6  C4        -8.2130   39.6550  -13.7990 C.ar  500  PLP500      0.0182
      7  C4A       -7.7750   40.6960  -14.8040 C.3   500  PLP500      0.0342
      8  C5        -8.4120   38.3120  -14.1550 C.ar  500  PLP500      0.0261
      9  C6        -8.6840   37.3610  -13.1860 C.ar  500  PLP500      0.0965
     10  C5A       -8.4420   37.8450  -15.5960 C.3   500  PLP500      0.1815
     11  O4P       -7.1200   37.7800  -16.0660 O.3   500  PLP500     -0.2653
     12  P         -6.8310   37.6610  -17.6360 P.3   500  PLP500      0.5329
     13  O1P       -7.6730   38.6780  -18.3970 O.2   500  PLP500     -0.2224
     14  O2P       -7.1680   36.2450  -18.0570 O.3   500  PLP500     -0.1145
     15  O3P       -5.3750   37.9910  -17.8520 O.3   500  PLP500     -0.1145
@<TRIPOS>BOND
     1    13    12    2
     2    14    12    1
     3    15    12    1
     4    12    11    1
     5    11    10    1
     6    10     8    1
     7     7     6    1
     8     8     6   ar
     9     8     9   ar
    10     6     4   ar
    11     9     1   ar
    12     4     5    1
    13     4     2   ar
    14     1     2   ar
    15     2     3    1
