@<TRIPOS>MOLECULE
2d1j_D01_A_1.pdb
 31 35 0 0 0
SMALL
GASTEIGER

@<TRIPOS>ATOM
      1  N1         8.2470    8.5820   25.6760 N.2   700  D01700     -0.3864
      2  C1         9.5410    8.2860   26.0940 C.2   700  D01700      0.1287
      3  C2        10.0120    7.6160   27.1780 C.2   700  D01700      0.0287
      4  C3        11.4010    7.4610   27.3240 C.2   700  D01700     -0.0033
      5  C4        12.2800    8.0110   26.3910 C.3   700  D01700      0.1236
      6 CL1        13.9890    7.8150   26.6430 Cl    700  D01700     -0.1054
      7  C5        11.8040    8.7290   25.3040 C.2   700  D01700     -0.0071
      8  C6        10.4470    8.8580   25.1330 C.2   700  D01700      0.0132
      9  C7         9.6360    9.4980   24.1080 C.3   700  D01700      0.1086
     10  C8         8.3500    9.2720   24.5400 C.2   700  D01700      0.2336
     11  S1         6.8820    9.7460   23.8680 S.O2  700  D01700      0.0875
     12  O1         5.9950    9.9990   24.9990 O.2   700  D01700     -0.1506
     13  O2         7.1380   10.7140   22.8350 O.2   700  D01700     -0.1506
     14  N2         6.2390    8.3480   23.0880 N.3   700  D01700     -0.1500
     15  C9         7.0550    7.7340   22.0520 C.3   700  D01700      0.1174
     16  C10        6.1450    7.0090   21.0690 C.3   700  D01700      0.1129
     17  N3         5.2690    6.0580   21.7550 N.am  700  D01700     -0.2727
     18  C11        5.3870    4.7010   21.6380 C.2   700  D01700      0.2553
     19  O3         4.8440    4.0000   22.4930 O.2   700  D01700     -0.2694
     20  C12        6.1580    4.0610   20.6700 C.ar  700  D01700      0.0891
     21  C13        6.0140    3.8910   19.2790 C.ar  700  D01700      0.0821
     22  C14        7.1000    3.1630   18.7000 C.ar  700  D01700      0.2433
     23  C15        8.0830    2.7740   19.6600 C.ar  700  D01700      0.0945
     24  S2         7.6180    3.3270   21.1720 S.2   700  D01700     -0.0763
     25  C16        9.2070    2.0300   19.1900 C.ar  700  D01700      0.0188
     26  C17        9.3630    1.7040   17.8660 C.ar  700  D01700      0.0777
     27  C18        8.3760    2.1010   17.0070 C.ar  700  D01700      0.3016
     28  N4         7.3140    2.7610   17.4000 N.ar  700  D01700     -0.1565
     29  O4         6.4530    3.0630   16.4670 O.co2 700  D01700     -0.6188
     30  C19        4.6110    6.5290   22.9800 C.3   700  D01700      0.1129
     31  C20        5.5870    7.3040   23.8870 C.3   700  D01700      0.1174
@<TRIPOS>UNITY_ATOM_ATTR
28 1
charge 1
29 1
charge -1
@<TRIPOS>BOND
     1    29    28    1
     2    27    28   ar
     3    27    26   ar
     4    28    22   ar
     5    26    25   ar
     6    22    21   ar
     7    22    23   ar
     8    25    23   ar
     9    21    20   ar
    10    23    24   ar
    11    20    24   ar
    12    20    18    1
    13    16    17    1
    14    16    15    1
    15    18    17   am
    16    18    19    2
    17    17    30    1
    18    15    14    1
    19    13    11    2
    20    30    31    1
    21    14    11    1
    22    14    31    1
    23    11    10    1
    24    11    12    2
    25     9    10    1
    26     9     8    1
    27    10     1    2
    28     8     7    2
    29     8     2    1
    30     7     5    1
    31     1     2    2
    32     2     3    1
    33     5     6    1
    34     5     4    1
    35     3     4    2
