@<TRIPOS>MOLECULE
2d1k_ATP_A_1.pdb
 31 33 0 0 0
SMALL
GASTEIGER

@<TRIPOS>ATOM
      1  PG        -3.6620   18.3270   72.4260 P.3   1380  ATP1380     0.5373
      2  O1G       -2.7410   19.1240   71.5230 O.2   1380  ATP1380    -0.2221
      3  O2G       -5.1320   18.4030   72.0970 O.3   1380  ATP1380    -0.1143
      4  O3G       -3.1930   16.9270   72.7190 O.3   1380  ATP1380    -0.1143
      5  PB        -4.8620   19.6150   74.5610 P.3   1380  ATP1380     0.2277
      6  O1B       -6.0490   18.7210   74.2760 O.2   1380  ATP1380    -0.5168
      7  O2B       -4.4430   19.8800   75.9870 O.3   1380  ATP1380    -0.4368
      8  O3B       -3.5490   19.0740   73.8220 O.3   1380  ATP1380    -0.2258
      9  PA        -6.4860   21.7220   74.2370 P.3   1380  ATP1380     0.2189
     10  O1A       -7.6340   21.1110   73.4810 O.2   1380  ATP1380    -0.5170
     11  O2A       -6.5590   21.7590   75.7520 O.3   1380  ATP1380    -0.4371
     12  O3A       -5.1240   21.0000   73.8210 O.3   1380  ATP1380    -0.2700
     13  O5'       -6.2070   23.2150   73.7320 O.3   1380  ATP1380    -0.3112
     14  C5'       -5.3340   24.0350   74.5010 C.3   1380  ATP1380     0.1813
     15  C4'       -4.8300   25.1000   73.5570 C.3   1380  ATP1380     0.1821
     16  O4'       -5.9690   25.8340   73.1150 O.3   1380  ATP1380    -0.3135
     17  C3'       -3.8800   26.0950   74.1940 C.3   1380  ATP1380     0.2184
     18  O3'       -2.7620   26.1970   73.3190 O.3   1380  ATP1380    -0.2174
     19  C2'       -4.6450   27.4030   74.1860 C.3   1380  ATP1380     0.2570
     20  O2'       -3.8760   28.5340   73.8260 O.3   1380  ATP1380    -0.2130
     21  C1'       -5.6250   27.2070   73.0620 C.3   1380  ATP1380     0.3186
     22  N9        -6.7670   28.0910   73.3170 N.pl3 1380  ATP1380    -0.1439
     23  C8        -7.6480   28.0090   74.3310 C.3   1380  ATP1380     0.3377
     24  N7        -8.5590   29.0140   74.2510 N.2   1380  ATP1380    -0.2095
     25  C5        -8.2500   29.7510   73.1550 C.2   1380  ATP1380     0.2526
     26  C6        -8.7870   30.9570   72.4690 C.2   1380  ATP1380     0.4393
     27  N6        -9.8770   31.6100   72.9390 N.pl3 1380  ATP1380     0.2180
     28  N1        -8.1410   31.3830   71.3480 N.2   1380  ATP1380     0.0021
     29  C2        -7.0510   30.7510   70.8590 C.3   1380  ATP1380     0.5254
     30  N3        -6.5180   29.6540   71.4260 N.2   1380  ATP1380    -0.0055
     31  C4        -7.0590   29.1320   72.5500 C.2   1380  ATP1380     0.3518
@<TRIPOS>BOND
     1    29    28    1
     2    29    30    1
     3    28    26    2
     4    30    31    2
     5     2     1    2
     6     3     1    1
     7     1     4    1
     8     1     8    1
     9    26    27    1
    10    26    25    1
    11    31    25    1
    12    31    22    1
    13    21    16    1
    14    21    22    1
    15    21    19    1
    16    16    15    1
    17    25    24    2
    18    22    23    1
    19    18    17    1
    20    10     9    2
    21    15    17    1
    22    15    14    1
    23    13     9    1
    24    13    14    1
    25    12     9    1
    26    12     5    1
    27     8     5    1
    28    20    19    1
    29    19    17    1
    30     9    11    1
    31    24    23    1
    32     6     5    2
    33     5     7    1
