@<TRIPOS>MOLECULE
2d1n_FA4_A_1.pdb
 33 33 0 0 0
SMALL
GASTEIGER

@<TRIPOS>ATOM
      1  C1       -40.6710   20.3930  -12.0380 C.ar  1001  FA41001    -0.0003
      2  C2       -40.6880   21.7610  -12.4150 C.ar  1001  FA41001    -0.0045
      3  C3       -41.8090   22.3270  -13.1020 C.ar  1001  FA41001    -0.0228
      4  C4       -42.9470   21.4660  -13.4070 C.ar  1001  FA41001     0.0169
      5  C5       -42.8990   20.0790  -13.0130 C.ar  1001  FA41001    -0.0011
      6  C6       -41.7750   19.5560  -12.3390 C.ar  1001  FA41001    -0.0002
      7  C7       -41.7100   23.8130  -13.4650 C.3   1001  FA41001     0.0261
      8  C8       -41.0780   23.9970  -14.8630 C.3   1001  FA41001     0.0047
      9  C9       -41.1350   25.4320  -15.4130 C.3   1001  FA41001     0.0003
     10  C10      -42.5330   26.0040  -15.6200 C.3   1001  FA41001     0.0000
     11  C11      -42.6290   27.1870  -16.5850 C.3   1001  FA41001     0.0000
     12  C12      -43.8750   27.9960  -16.2290 C.3   1001  FA41001     0.0000
     13  C13      -44.1100   29.2020  -17.1330 C.3   1001  FA41001     0.0005
     14  C14      -43.6310   30.5060  -16.4790 C.3   1001  FA41001     0.0096
     15  C15      -43.8520   31.7420  -17.3520 C.3   1001  FA41001     0.0868
     16  C16      -43.1840   31.6650  -18.7110 C.2   1001  FA41001     0.2417
     17  N17      -44.0650   31.3620  -19.7410 N.am  1001  FA41001    -0.2007
     18  C18      -43.6920   31.2260  -21.1700 C.3   1001  FA41001     0.1400
     19  O19      -41.9840   31.8470  -18.8900 O.2   1001  FA41001    -0.2733
     20  C20      -44.9130   31.6930  -21.9970 C.3   1001  FA41001     0.0282
     21  C21      -43.3740   29.7390  -21.4490 C.2   1001  FA41001     0.1067
     22  N22      -42.2890   29.2500  -20.8200 N.am  1001  FA41001    -0.2012
     23  C23      -44.5550   32.1360  -23.4420 C.3   1001  FA41001     0.0037
     24  C24      -44.9430   31.2080  -24.6190 C.3   1001  FA41001     0.0206
     25  C25      -45.3310   31.9710  -25.9040 C.3   1001  FA41001     0.1093
     26  N26      -44.3190   31.7620  -26.9690 N.3   1001  FA41001    -0.1314
     27  C27      -44.1960   21.9610  -14.1240 C.3   1001  FA41001     0.2466
     28  N28      -45.4690   21.3370  -13.5110 N.pl3 1001  FA41001    -0.0815
     29  C29      -46.2350   22.1090  -12.5790 C.cat 1001  FA41001     0.5349
     30  N30      -45.6870   23.2750  -12.0010 N.pl3 1001  FA41001     0.1354
     31  N31      -47.4240   21.7480  -12.2510 N.pl3 1001  FA41001     0.1354
     32  O32      -41.9450   27.9130  -21.0660 O.3   1001  FA41001    -0.4026
     33  O33      -44.0360   29.0280  -22.2050 O.2   1001  FA41001    -0.5379
@<TRIPOS>BOND
     1    26    25    1
     2    25    24    1
     3    24    23    1
     4    23    20    1
     5    33    21    2
     6    20    18    1
     7    21    18    1
     8    21    22   am
     9    18    17    1
    10    32    22    1
    11    17    16   am
    12    19    16    2
    13    16    15    1
    14    15    14    1
    15    13    14    1
    16    13    12    1
    17    11    12    1
    18    11    10    1
    19    10     9    1
    20     9     8    1
    21     8     7    1
    22    27    28    1
    23    27     4    1
    24    28    29    2
    25     7     3    1
    26     4     3   ar
    27     4     5   ar
    28     3     2   ar
    29     5     6   ar
    30    29    31    1
    31    29    30    1
    32     2     1   ar
    33     6     1   ar
