@<TRIPOS>MOLECULE
2d1o_FA4_A_1.pdb
 33 33 0 0 0
SMALL
GASTEIGER

@<TRIPOS>ATOM
      1  C1        21.9090    1.3290   12.8340 C.ar  1001  FA41001    -0.0003
      2  C2        23.0090    1.6730   13.6770 C.ar  1001  FA41001    -0.0045
      3  C3        23.5620    2.9960   13.6550 C.ar  1001  FA41001    -0.0228
      4  C4        22.9830    3.9950   12.7490 C.ar  1001  FA41001     0.0169
      5  C5        21.8750    3.6310   11.9050 C.ar  1001  FA41001    -0.0011
      6  C6        21.3400    2.2970   11.9460 C.ar  1001  FA41001    -0.0002
      7  C7        24.7240    3.3270   14.5570 C.3   1001  FA41001     0.0261
      8  C8        26.0760    2.9430   13.9320 C.3   1001  FA41001     0.0047
      9  C9        27.2640    3.4260   14.7650 C.3   1001  FA41001     0.0003
     10  C10       27.9570    4.6480   14.1550 C.3   1001  FA41001     0.0000
     11  C11       29.1400    5.1500   14.9870 C.3   1001  FA41001     0.0000
     12  C12       28.7270    6.2300   15.9910 C.3   1001  FA41001     0.0000
     13  C13       29.7800    7.3180   16.1690 C.3   1001  FA41001     0.0005
     14  C14       30.6220    7.1250   17.4350 C.3   1001  FA41001     0.0096
     15  C15       31.6880    8.2030   17.6360 C.3   1001  FA41001     0.0868
     16  C16       32.8660    7.9940   16.6740 C.2   1001  FA41001     0.2417
     17  N17       32.9050    8.9620   15.7320 N.am  1001  FA41001    -0.2007
     18  C18       33.9360    8.9930   14.7120 C.3   1001  FA41001     0.1400
     19  O19       33.6470    7.0470   16.7980 O.2   1001  FA41001    -0.2733
     20  C20       34.3010   10.4590   14.4670 C.3   1001  FA41001     0.0282
     21  C21       33.4250    8.3210   13.4250 C.2   1001  FA41001     0.1067
     22  N22       34.2320    7.3570   12.9590 N.am  1001  FA41001    -0.2012
     23  C23       35.7530   10.7930   14.7920 C.3   1001  FA41001     0.0037
     24  C24       36.0630   12.2710   14.5560 C.3   1001  FA41001     0.0206
     25  C25       37.1470   12.7980   15.4980 C.3   1001  FA41001     0.1093
     26  N26       37.4400   14.2090   15.2790 N.3   1001  FA41001    -0.1314
     27  C27       23.4780    5.4270   12.6430 C.3   1001  FA41001     0.2466
     28  N28       22.9060    6.2660   13.7040 N.pl3 1001  FA41001    -0.0815
     29  C29       21.7550    6.9920   13.4820 C.cat 1001  FA41001     0.5349
     30  N30       20.9490    7.2680   14.5010 N.pl3 1001  FA41001     0.1354
     31  N31       21.4300    7.4220   12.2540 N.pl3 1001  FA41001     0.1354
     32  O32       33.8780    6.6670   11.7960 O.3   1001  FA41001    -0.4026
     33  O33       32.3660    8.6570   12.9050 O.2   1001  FA41001    -0.5379
@<TRIPOS>BOND
     1    32    22    1
     2     5     6   ar
     3     5     4   ar
     4     6     1   ar
     5    31    29    1
     6    27     4    1
     7    27    28    1
     8     4     3   ar
     9     1     2   ar
    10    33    21    2
    11    22    21   am
    12    21    18    1
    13    29    28    2
    14    29    30    1
    15     3     2   ar
    16     3     7    1
    17     8     7    1
    18     8     9    1
    19    10     9    1
    20    10    11    1
    21    20    18    1
    22    20    23    1
    23    24    23    1
    24    24    25    1
    25    18    17    1
    26    11    12    1
    27    26    25    1
    28    17    16   am
    29    12    13    1
    30    13    14    1
    31    16    19    2
    32    16    15    1
    33    14    15    1
