@<TRIPOS>MOLECULE
2d1q_AMP_A_1.pdb
 23 25 0 0 0
SMALL
GASTEIGER

@<TRIPOS>ATOM
      1  P         15.4090   28.9610   12.4440 P.3   1001  AMP1001     0.5327
      2  O1P       14.3520   28.4560   11.5520 O.2   1001  AMP1001    -0.2224
      3  O2P       15.2550   30.4800   12.5190 O.3   1001  AMP1001    -0.1145
      4  O3P       15.2490   28.3760   13.8510 O.3   1001  AMP1001    -0.1145
      5  O5'       16.8670   28.5980   11.9160 O.3   1001  AMP1001    -0.2675
      6  C5'       17.2770   29.0100   10.6380 C.3   1001  AMP1001     0.1860
      7  C4'       18.5940   29.7500   10.7640 C.3   1001  AMP1001     0.1823
      8  O4'       19.5980   28.9880   11.4070 O.3   1001  AMP1001    -0.3135
      9  C3'       19.1730   30.1480    9.4100 C.3   1001  AMP1001     0.2184
     10  O3'       18.5920   31.3580    8.9380 O.3   1001  AMP1001    -0.2174
     11  C2'       20.6260   30.3410    9.7520 C.3   1001  AMP1001     0.2570
     12  O2'       20.7390   31.6150   10.3400 O.3   1001  AMP1001    -0.2130
     13  C1'       20.8590   29.2820   10.8290 C.3   1001  AMP1001     0.3186
     14  N9        21.4450   28.0560   10.2260 N.pl3 1001  AMP1001    -0.1439
     15  C8        20.7810   26.8810    9.9440 C.3   1001  AMP1001     0.3377
     16  N7        21.6710   26.0100    9.4130 N.2   1001  AMP1001    -0.2095
     17  C5        22.8860   26.6080    9.3370 C.2   1001  AMP1001     0.2526
     18  C6        24.1280   26.1850    8.8660 C.2   1001  AMP1001     0.4393
     19  N6        24.2890   24.9610    8.3600 N.pl3 1001  AMP1001     0.2180
     20  N1        25.2090   27.0480    8.9190 N.2   1001  AMP1001     0.0021
     21  C2        25.0530   28.3170    9.4220 C.3   1001  AMP1001     0.5254
     22  N3        23.8150   28.7250    9.8830 N.2   1001  AMP1001    -0.0055
     23  C4        22.7530   27.8960    9.8380 C.2   1001  AMP1001     0.3518
@<TRIPOS>BOND
     1    19    18    1
     2    18    20    2
     3    18    17    1
     4    20    21    1
     5    10     9    1
     6    17    16    2
     7    17    23    1
     8     9    11    1
     9     9     7    1
    10    16    15    1
    11    21    22    1
    12    11    12    1
    13    11    13    1
    14    23    22    2
    15    23    14    1
    16    15    14    1
    17    14    13    1
    18     6     7    1
    19     6     5    1
    20     7     8    1
    21    13     8    1
    22     2     1    2
    23     5     1    1
    24     1     3    1
    25     1     4    1
