@<TRIPOS>MOLECULE
2d1r_AMP_A_1.pdb
 23 25 0 0 0
SMALL
GASTEIGER

@<TRIPOS>ATOM
      1  P         14.7920   28.6560   12.1100 P.3   1001  AMP1001     0.5327
      2  O1P       14.2820   27.6510   11.1750 O.2   1001  AMP1001    -0.2224
      3  O2P       14.0000   29.9590   11.8730 O.3   1001  AMP1001    -0.1145
      4  O3P       14.6770   28.2950   13.6100 O.3   1001  AMP1001    -0.1145
      5  O5'       16.3120   29.0420   11.7760 O.3   1001  AMP1001    -0.2675
      6  C5'       16.7080   29.1830   10.4280 C.3   1001  AMP1001     0.1860
      7  C4'       18.0680   29.8560   10.4770 C.3   1001  AMP1001     0.1823
      8  O4'       19.0350   29.0200   11.0830 O.3   1001  AMP1001    -0.3135
      9  C3'       18.6480   30.1800    9.1090 C.3   1001  AMP1001     0.2184
     10  O3'       18.0670   31.3630    8.5820 O.3   1001  AMP1001    -0.2174
     11  C2'       20.1190   30.3180    9.4480 C.3   1001  AMP1001     0.2570
     12  O2'       20.4050   31.5820   10.0140 O.3   1001  AMP1001    -0.2130
     13  C1'       20.3160   29.2750   10.5390 C.3   1001  AMP1001     0.3186
     14  N9        20.8710   28.0180    9.9840 N.pl3 1001  AMP1001    -0.1439
     15  C8        20.2040   26.8440    9.7170 C.3   1001  AMP1001     0.3377
     16  N7        21.0760   25.9380    9.2210 N.2   1001  AMP1001    -0.2095
     17  C5        22.3070   26.5150    9.1840 C.2   1001  AMP1001     0.2526
     18  C6        23.5610   26.0960    8.7760 C.2   1001  AMP1001     0.4393
     19  N6        23.8010   24.8770    8.2980 N.pl3 1001  AMP1001     0.2180
     20  N1        24.6240   26.9800    8.8680 N.2   1001  AMP1001     0.0021
     21  C2        24.4510   28.2710    9.3300 C.3   1001  AMP1001     0.5254
     22  N3        23.2200   28.6800    9.7410 N.2   1001  AMP1001    -0.0055
     23  C4        22.1710   27.8230    9.6580 C.2   1001  AMP1001     0.3518
@<TRIPOS>BOND
     1    19    18    1
     2    10     9    1
     3    18    20    2
     4    18    17    1
     5    20    21    1
     6     9    11    1
     7     9     7    1
     8    17    16    2
     9    17    23    1
    10    16    15    1
    11    21    22    1
    12    11    12    1
    13    11    13    1
    14    23    22    2
    15    23    14    1
    16    15    14    1
    17    14    13    1
    18     6     7    1
    19     6     5    1
    20     7     8    1
    21    13     8    1
    22     2     1    2
    23     5     1    1
    24     3     1    1
    25     1     4    1
