@<TRIPOS>MOLECULE
2d1r_OLU_A_1.pdb
 16 18 0 0 0
SMALL
GASTEIGER

@<TRIPOS>ATOM
      1  O6'       16.6700   26.1000   10.8870 O.2   2001  OLU2001    -0.2132
      2  C4'       16.4290   25.0490   10.3030 C.1   2001  OLU2001     0.1925
      3  N3'       17.3140   24.1230    9.9560 N.2   2001  OLU2001    -0.3260
      4  C2'       16.7640   23.0720    9.3310 C.2   2001  OLU2001     0.2064
      5  S1'       15.1450   23.0660    9.1000 S.3   2001  OLU2001    -0.0592
      6  C5'       15.0280   24.6790    9.9090 C.3   2001  OLU2001     0.1989
      7  C2        17.5720   21.9050    8.8700 C.2   2001  OLU2001     0.1970
      8  S1        19.2600   22.0050    9.0980 S.3   2001  OLU2001    -0.0500
      9  C5        19.3630   20.4810    8.4690 C.2   2001  OLU2001     0.0608
     10  C6        20.5260   19.7260    8.3020 C.2   2001  OLU2001     0.0505
     11  C4        18.0790   19.8670    8.0680 C.2   2001  OLU2001     0.1203
     12  N3        17.1220   20.7610    8.3330 N.2   2001  OLU2001    -0.3957
     13  C9        18.0540   18.5910    7.5190 C.3   2001  OLU2001     0.0888
     14  C8        19.2410   17.8790    7.3630 C.2   2001  OLU2001     0.0234
     15  C7        20.4630   18.4350    7.7440 C.2   2001  OLU2001     0.1925
     16  O7        21.5980   17.6900    7.5640 O.2   2001  OLU2001    -0.2869
@<TRIPOS>BOND
     1    14    13    1
     2    14    15    2
     3    13    11    1
     4    16    15    1
     5    15    10    1
     6    11    12    2
     7    11     9    1
     8    10     9    2
     9    12     7    2
    10     9     8    1
    11     7     8    1
    12     7     4    1
    13     5     4    1
    14     5     6    1
    15     4     3    2
    16     6     2    1
    17     3     2    2
    18     2     1    2
