@<TRIPOS>MOLECULE
2d1s_SLU_A_1.pdb
 40 45 0 0 0
SMALL
GASTEIGER

@<TRIPOS>ATOM
      1  O39       17.3250   26.1770   11.4500 O.2   2001  SLU2001    -0.2642
      2  C16       16.2640   25.9810   10.8560 C.2   2001  SLU2001     0.3121
      3  C14       16.0960   24.7100   10.1130 C.2   2001  SLU2001     0.1772
      4  N15       17.1220   23.8800    9.8590 N.2   2001  SLU2001    -0.3912
      5  C13       14.8730   24.2820    9.6150 C.3   2001  SLU2001     0.1283
      6  S12       15.0230   22.7950    8.8260 S.3   2001  SLU2001    -0.0715
      7  C11       16.6870   22.8350    9.1760 C.2   2001  SLU2001     0.1928
      8  C8        17.6410   21.7650    8.7200 C.2   2001  SLU2001     0.1960
      9  S9        19.3200   21.8660    9.0220 S.3   2001  SLU2001    -0.0500
     10  C4        19.4680   20.3330    8.3740 C.2   2001  SLU2001     0.0608
     11  C5        20.6350   19.5690    8.1890 C.2   2001  SLU2001     0.0505
     12  C6        20.5410   18.2770    7.6360 C.2   2001  SLU2001     0.1925
     13  O10       21.6700   17.5280    7.4510 O.2   2001  SLU2001    -0.2869
     14  C3        18.1650   19.7370    7.9920 C.2   2001  SLU2001     0.1203
     15  N7        17.1610   20.5970    8.2830 N.2   2001  SLU2001    -0.3957
     16  C2        18.1360   18.4590    7.4480 C.3   2001  SLU2001     0.0888
     17  C1        19.3130   17.7410    7.2650 C.2   2001  SLU2001     0.0234
     18  N40       15.1630   26.7140   10.9420 N.am  2001  SLU2001    -0.0529
     19  S17       15.0680   28.0750   11.7510 S.3   2001  SLU2001     0.0855
     20  O18       13.9830   28.8340   11.1710 O.3   2001  SLU2001    -0.0508
     21  O19       14.9450   27.8890   13.1410 O.3   2001  SLU2001    -0.0508
     22  O20       16.4160   28.9190   11.6020 O.3   2001  SLU2001    -0.2230
     23  C21       16.8620   29.1850   10.2720 C.3   2001  SLU2001     0.2064
     24  C22       18.2020   29.8640   10.3760 C.3   2001  SLU2001     0.1842
     25  C23       18.8060   30.1750    9.0180 C.3   2001  SLU2001     0.2185
     26  O27       18.2180   31.3540    8.4460 O.3   2001  SLU2001    -0.2174
     27  C24       20.2780   30.3150    9.3770 C.3   2001  SLU2001     0.2570
     28  O28       20.5220   31.6000    9.9730 O.3   2001  SLU2001    -0.2130
     29  C25       20.4520   29.2630   10.4630 C.3   2001  SLU2001     0.3186
     30  O26       19.1600   29.0000   11.0000 O.3   2001  SLU2001    -0.3135
     31  N35       20.9690   27.9850    9.8960 N.pl3 2001  SLU2001    -0.1439
     32  C32       22.2440   27.8230    9.5880 C.2   2001  SLU2001     0.3518
     33  N31       23.3060   28.6340    9.6400 N.2   2001  SLU2001    -0.0055
     34  C30       24.4860   28.1730    9.2330 C.3   2001  SLU2001     0.5254
     35  N29       24.6670   26.9290    8.7480 N.2   2001  SLU2001     0.0021
     36  C33       22.3620   26.4690    9.0960 C.2   2001  SLU2001     0.2526
     37  C34       23.6740   26.0260    8.6530 C.2   2001  SLU2001     0.4393
     38  N38       23.8740   24.7800    8.1750 N.pl3 2001  SLU2001     0.2180
     39  N37       21.1540   25.9020    9.1210 N.2   2001  SLU2001    -0.2095
     40  C36       20.3180   26.8220    9.6290 C.3   2001  SLU2001     0.3377
@<TRIPOS>BOND
     1    17    16    1
     2    17    12    2
     3    16    14    1
     4    13    12    1
     5    12    11    1
     6    14    15    2
     7    14    10    1
     8    38    37    1
     9    11    10    2
    10    15     8    2
    11    10     9    1
    12    26    25    1
    13    37    35    2
    14    37    36    1
    15     8     9    1
    16     8     7    1
    17    35    34    1
    18     6     7    1
    19     6     5    1
    20    25    27    1
    21    25    24    1
    22    36    39    2
    23    36    32    1
    24    39    40    1
    25     7     4    2
    26    34    33    1
    27    27    28    1
    28    27    29    1
    29    32    33    2
    30    32    31    1
    31     5     3    1
    32    40    31    1
    33     4     3    2
    34    31    29    1
    35     3     2    1
    36    23    24    1
    37    23    22    1
    38    24    30    1
    39    29    30    1
    40     2    18   am
    41     2     1    2
    42    18    19    1
    43    20    19    1
    44    22    19    1
    45    19    21    1
