@<TRIPOS>MOLECULE
2d1t_SLU_A_1.pdb
 40 45 0 0 0
SMALL
GASTEIGER

@<TRIPOS>ATOM
      1  O39       17.2540   26.1150   11.4550 O.2   2001  SLU2001    -0.2642
      2  C16       16.1860   25.9380   10.8790 C.2   2001  SLU2001     0.3121
      3  C14       15.9940   24.7030   10.1160 C.2   2001  SLU2001     0.1772
      4  N15       17.0120   23.8520    9.8450 N.2   2001  SLU2001    -0.3912
      5  C13       14.7590   24.2840    9.6210 C.3   2001  SLU2001     0.1283
      6  S12       14.9010   22.7870    8.8150 S.3   2001  SLU2001    -0.0715
      7  C11       16.5700   22.8370    9.1340 C.2   2001  SLU2001     0.1928
      8  C8        17.5060   21.7460    8.6860 C.2   2001  SLU2001     0.1960
      9  S9        19.1920   21.8160    9.0260 S.3   2001  SLU2001    -0.0500
     10  C4        19.3200   20.2670    8.4030 C.2   2001  SLU2001     0.0608
     11  C5        20.4660   19.4630    8.2790 C.2   2001  SLU2001     0.0505
     12  C6        20.3450   18.1630    7.7250 C.2   2001  SLU2001     0.1925
     13  O10       21.4490   17.3710    7.5840 O.2   2001  SLU2001    -0.2869
     14  C3        18.0080   19.6970    8.0130 C.2   2001  SLU2001     0.1203
     15  N7        17.0220   20.5800    8.2700 N.2   2001  SLU2001    -0.3957
     16  C2        17.9530   18.4240    7.4670 C.3   2001  SLU2001     0.0888
     17  C1        19.1020   17.6460    7.3350 C.2   2001  SLU2001     0.0234
     18  N40       15.1110   26.7120   10.9130 N.am  2001  SLU2001    -0.0529
     19  S17       15.0150   28.0510   11.7860 S.3   2001  SLU2001     0.0855
     20  O18       13.9340   28.8400   11.2220 O.3   2001  SLU2001    -0.0508
     21  O19       14.8640   27.8760   13.1880 O.3   2001  SLU2001    -0.0508
     22  O20       16.3470   28.9160   11.6320 O.3   2001  SLU2001    -0.2230
     23  C21       16.7890   29.1480   10.2990 C.3   2001  SLU2001     0.2064
     24  C22       18.1320   29.8310   10.4250 C.3   2001  SLU2001     0.1842
     25  C23       18.7490   30.1430    9.0720 C.3   2001  SLU2001     0.2185
     26  O27       18.1510   31.3120    8.4880 O.3   2001  SLU2001    -0.2174
     27  C24       20.2270   30.2340    9.3820 C.3   2001  SLU2001     0.2570
     28  O28       20.4850   31.5040    9.9830 O.3   2001  SLU2001    -0.2130
     29  C25       20.3500   29.1740   10.4620 C.3   2001  SLU2001     0.3186
     30  O26       19.0640   28.9140   10.9810 O.3   2001  SLU2001    -0.3135
     31  N35       20.8870   27.9040    9.9190 N.pl3 2001  SLU2001    -0.1439
     32  C32       22.1620   27.7370    9.6150 C.2   2001  SLU2001     0.3518
     33  N31       23.2240   28.5500    9.6410 N.2   2001  SLU2001    -0.0055
     34  C30       24.3980   28.0800    9.2320 C.3   2001  SLU2001     0.5254
     35  N29       24.5760   26.8230    8.7840 N.2   2001  SLU2001     0.0021
     36  C33       22.2720   26.3780    9.1420 C.2   2001  SLU2001     0.2526
     37  C34       23.5870   25.9140    8.7110 C.2   2001  SLU2001     0.4393
     38  N38       23.7950   24.6620    8.2510 N.pl3 2001  SLU2001     0.2180
     39  N37       21.0710   25.7920    9.1850 N.2   2001  SLU2001    -0.2095
     40  C36       20.2430   26.7230    9.6780 C.3   2001  SLU2001     0.3377
@<TRIPOS>BOND
     1    17    16    1
     2    17    12    2
     3    16    14    1
     4    13    12    1
     5    12    11    1
     6    14    15    2
     7    14    10    1
     8    38    37    1
     9    15     8    2
    10    11    10    2
    11    10     9    1
    12    26    25    1
    13     8     9    1
    14     8     7    1
    15    37    35    2
    16    37    36    1
    17    35    34    1
    18     6     7    1
    19     6     5    1
    20    25    27    1
    21    25    24    1
    22     7     4    2
    23    36    39    2
    24    36    32    1
    25    39    40    1
    26    34    33    1
    27    27    28    1
    28    27    29    1
    29    32    33    2
    30    32    31    1
    31     5     3    1
    32    40    31    1
    33     4     3    2
    34    31    29    1
    35     3     2    1
    36    23    24    1
    37    23    22    1
    38    24    30    1
    39    29    30    1
    40     2    18   am
    41     2     1    2
    42    18    19    1
    43    20    19    1
    44    22    19    1
    45    19    21    1
