@<TRIPOS>MOLECULE
2d1y_NAD_A_1.pdb
 44 48 0 0 0
SMALL
GASTEIGER

@<TRIPOS>ATOM
      1  PA        13.9090   50.9870   87.4120 P.3   1001  NAD1001     0.2189
      2  O1A       12.4890   51.3220   87.4130 O.2   1001  NAD1001    -0.5170
      3  O2A       14.6480   51.7260   88.4490 O.3   1001  NAD1001    -0.4371
      4  O5B       14.2500   49.4430   87.7460 O.3   1001  NAD1001    -0.3112
      5  C5B       13.3980   48.3350   87.3410 C.3   1001  NAD1001     0.1813
      6  C4B       12.6720   47.7480   88.5360 C.3   1001  NAD1001     0.1821
      7  O4B       13.5290   46.7330   89.1280 O.3   1001  NAD1001    -0.3135
      8  C3B       12.3590   48.7230   89.7000 C.3   1001  NAD1001     0.2184
      9  O3B       10.9430   48.8620   89.9000 O.3   1001  NAD1001    -0.2174
     10  C2B       13.1320   48.0980   90.8800 C.3   1001  NAD1001     0.2570
     11  O2B       12.4680   48.2860   92.1550 O.3   1001  NAD1001    -0.2130
     12  C1B       13.2160   46.6430   90.4770 C.3   1001  NAD1001     0.3186
     13  N9A       14.2920   45.9640   91.1900 N.pl3 1001  NAD1001    -0.1439
     14  C8A       15.6290   46.3080   91.2830 C.3   1001  NAD1001     0.3377
     15  N7A       16.3660   45.4530   92.0410 N.2   1001  NAD1001    -0.2095
     16  C5A       15.4190   44.5110   92.4460 C.2   1001  NAD1001     0.2526
     17  C6A       15.5320   43.3270   93.2770 C.2   1001  NAD1001     0.4393
     18  N6A       16.6770   42.9310   93.8320 N.pl3 1001  NAD1001     0.2180
     19  N1A       14.3660   42.5990   93.4800 N.2   1001  NAD1001     0.0021
     20  C2A       13.1760   43.0210   92.8980 C.3   1001  NAD1001     0.5254
     21  N3A       12.9790   44.0860   92.1310 N.2   1001  NAD1001    -0.0055
     22  C4A       14.1330   44.8020   91.9320 C.2   1001  NAD1001     0.3518
     23  O3        14.5180   51.1940   85.9860 O.3   1001  NAD1001    -0.2703
     24  PN        13.9360   51.2960   84.4890 P.3   1001  NAD1001     0.2189
     25  O1N       14.3920   52.6030   83.9420 O.2   1001  NAD1001    -0.5170
     26  O2N       12.4690   51.1490   84.5390 O.3   1001  NAD1001    -0.4371
     27  O5D       14.7050   50.1540   83.7080 O.3   1001  NAD1001    -0.3112
     28  C5D       14.1450   48.8250   83.6500 C.3   1001  NAD1001     0.1813
     29  C4D       15.0850   47.9630   82.8320 C.3   1001  NAD1001     0.1799
     30  O4D       15.4130   48.6660   81.5910 O.3   1001  NAD1001    -0.3327
     31  C3D       16.4080   47.6280   83.5170 C.3   1001  NAD1001     0.2158
     32  O3D       16.8670   46.2890   83.2570 O.3   1001  NAD1001    -0.2175
     33  C2D       17.3280   48.7070   82.9430 C.3   1001  NAD1001     0.2309
     34  O2D       18.7080   48.3100   83.1140 O.3   1001  NAD1001    -0.2158
     35  C1D       16.8180   48.7570   81.5110 C.3   1001  NAD1001     0.2263
     36  N1N       17.2120   49.9790   80.7570 N.pl3 1001  NAD1001    -0.2787
     37  C2N       16.5890   51.1760   81.1380 C.3   1001  NAD1001     0.1244
     38  C3N       16.9620   52.3200   80.4310 C.2   1001  NAD1001     0.0544
     39  C7N       16.3680   53.6940   80.7300 C.2   1001  NAD1001     0.2818
     40  O7N       16.7520   54.6560   80.0750 O.2   1001  NAD1001    -0.2670
     41  N7N       15.4470   53.8300   81.6940 N.am  1001  NAD1001    -0.0839
     42  C4N       17.9420   52.2660   79.3550 C.2   1001  NAD1001     0.0033
     43  C5N       18.4870   50.9840   79.0790 C.2   1001  NAD1001     0.0157
     44  C6N       18.1750   49.8170   79.7280 C.2   1001  NAD1001     0.0633
@<TRIPOS>BOND
     1    43    42    1
     2    43    44    2
     3    42    38    2
     4    44    36    1
     5    40    39    2
     6    38    39    1
     7    38    37    1
     8    39    41   am
     9    36    37    1
    10    36    35    1
    11    35    30    1
    12    35    33    1
    13    30    29    1
    14    29    31    1
    15    29    28    1
    16    33    34    1
    17    33    31    1
    18    32    31    1
    19    28    27    1
    20    27    24    1
    21    25    24    2
    22    24    26    1
    23    24    23    1
    24    23     1    1
    25     5     4    1
    26     5     6    1
    27     1     2    2
    28     1     4    1
    29     1     3    1
    30     6     7    1
    31     6     8    1
    32     7    12    1
    33     8     9    1
    34     8    10    1
    35    12    10    1
    36    12    13    1
    37    10    11    1
    38    13    14    1
    39    13    22    1
    40    14    15    1
    41    22    21    2
    42    22    16    1
    43    15    16    2
    44    21    20    1
    45    16    17    1
    46    20    19    1
    47    17    19    2
    48    17    18    1
