@<TRIPOS>MOLECULE
2d20_XYS_B_2.pdb
 10 10 0 0 0
SMALL
GASTEIGER

@<TRIPOS>ATOM
      1  C1        33.0690   32.0000   95.9410 C.3   952  XYS952      0.3024
      2  C2        34.3800   31.6640   96.7170 C.3   952  XYS952      0.2434
      3  C3        35.6250   31.6190   95.7810 C.3   952  XYS952      0.2199
      4  C4        35.1210   31.0320   94.5180 C.3   952  XYS952      0.2143
      5  C5        34.1990   32.1370   93.8900 C.3   952  XYS952      0.1804
      6  O1        32.4920   30.8570   95.3970 O.3   952  XYS952     -0.1869
      7  O2        34.6050   32.6200   97.7410 O.3   952  XYS952     -0.2148
      8  O3        36.6210   30.7860   96.3560 O.3   952  XYS952     -0.2174
      9  O4        36.2270   30.7630   93.6370 O.3   952  XYS952     -0.2176
     10  O5        33.4250   32.8640   94.9020 O.3   952  XYS952     -0.3237
@<TRIPOS>BOND
     1     9     4    1
     2     5     4    1
     3     5    10    1
     4     4     3    1
     5    10     1    1
     6     6     1    1
     7     3     8    1
     8     3     2    1
     9     1     2    1
    10     2     7    1
