@<TRIPOS>MOLECULE
2d20_NPO_A_1.pdb
 10 10 0 0 0
SMALL
GASTEIGER

@<TRIPOS>ATOM
      1  C1        38.6350   35.7200   52.2550 C.ar  453  NPO453      0.1431
      2  C2        39.4300   34.5850   52.4530 C.ar  453  NPO453      0.0274
      3  C3        39.0320   33.3420   51.9370 C.ar  453  NPO453      0.0437
      4  C4        37.8450   33.2320   51.2220 C.ar  453  NPO453      0.1958
      5  C5        37.0490   34.3640   51.0200 C.ar  453  NPO453      0.0437
      6  C6        37.4440   35.6030   51.5360 C.ar  453  NPO453      0.0274
      7  OH        37.4610   31.9780   50.6980 O.3   453  NPO453     -0.2866
      8  N1        39.0510   37.0370   52.8060 N.pl3 453  NPO453      0.0577
      9  O2        40.1140   37.0870   53.4380 O.2   453  NPO453     -0.1261
     10  O3        38.3070   38.0060   52.6060 O.2   453  NPO453     -0.1261
@<TRIPOS>BOND
     1     7     4    1
     2     5     4   ar
     3     5     6   ar
     4     4     3   ar
     5     6     1   ar
     6     3     2   ar
     7     1     2   ar
     8     1     8    1
     9    10     8    2
    10     8     9    2
