@<TRIPOS>MOLECULE
2d24_XYS_A_1.pdb
 10 10 0 0 0
SMALL
GASTEIGER

@<TRIPOS>ATOM
      1  C1        40.3530   47.1770   50.5080 C.3   455  XYS455      0.3024
      2  C2        40.4740   46.0110   49.5240 C.3   455  XYS455      0.2434
      3  C3        39.3310   45.0280   49.7760 C.3   455  XYS455      0.2199
      4  C4        39.4270   44.5400   51.2240 C.3   455  XYS455      0.2143
      5  C5        39.3460   45.7580   52.1540 C.3   455  XYS455      0.1804
      6  O1        41.4060   48.0580   50.3230 O.3   455  XYS455     -0.1869
      7  O2        40.4010   46.5020   48.1920 O.3   455  XYS455     -0.2148
      8  O3        39.4630   43.9290   48.8870 O.3   455  XYS455     -0.2174
      9  O4        38.3270   43.6530   51.5260 O.3   455  XYS455     -0.2176
     10  O5        40.4120   46.6900   51.8590 O.3   455  XYS455     -0.3237
@<TRIPOS>BOND
     1     7     2    1
     2     8     3    1
     3     2     3    1
     4     2     1    1
     5     3     4    1
     6     6     1    1
     7     1    10    1
     8     4     9    1
     9     4     5    1
    10    10     5    1
