@<TRIPOS>MOLECULE
2d2c_BNT_B_1.pdb
 14 14 0 0 0
SMALL
GASTEIGER

@<TRIPOS>ATOM
      1  CAA       78.4020  -18.3550   75.3470 C.3   309  BNT309      0.0048
      2  CAD       78.4140  -19.3020   74.1460 C.3   309  BNT309      0.0261
      3  CAC       78.9370  -18.5730   72.9080 C.3   309  BNT309      0.0048
      4  CAE       77.1920  -19.9870   74.0810 C.2   309  BNT309      0.0262
      5  CAF       76.0680  -19.3370   73.5790 C.2   309  BNT309      0.1981
      6  OAB       76.1780  -18.1580   73.2240 O.2   309  BNT309     -0.2864
      7  CAG       74.8270  -19.9640   73.4410 C.2   309  BNT309      0.0722
      8 BRAH       73.3600  -18.9740   72.8100 Br    309  BNT309     -0.0459
      9  CAL       74.6730  -21.3030   73.7960 C.2   309  BNT309      0.0269
     10  CAM       73.4440  -21.9450   73.6810 C.3   309  BNT309      0.0350
     11  CAK       75.7520  -22.0300   74.3010 C.2   309  BNT309      0.1982
     12  OAN       75.6150  -23.2170   74.5710 O.2   309  BNT309     -0.2864
     13  CAJ       77.1080  -21.3210   74.4730 C.2   309  BNT309      0.0722
     14 BRAI       78.5240  -22.2390   75.3040 Br    309  BNT309     -0.0459
@<TRIPOS>BOND
     1     8     7    1
     2     3     2    1
     3     6     5    2
     4     7     5    1
     5     7     9    2
     6     5     4    1
     7    10     9    1
     8     9    11    1
     9     4     2    1
    10     4    13    2
    11     2     1    1
    12    11    13    1
    13    11    12    2
    14    13    14    1
