@<TRIPOS>MOLECULE
2d2c_HEC_A_1.pdb
 43 50 0 0 0
SMALL
GASTEIGER

@<TRIPOS>ATOM
      1 FE         73.3120   16.0230   80.7340 Fe    303  HEC303      0.0000
      2  CHA       74.9730   18.0160   83.0440 C.2   303  HEC303      0.0000
      3  CHB       74.1980   18.1010   78.2250 C.2   303  HEC303      0.0000
      4  CHC       71.5740   14.0560   78.5030 C.2   303  HEC303      0.0000
      5  CHD       72.1340   14.1460   83.3280 C.2   303  HEC303      0.0000
      6  NA        74.4100   17.6920   80.6550 N.ar  303  HEC303      0.0000
      7  C1A       75.0390   18.3990   81.6790 C.ar  303  HEC303      0.0000
      8  C2A       75.7380   19.5850   81.2150 C.ar  303  HEC303      0.0000
      9  C3A       75.5650   19.6170   79.8610 C.ar  303  HEC303      0.0000
     10  C4A       74.6970   18.4420   79.5120 C.ar  303  HEC303      0.0000
     11  CMA       76.0810   20.6280   78.8470 C.3   303  HEC303      0.0000
     12  CAA       76.4870   20.5970   82.1500 C.3   303  HEC303      0.0000
     13  CBA       76.1420   22.0740   81.8760 C.3   303  HEC303      0.0000
     14  CGA       76.6020   23.2030   82.7810 C.2   303  HEC303      0.0000
     15  O1A       77.2280   23.0170   83.8700 O.co2 303  HEC303      0.0000
     16  O2A       76.2650   24.3650   82.3410 O.co2 303  HEC303      0.0000
     17  NB        72.9770   16.0710   78.7670 N.2   303  HEC303      0.0000
     18  C1B       73.4180   17.0490   77.8390 C.2   303  HEC303      0.0000
     19  C2B       72.9520   16.7720   76.5240 C.2   303  HEC303      0.0000
     20  C3B       72.2310   15.6470   76.5830 C.2   303  HEC303      0.0000
     21  C4B       72.2400   15.1880   77.9960 C.2   303  HEC303      0.0000
     22  CMB       73.2450   17.6520   75.3120 C.3   303  HEC303      0.0000
     23  CAB       71.4830   14.9240   75.4390 C.3   303  HEC303      0.0000
     24  CBB       70.0650   15.5450   75.1510 C.3   303  HEC303      0.0000
     25  NC        72.1080   14.3710   80.8580 N.ar  303  HEC303      0.0000
     26  C1C       71.4890   13.6960   79.8560 C.ar  303  HEC303      0.0000
     27  C2C       70.6640   12.6350   80.3730 C.ar  303  HEC303      0.0000
     28  C3C       70.7860   12.6640   81.7330 C.ar  303  HEC303      0.0000
     29  C4C       71.7170   13.7400   82.0370 C.ar  303  HEC303      0.0000
     30  CMC       69.8060   11.7400   79.5140 C.3   303  HEC303      0.0000
     31  CAC       70.0960   11.8180   82.8220 C.3   303  HEC303      0.0000
     32  CBC       69.0680   12.5360   83.7570 C.3   303  HEC303      0.0000
     33  ND        73.5420   16.0600   82.7750 N.2   303  HEC303      0.0000
     34  C1D       72.9510   15.1670   83.6870 C.2   303  HEC303      0.0000
     35  C2D       73.3630   15.5580   85.0690 C.2   303  HEC303      0.0000
     36  C3D       74.1760   16.6250   84.9890 C.2   303  HEC303      0.0000
     37  C4D       74.2620   16.9420   83.5350 C.2   303  HEC303      0.0000
     38  CMD       72.8430   14.7470   86.3230 C.3   303  HEC303      0.0000
     39  CAD       74.8740   17.3870   86.0490 C.3   303  HEC303      0.0000
     40  CBD       73.9490   17.9970   87.1360 C.3   303  HEC303      0.0000
     41  CGD       74.6530   18.8690   88.1560 C.2   303  HEC303      0.0000
     42  O1D       75.8840   19.1290   88.0940 O.co2 303  HEC303      0.0000
     43  O2D       73.9010   19.3330   89.0710 O.co2 303  HEC303      0.0000
@<TRIPOS>BOND
     1    24    23    1
     2    22    19    1
     3    23    20    1
     4    19    20    2
     5    19    18    1
     6    20    21    1
     7    18     3    1
     8    18    17    2
     9    21     4    2
    10    21    17    1
    11     3    10    2
    12     4    26    1
    13    17     1    1
    14    11     9    1
    15    10     9   ar
    16    10     6   ar
    17    30    27    1
    18    26    27   ar
    19    26    25   ar
    20     9     8   ar
    21    27    28   ar
    22     6     1    1
    23     6     7   ar
    24     1    25    1
    25     1    33    1
    26    25    29   ar
    27     8     7   ar
    28     8    12    1
    29     7     2    2
    30    28    29   ar
    31    28    31    1
    32    13    12    1
    33    13    14    1
    34    29     5    1
    35    16    14   ar
    36    33    37    2
    37    33    34    1
    38    14    15   ar
    39    31    32    1
    40     2    37    1
    41     5    34    2
    42    37    36    1
    43    34    35    1
    44    36    35    2
    45    36    39    1
    46    35    38    1
    47    39    40    1
    48    40    41    1
    49    42    41   ar
    50    41    43   ar
