@<TRIPOS>MOLECULE
2d2c_HEM_A_1.pdb
 43 50 0 0 0
SMALL
GASTEIGER

@<TRIPOS>ATOM
      1 FE         77.1980   -6.4380   85.6200 Fe    301  HEM301      0.0000
      2  CHA       77.2360   -9.6730   84.6970 C.2   301  HEM301      0.0000
      3  CHB       78.6070   -5.6400   82.5900 C.2   301  HEM301      0.0000
      4  CHC       77.2450   -3.1170   86.4570 C.2   301  HEM301      0.0000
      5  CHD       75.8260   -7.2300   88.6030 C.2   301  HEM301      0.0000
      6  NA        77.8040   -7.4660   83.9660 N.ar  301  HEM301      0.0000
      7  C1A       77.7240   -8.8280   83.7850 C.ar  301  HEM301      0.0000
      8  C2A       78.2470   -9.2090   82.4320 C.ar  301  HEM301      0.0000
      9  C3A       78.6290   -8.0730   81.8640 C.ar  301  HEM301      0.0000
     10  C4A       78.3540   -6.9530   82.8210 C.ar  301  HEM301      0.0000
     11  CMA       79.2590   -7.6740   80.5010 C.3   301  HEM301      0.0000
     12  CAA       78.2550  -10.6780   81.9730 C.3   301  HEM301      0.0000
     13  CBA       76.8960  -11.0730   81.3420 C.3   301  HEM301      0.0000
     14  CGA       76.7430  -12.5120   80.8320 C.2   301  HEM301      0.0000
     15  O1A       76.5370  -12.6910   79.6280 O.co2 301  HEM301      0.0000
     16  O2A       76.8280  -13.5460   81.7440 O.co2 301  HEM301      0.0000
     17  NB        77.8140   -4.7340   84.6840 N.2   301  HEM301      0.0000
     18  C1B       78.3630   -4.6230   83.4400 C.2   301  HEM301      0.0000
     19  C2B       78.6550   -3.2610   83.1380 C.2   301  HEM301      0.0000
     20  C3B       78.2770   -2.5330   84.2240 C.2   301  HEM301      0.0000
     21  C4B       77.7480   -3.4580   85.1950 C.2   301  HEM301      0.0000
     22  CMB       79.2640   -2.7990   81.8390 C.3   301  HEM301      0.0000
     23  CAB       78.4650   -1.0700   84.1890 C.2   301  HEM301      0.0000
     24  CBB       77.5270   -0.1280   83.8990 C.2   301  HEM301      0.0000
     25  NC        76.6260   -5.3480   87.2620 N.ar  301  HEM301      0.0000
     26  C1C       76.7270   -3.9870   87.4150 C.ar  301  HEM301      0.0000
     27  C2C       76.1780   -3.5900   88.8190 C.ar  301  HEM301      0.0000
     28  C3C       75.7850   -4.7540   89.4080 C.ar  301  HEM301      0.0000
     29  C4C       76.0740   -5.8830   88.4030 C.ar  301  HEM301      0.0000
     30  CMC       76.1210   -2.1800   89.3620 C.3   301  HEM301      0.0000
     31  CAC       75.1690   -4.9440   90.8110 C.2   301  HEM301      0.0000
     32  CBC       75.7080   -5.6170   91.8190 C.2   301  HEM301      0.0000
     33  ND        76.6380   -8.1470   86.4810 N.2   301  HEM301      0.0000
     34  C1D       76.0910   -8.2750   87.7060 C.2   301  HEM301      0.0000
     35  C2D       75.8210   -9.6760   87.9540 C.2   301  HEM301      0.0000
     36  C3D       76.2240  -10.3670   86.8520 C.2   301  HEM301      0.0000
     37  C4D       76.7390   -9.3490   85.9330 C.2   301  HEM301      0.0000
     38  CMD       75.2000  -10.2530   89.2300 C.3   301  HEM301      0.0000
     39  CAD       76.2620  -11.7440   86.4100 C.3   301  HEM301      0.0000
     40  CBD       75.0820  -12.0600   85.4710 C.3   301  HEM301      0.0000
     41  CGD       75.2010  -13.4780   84.9830 C.2   301  HEM301      0.0000
     42  O1D       74.9380  -13.7090   83.7660 O.co2 301  HEM301      0.0000
     43  O2D       75.5780  -14.3500   85.8220 O.co2 301  HEM301      0.0000
@<TRIPOS>BOND
     1    15    14   ar
     2    11     9    1
     3    14    13    1
     4    14    16   ar
     5    13    12    1
     6    22    19    1
     7     9     8   ar
     8     9    10   ar
     9    12     8    1
    10     8     7   ar
    11     3    10    2
    12     3    18    1
    13    10     6   ar
    14    19    18    1
    15    19    20    2
    16    18    17    2
    17    42    41   ar
    18     7     6   ar
    19     7     2    2
    20    24    23    2
    21     6     1    1
    22    23    20    1
    23    20    21    1
    24    17    21    1
    25    17     1    1
    26     2    37    1
    27    41    40    1
    28    41    43   ar
    29    21     4    2
    30    40    39    1
    31     1    33    1
    32     1    25    1
    33    37    33    2
    34    37    36    1
    35    39    36    1
    36     4    26    1
    37    33    34    1
    38    36    35    2
    39    25    26   ar
    40    25    29   ar
    41    26    27   ar
    42    34    35    1
    43    34     5    2
    44    35    38    1
    45    29     5    1
    46    29    28   ar
    47    27    30    1
    48    27    28   ar
    49    28    31    1
    50    31    32    2
