@<TRIPOS>MOLECULE
2d2d_ENB_A_1.pdb
 40 41 0 0 0
SMALL
GASTEIGER

@<TRIPOS>ATOM
      1  C1        92.5150   -2.8840    7.4420 C.3   307  ENB307      0.0970
      2  C2        92.3570   -1.8090    8.5520 C.3   307  ENB307      0.0333
      3  N1        93.4420   -1.8980    6.9290 N.am  307  ENB307     -0.2054
      4  C3        93.3880   -2.0980    5.3900 C.2   307  ENB307      0.2654
      5  C4        94.4750   -2.4820    4.7340 C.3   307  ENB307      0.1949
      6  O1        92.3620   -2.1420    4.6200 O.2   307  ENB307     -0.2711
      7  N2        94.2340   -3.2660    3.5220 N.am  307  ENB307     -0.1918
      8  C5        95.4850   -1.3800    4.5290 C.ar  307  ENB307      0.0062
      9  C6        95.6110   -0.7300    3.2970 C.ar  307  ENB307     -0.0021
     10  C7        96.5290    0.3100    3.1300 C.ar  307  ENB307     -0.0003
     11  C8        97.3250    0.7200    4.1990 C.ar  307  ENB307     -0.0000
     12  C9        97.1990    0.0880    5.4370 C.ar  307  ENB307     -0.0003
     13  C10       96.2850   -0.9550    5.5970 C.ar  307  ENB307     -0.0021
     14  C11       95.0440   -4.3080    3.1720 C.2   307  ENB307      0.2620
     15  C12       94.8010   -4.8780    1.7810 C.3   307  ENB307      0.1761
     16  O2        95.8810   -4.7830    3.9030 O.2   307  ENB307     -0.2715
     17  N3        95.9810   -5.6900    1.4650 N.am  307  ENB307     -0.1611
     18  C13       96.5280   -5.7480    0.2140 C.2   307  ENB307      0.4213
     19  O3        97.5640   -6.6110    0.0580 O.3   307  ENB307     -0.4408
     20  O4        96.0350   -5.1410   -0.7090 O.2   307  ENB307     -0.2246
     21  C14       97.8700   -7.1620   -1.2160 C.3   307  ENB307      0.1379
     22  C15       91.7740   -4.2160    7.7200 C.3   307  ENB307      0.0383
     23  C16       91.5650   -5.1160    6.5810 C.3   307  ENB307      0.1100
     24  C17       90.0510   -4.8310    6.4030 C.3   307  ENB307      0.0438
     25  C18       89.3910   -6.1740    6.0220 C.3   307  ENB307      0.1387
     26  N4        90.3230   -7.1280    6.6050 N.2   307  ENB307     -0.2063
     27  C19       91.5300   -6.6000    6.9170 C.1   307  ENB307      0.1250
     28  O5        92.4220   -7.2680    7.3800 O.2   307  ENB307     -0.2271
     29  C20       93.5110   -5.7320    1.7510 C.3   307  ENB307      0.0291
     30  C21       93.2780   -6.3640    0.3670 C.3   307  ENB307      0.0023
     31  C22       92.2610   -4.9310    2.1570 C.3   307  ENB307      0.0023
     32  C23       98.4570   -6.0980   -2.1500 C.3   307  ENB307      0.0437
     33  C24       98.9390   -8.2380   -0.9620 C.3   307  ENB307      0.0437
     34  C25       96.6380   -7.8300   -1.8390 C.3   307  ENB307      0.0437
     35  C26       92.3650   -0.3530    8.0350 C.3   307  ENB307      0.1113
     36  C27       91.4170    0.5880    8.7660 C.2   307  ENB307      0.3170
     37  O6        90.8820    1.4970    7.9060 O.3   307  ENB307     -0.4485
     38  O7        91.1430    0.5160    9.9420 O.2   307  ENB307     -0.2501
     39  C28       89.7710    2.2300    8.3870 C.3   307  ENB307      0.2086
     40  C29       89.3150    3.2040    7.3050 C.3   307  ENB307      0.0513
@<TRIPOS>BOND
     1    32    21    1
     2    34    21    1
     3    21    33    1
     4    21    19    1
     5    20    18    2
     6    19    18    1
     7    18    17   am
     8    30    29    1
     9    17    15    1
    10    29    15    1
    11    29    31    1
    12    15    14    1
    13    10     9   ar
    14    10    11   ar
    15    14     7   am
    16    14    16    2
    17     9     8   ar
    18     7     5    1
    19    11    12   ar
    20     8     5    1
    21     8    13   ar
    22     6     4    2
    23     5     4    1
    24     4     3   am
    25    12    13   ar
    26    25    24    1
    27    25    26    1
    28    24    23    1
    29    23    27    1
    30    23    22    1
    31    26    27    2
    32    27    28    2
    33     3     1    1
    34    40    39    1
    35     1    22    1
    36     1     2    1
    37    37    39    1
    38    37    36    1
    39    35     2    1
    40    35    36    1
    41    36    38    2
