@<TRIPOS>MOLECULE
2d2f_ADP_A_1.pdb
 27 29 0 0 0
SMALL
GASTEIGER

@<TRIPOS>ATOM
      1  PB        18.4780   60.2310   38.1520 P.3   737  ADP737      0.5373
      2  O1B       19.6640   61.0090   37.7000 O.3   737  ADP737     -0.1143
      3  O2B       17.6570   60.9240   39.2070 O.3   737  ADP737     -0.1143
      4  O3B       17.6230   59.7690   36.9230 O.2   737  ADP737     -0.2221
      5  PA        18.9680   57.4380   38.4750 P.3   737  ADP737      0.2231
      6  O1A       17.5350   57.0430   38.6990 O.3   737  ADP737     -0.4370
      7  O2A       19.4900   57.2290   37.0610 O.2   737  ADP737     -0.5169
      8  O3A       19.0910   58.9350   38.8830 O.3   737  ADP737     -0.2261
      9  O5'       19.7630   56.5610   39.5670 O.3   737  ADP737     -0.3111
     10  C5'       19.9700   57.0000   40.9350 C.3   737  ADP737      0.1813
     11  C4'       21.0730   56.2170   41.6820 C.3   737  ADP737      0.1821
     12  O4'       20.7480   54.8100   41.6010 O.3   737  ADP737     -0.3135
     13  C3'       22.5230   56.2660   41.1270 C.3   737  ADP737      0.2184
     14  O3'       23.1760   57.4870   41.5620 O.3   737  ADP737     -0.2174
     15  C2'       23.1200   54.9780   41.6810 C.3   737  ADP737      0.2570
     16  O2'       23.7260   55.1530   42.9770 O.3   737  ADP737     -0.2130
     17  C1'       21.9210   54.0150   41.7750 C.3   737  ADP737      0.3186
     18  N9        22.0130   52.9920   40.7120 N.pl3 737  ADP737     -0.1439
     19  C8        21.6550   53.1220   39.4040 C.3   737  ADP737      0.3377
     20  N7        21.8650   52.0110   38.6960 N.2   737  ADP737     -0.2095
     21  C5        22.3800   51.1420   39.6080 C.2   737  ADP737      0.2526
     22  C6        22.8160   49.7700   39.4690 C.2   737  ADP737      0.4393
     23  N6        22.7930   49.0770   38.3910 N.pl3 737  ADP737      0.2180
     24  N1        23.2930   49.2030   40.6460 N.2   737  ADP737      0.0021
     25  C2        23.3540   49.8910   41.8670 C.3   737  ADP737      0.5254
     26  N3        22.9540   51.1640   42.0090 N.2   737  ADP737     -0.0055
     27  C4        22.4820   51.7360   40.8670 C.2   737  ADP737      0.3518
@<TRIPOS>BOND
     1     4     1    2
     2     7     5    2
     3     2     1    1
     4     1     8    1
     5     1     3    1
     6    23    22    1
     7     5     6    1
     8     5     8    1
     9     5     9    1
    10    20    19    1
    11    20    21    2
    12    19    18    1
    13    22    21    1
    14    22    24    2
    15     9    10    1
    16    21    27    1
    17    24    25    1
    18    18    27    1
    19    18    17    1
    20    27    26    2
    21    10    11    1
    22    13    14    1
    23    13    15    1
    24    13    11    1
    25    12    11    1
    26    12    17    1
    27    15    17    1
    28    15    16    1
    29    25    26    1
