@<TRIPOS>MOLECULE
2d2i_NAP_A_1.pdb
 48 52 0 0 0
SMALL
GASTEIGER

@<TRIPOS>ATOM
      1  PA       -18.7560   43.7870    0.0010 P.3   1341  NAP1341     0.2189
      2  O1A      -19.3320   44.9440   -0.4850 O.3   1341  NAP1341    -0.4371
      3  O2A      -17.5140   43.0820   -0.4950 O.2   1341  NAP1341    -0.5170
      4  O5B      -19.8330   42.6260    0.0200 O.3   1341  NAP1341    -0.3112
      5  C5B      -21.2710   42.8320   -0.0190 C.3   1341  NAP1341     0.1813
      6  C4B      -21.6310   42.0730   -1.3490 C.3   1341  NAP1341     0.1820
      7  O4B      -23.1170   42.0790   -1.4570 O.3   1341  NAP1341    -0.3136
      8  C3B      -21.2260   42.7860   -2.7060 C.3   1341  NAP1341     0.2157
      9  O3B      -20.9080   41.7340   -3.6270 O.3   1341  NAP1341    -0.2175
     10  C2B      -22.4880   43.5710   -3.1000 C.3   1341  NAP1341     0.2314
     11  O2B      -22.6500   43.9070   -4.4820 O.3   1341  NAP1341    -0.2630
     12  C1B      -23.5770   42.6060   -2.6890 C.3   1341  NAP1341     0.3158
     13  N9A      -24.8550   43.2530   -2.5350 N.pl3 1341  NAP1341    -0.1439
     14  C8A      -25.2170   44.5210   -2.0890 C.3   1341  NAP1341     0.3377
     15  N7A      -26.5180   44.7270   -2.0720 N.2   1341  NAP1341    -0.2095
     16  C5A      -27.0240   43.5040   -2.5500 C.2   1341  NAP1341     0.2526
     17  C6A      -28.3590   43.0920   -2.7360 C.2   1341  NAP1341     0.4393
     18  N6A      -29.4560   43.8330   -2.5150 N.pl3 1341  NAP1341     0.2180
     19  N1A      -28.5730   41.7800   -3.2240 N.2   1341  NAP1341     0.0021
     20  C2A      -27.4980   40.9290   -3.4880 C.3   1341  NAP1341     0.5254
     21  N3A      -26.1730   41.3120   -3.3040 N.2   1341  NAP1341    -0.0055
     22  C4A      -25.9950   42.6000   -2.8190 C.2   1341  NAP1341     0.3518
     23  O3       -18.4720   44.0490    1.5160 O.3   1341  NAP1341    -0.2703
     24  PN       -18.0670   43.1820    2.7560 P.3   1341  NAP1341     0.2189
     25  O1N      -16.9170   43.7890    3.4190 O.3   1341  NAP1341    -0.4371
     26  O2N      -17.9070   41.7680    2.2990 O.2   1341  NAP1341    -0.5170
     27  O5D      -19.3050   43.4380    3.7220 O.3   1341  NAP1341    -0.3112
     28  C5D      -20.4650   42.5330    3.7620 C.3   1341  NAP1341     0.1813
     29  C4D      -21.0050   42.5320    5.1800 C.3   1341  NAP1341     0.1799
     30  O4D      -20.0370   41.9200    6.0590 O.3   1341  NAP1341    -0.3327
     31  C3D      -21.3070   43.9400    5.8440 C.3   1341  NAP1341     0.2158
     32  O3D      -22.5400   43.9370    6.6040 O.3   1341  NAP1341    -0.2175
     33  C2D      -20.0770   44.1850    6.7140 C.3   1341  NAP1341     0.2309
     34  O2D      -20.2430   45.1420    7.7740 O.3   1341  NAP1341    -0.2158
     35  C1D      -19.7900   42.8160    7.2070 C.3   1341  NAP1341     0.2263
     36  N1N      -18.4010   42.5790    7.6300 N.pl3 1341  NAP1341    -0.2787
     37  C2N      -17.2550   42.8880    6.8340 C.3   1341  NAP1341     0.1244
     38  C3N      -15.9960   42.6480    7.3840 C.2   1341  NAP1341     0.0544
     39  C7N      -14.7700   43.0030    6.5730 C.2   1341  NAP1341     0.2818
     40  O7N      -13.7170   42.8440    7.1230 O.2   1341  NAP1341    -0.2670
     41  N7N      -14.8630   43.4870    5.3740 N.am  1341  NAP1341    -0.0839
     42  C4N      -15.8370   42.0920    8.7370 C.2   1341  NAP1341     0.0033
     43  C5N      -17.0210   41.7890    9.4900 C.2   1341  NAP1341     0.0157
     44  C6N      -18.3130   42.0330    8.9520 C.2   1341  NAP1341     0.0633
     45  P2B      -22.0460   45.2410   -5.2050 P.3   1341  NAP1341     0.5328
     46  O1X      -23.1170   46.3400   -5.1190 O.3   1341  NAP1341    -0.1145
     47  O2X      -20.8300   45.4410   -4.3530 O.3   1341  NAP1341    -0.1145
     48  O3X      -21.7880   44.8820   -6.6460 O.2   1341  NAP1341    -0.2224
@<TRIPOS>BOND
     1    48    45    2
     2    45    46    1
     3    45    11    1
     4    45    47    1
     5    11    10    1
     6     9     8    1
     7    20    21    1
     8    20    19    1
     9    21    22    2
    10    19    17    2
    11    10     8    1
    12    10    12    1
    13    22    16    1
    14    22    13    1
    15    17    16    1
    16    17    18    1
    17     8     6    1
    18    12    13    1
    19    12     7    1
    20    16    15    2
    21    13    14    1
    22    14    15    1
    23     7     6    1
    24     6     5    1
    25     3     1    2
    26     2     1    1
    27     5     4    1
    28     1     4    1
    29     1    23    1
    30    23    24    1
    31    26    24    2
    32    24    25    1
    33    24    27    1
    34    27    28    1
    35    28    29    1
    36    29    31    1
    37    29    30    1
    38    41    39   am
    39    31    32    1
    40    31    33    1
    41    30    35    1
    42    39    40    2
    43    39    38    1
    44    33    35    1
    45    33    34    1
    46    37    38    1
    47    37    36    1
    48    35    36    1
    49    38    42    2
    50    36    44    1
    51    42    43    1
    52    44    43    2
