@<TRIPOS>MOLECULE
2d2m_HEM_A_1.pdb
 43 50 0 0 0
SMALL
GASTEIGER

@<TRIPOS>ATOM
      1 FE          4.3090   47.3720  133.6870 Fe    200  HEM200      0.0000
      2  CHA        1.0620   48.1790  133.2420 C.2   200  HEM200      0.0000
      3  CHB        4.1430   45.1500  131.0690 C.2   200  HEM200      0.0000
      4  CHC        7.6650   46.7570  133.9670 C.2   200  HEM200      0.0000
      5  CHD        4.3920   48.9900  136.6900 C.2   200  HEM200      0.0000
      6  NA         2.8790   46.8290  132.3410 N.ar  200  HEM200      0.0000
      7  C1A        1.5900   47.2800  132.3280 C.ar  200  HEM200      0.0000
      8  C2A        0.8770   46.6590  131.2120 C.ar  200  HEM200      0.0000
      9  C3A        1.7820   45.8850  130.5430 C.ar  200  HEM200      0.0000
     10  C4A        3.0080   45.9270  131.3210 C.ar  200  HEM200      0.0000
     11  CMA        1.5970   45.1180  129.2580 C.3   200  HEM200      0.0000
     12  CAA       -0.5810   46.8520  130.8990 C.3   200  HEM200      0.0000
     13  CBA       -0.7800   47.9740  129.9020 C.3   200  HEM200      0.0000
     14  CGA       -2.1240   47.9780  129.2110 C.2   200  HEM200      0.0000
     15  O1A       -2.3820   47.0530  128.3870 O.co2 200  HEM200      0.0000
     16  O2A       -2.9270   48.9100  129.5030 O.co2 200  HEM200      0.0000
     17  NB         5.6660   46.1460  132.7020 N.2   200  HEM200      0.0000
     18  C1B        5.3990   45.3270  131.6270 C.2   200  HEM200      0.0000
     19  C2B        6.6350   44.6930  131.1690 C.2   200  HEM200      0.0000
     20  C3B        7.5860   45.0240  132.0960 C.2   200  HEM200      0.0000
     21  C4B        6.9980   46.0190  132.9770 C.2   200  HEM200      0.0000
     22  CMB        6.7850   43.8570  129.9230 C.3   200  HEM200      0.0000
     23  CAB        8.9630   44.4980  132.2510 C.2   200  HEM200      0.0000
     24  CBB       10.0800   44.9980  131.7460 C.2   200  HEM200      0.0000
     25  NC         5.7650   47.7120  135.1440 N.ar  200  HEM200      0.0000
     26  C1C        7.0760   47.3310  135.0820 C.ar  200  HEM200      0.0000
     27  C2C        7.7270   47.6080  136.3560 C.ar  200  HEM200      0.0000
     28  C3C        6.7590   48.1410  137.1760 C.ar  200  HEM200      0.0000
     29  C4C        5.5600   48.3170  136.3390 C.ar  200  HEM200      0.0000
     30  CMC        9.1900   47.3380  136.6400 C.3   200  HEM200      0.0000
     31  CAC        6.8510   48.5020  138.6110 C.2   200  HEM200      0.0000
     32  CBC        7.2280   47.7130  139.6230 C.2   200  HEM200      0.0000
     33  ND         2.9420   48.3920  134.7790 N.2   200  HEM200      0.0000
     34  C1D        3.1660   48.9850  136.0030 C.2   200  HEM200      0.0000
     35  C2D        1.9430   49.6060  136.4640 C.2   200  HEM200      0.0000
     36  C3D        1.0240   49.4630  135.4350 C.2   200  HEM200      0.0000
     37  C4D        1.6540   48.6410  134.4200 C.2   200  HEM200      0.0000
     38  CMD        1.7530   50.2680  137.8030 C.3   200  HEM200      0.0000
     39  CAD       -0.3510   50.0560  135.3680 C.3   200  HEM200      0.0000
     40  CBD       -1.4480   49.0690  135.7910 C.3   200  HEM200      0.0000
     41  CGD       -2.5010   49.8360  136.5770 C.2   200  HEM200      0.0000
     42  O1D       -3.5810   50.1560  135.9980 O.co2 200  HEM200      0.0000
     43  O2D       -2.2240   50.1120  137.7890 O.co2 200  HEM200      0.0000
@<TRIPOS>BOND
     1    15    14   ar
     2    14    16   ar
     3    14    13    1
     4    11     9    1
     5    13    12    1
     6    22    19    1
     7     9     8   ar
     8     9    10   ar
     9    12     8    1
    10     3    10    2
    11     3    18    1
    12    19    18    1
    13    19    20    2
    14     8     7   ar
    15    10     6   ar
    16    18    17    2
    17    24    23    2
    18    20    23    1
    19    20    21    1
    20     7     6   ar
    21     7     2    2
    22     6     1    1
    23    17    21    1
    24    17     1    1
    25    21     4    2
    26     2    37    1
    27     1    33    1
    28     1    25    1
    29     4    26    1
    30    37    33    2
    31    37    36    1
    32    33    34    1
    33    26    25   ar
    34    26    27   ar
    35    25    29   ar
    36    39    36    1
    37    39    40    1
    38    36    35    2
    39    40    41    1
    40    42    41   ar
    41    34    35    1
    42    34     5    2
    43    29     5    1
    44    29    28   ar
    45    27    30    1
    46    27    28   ar
    47    35    38    1
    48    41    43   ar
    49    28    31    1
    50    31    32    2
