@<TRIPOS>MOLECULE
2d2n_HEM_A_1.pdb
 43 50 0 0 0
SMALL
GASTEIGER

@<TRIPOS>ATOM
      1  CHA        0.9000   48.2490  133.2610 C.2   200  HEM200      0.0000
      2  CHB        4.0140   45.2610  131.0830 C.2   200  HEM200      0.0000
      3  CHC        7.5060   46.7610  134.0890 C.2   200  HEM200      0.0000
      4  CHD        4.2140   49.0520  136.7480 C.2   200  HEM200      0.0000
      5  C1A        1.4600   47.4010  132.3120 C.ar  200  HEM200      0.0000
      6  C2A        0.7890   46.8500  131.1250 C.ar  200  HEM200      0.0000
      7  C3A        1.7380   46.1540  130.4320 C.ar  200  HEM200      0.0000
      8  C4A        2.9040   46.0820  131.2940 C.ar  200  HEM200      0.0000
      9  CMA        1.6500   45.5700  129.0490 C.3   200  HEM200      0.0000
     10  CAA       -0.6670   47.0310  130.7780 C.3   200  HEM200      0.0000
     11  CBA       -0.8560   48.1640  129.7910 C.3   200  HEM200      0.0000
     12  CGA       -2.1500   48.1400  128.9900 C.2   200  HEM200      0.0000
     13  O1A       -2.5020   47.0560  128.4160 O.co2 200  HEM200      0.0000
     14  O2A       -2.8190   49.2190  128.9300 O.co2 200  HEM200      0.0000
     15  C1B        5.2620   45.4190  131.6650 C.2   200  HEM200      0.0000
     16  C2B        6.5080   44.8060  131.2060 C.2   200  HEM200      0.0000
     17  C3B        7.4200   45.0520  132.1910 C.2   200  HEM200      0.0000
     18  C4B        6.8360   46.0460  133.0750 C.2   200  HEM200      0.0000
     19  CMB        6.7060   44.0630  129.9100 C.3   200  HEM200      0.0000
     20  CAB        8.7590   44.4460  132.3990 C.2   200  HEM200      0.0000
     21  CBB        9.9390   44.9330  132.0360 C.2   200  HEM200      0.0000
     22  C1C        6.9130   47.3540  135.1930 C.ar  200  HEM200      0.0000
     23  C2C        7.5520   47.6220  136.4750 C.ar  200  HEM200      0.0000
     24  C3C        6.6040   48.2450  137.2550 C.ar  200  HEM200      0.0000
     25  C4C        5.3940   48.3880  136.4120 C.ar  200  HEM200      0.0000
     26  CMC        8.9850   47.2520  136.8040 C.3   200  HEM200      0.0000
     27  CAC        6.7220   48.7190  138.6560 C.2   200  HEM200      0.0000
     28  CBC        7.0780   48.0090  139.7340 C.2   200  HEM200      0.0000
     29  C1D        2.9990   49.0720  136.0330 C.2   200  HEM200      0.0000
     30  C2D        1.7840   49.7370  136.4600 C.2   200  HEM200      0.0000
     31  C3D        0.8580   49.5580  135.4370 C.2   200  HEM200      0.0000
     32  C4D        1.4900   48.7220  134.4400 C.2   200  HEM200      0.0000
     33  CMD        1.6110   50.4770  137.7660 C.3   200  HEM200      0.0000
     34  CAD       -0.5220   50.1340  135.3600 C.3   200  HEM200      0.0000
     35  CBD       -1.6180   49.1350  135.7700 C.3   200  HEM200      0.0000
     36  CGD       -2.6990   49.8820  136.5620 C.2   200  HEM200      0.0000
     37  O1D       -3.7230   50.3340  135.9380 O.co2 200  HEM200      0.0000
     38  O2D       -2.5050   50.0030  137.8310 O.co2 200  HEM200      0.0000
     39  NA         2.7500   46.9410  132.3480 N.ar  200  HEM200      0.0000
     40  NB         5.5120   46.2030  132.7700 N.2   200  HEM200      0.0000
     41  NC         5.6010   47.7630  135.2300 N.ar  200  HEM200      0.0000
     42  ND         2.7790   48.4700  134.8140 N.2   200  HEM200      0.0000
     43 FE          4.1540   47.4440  133.7460 Fe    200  HEM200      0.0000
@<TRIPOS>BOND
     1    13    12   ar
     2    14    12   ar
     3    12    11    1
     4     9     7    1
     5    11    10    1
     6    19    16    1
     7     7     6   ar
     8     7     8   ar
     9    10     6    1
    10     2     8    2
    11     2    15    1
    12     6     5   ar
    13    16    15    1
    14    16    17    2
    15     8    39   ar
    16    15    40    2
    17    21    20    2
    18    17    20    1
    19    17    18    1
    20     5    39   ar
    21     5     1    2
    22    39    43    1
    23    40    18    1
    24    40    43    1
    25    18     3    2
    26     1    32    1
    27    43    42    1
    28    43    41    1
    29     3    22    1
    30    32    42    2
    31    32    31    1
    32    42    29    1
    33    22    41   ar
    34    22    23   ar
    35    41    25   ar
    36    34    31    1
    37    34    35    1
    38    31    30    2
    39    35    36    1
    40    37    36   ar
    41    29    30    1
    42    29     4    2
    43    25     4    1
    44    25    24   ar
    45    30    33    1
    46    23    26    1
    47    23    24   ar
    48    36    38   ar
    49    24    27    1
    50    27    28    2
