@<TRIPOS>MOLECULE
2d2o_GLC_A_1.pdb
 11 11 0 0 0
SMALL
GASTEIGER

@<TRIPOS>ATOM
      1  C1        37.8400   60.1540   62.9870 C.3   701  GLC701      0.1777
      2  C2        37.5950   60.8430   61.6400 C.3   701  GLC701      0.2141
      3  C3        38.5630   60.3040   60.5960 C.3   701  GLC701      0.2173
      4  C4        39.9900   60.5330   61.0730 C.3   701  GLC701      0.2142
      5  C5        40.1960   59.8620   62.4370 C.3   701  GLC701      0.1810
      6  C6        41.5560   60.1990   63.0190 C.3   701  GLC701      0.2141
      7  O2        36.2670   60.6100   61.2110 O.3   701  GLC701     -0.2176
      8  O3        38.3530   60.9660   59.3590 O.3   701  GLC701     -0.2175
      9  O4        40.9020   59.9930   60.1280 O.3   701  GLC701     -0.2176
     10  O5        39.2020   60.3230   63.3890 O.3   701  GLC701     -0.3481
     11  O6        42.5320   60.3580   61.9980 O.3   701  GLC701     -0.2176
@<TRIPOS>BOND
     1     8     3    1
     2     9     4    1
     3     3     4    1
     4     3     2    1
     5     4     5    1
     6     7     2    1
     7     2     1    1
     8    11     6    1
     9     5     6    1
    10     5    10    1
    11     1    10    1
