@<TRIPOS>MOLECULE
2d2v_MAL_A_1.pdb
 23 24 0 0 0
SMALL
GASTEIGER

@<TRIPOS>ATOM
      1  C1        45.9320    2.5020   95.2100 C.3   245  MAL245      0.2695
      2  C2        45.0380    2.4090   93.9550 C.3   245  MAL245      0.2406
      3  C3        45.3490    1.1020   93.1930 C.3   245  MAL245      0.2198
      4  C4        46.8600    1.2160   92.7690 C.3   245  MAL245      0.2144
      5  C5        47.7290    1.2620   94.0570 C.3   245  MAL245      0.1835
      6  C6        49.2470    1.3870   93.8740 C.3   245  MAL245      0.2142
      7  O1        45.5980    1.4210   96.1210 O.3   245  MAL245     -0.3257
      8  O2        43.7100    2.5120   94.4390 O.3   245  MAL245     -0.2149
      9  O3        44.5130    1.0640   92.0670 O.3   245  MAL245     -0.2174
     10  O4        47.2660    0.1150   92.0650 O.3   245  MAL245     -0.2176
     11  O5        47.3370    2.3910   94.8880 O.3   245  MAL245     -0.3256
     12  O6        49.5320    2.5250   93.0890 O.3   245  MAL245     -0.2176
     13  C1'       45.0120    0.3800  100.2370 C.3   245  MAL245      0.3023
     14  C2'       43.9090    1.0620   99.3900 C.3   245  MAL245      0.2433
     15  C3'       43.9660    0.8820   97.8480 C.3   245  MAL245      0.2168
     16  C4'       45.3760    1.4970   97.5170 C.3   245  MAL245      0.1804
     17  C5'       46.5170    0.7270   98.3390 C.3   245  MAL245      0.1804
     18  C6'       48.0530    1.1800   98.2100 C.3   245  MAL245      0.2141
     19  O1'       44.8620   -0.6940  100.1970 O.3   245  MAL245     -0.1869
     20  O2'       42.6560    0.5980   99.7870 O.3   245  MAL245     -0.2148
     21  O3'       42.8530    1.5740   97.1560 O.3   245  MAL245     -0.2175
     22  O5'       46.3350    0.7830   99.8120 O.3   245  MAL245     -0.3237
     23  O6'       47.9370    2.6700   98.3760 O.3   245  MAL245     -0.2176
@<TRIPOS>BOND
     1    10     4    1
     2     9     3    1
     3     4     3    1
     4     4     5    1
     5    12     6    1
     6     3     2    1
     7     6     5    1
     8     2     8    1
     9     2     1    1
    10     5    11    1
    11    11     1    1
    12     1     7    1
    13     7    16    1
    14    21    15    1
    15    16    15    1
    16    16    17    1
    17    15    14    1
    18    18    17    1
    19    18    23    1
    20    17    22    1
    21    14    20    1
    22    14    13    1
    23    22    13    1
    24    19    13    1
