@<TRIPOS>MOLECULE
2d32_ANP_A_1.pdb
 31 33 0 0 0
SMALL
GASTEIGER

@<TRIPOS>ATOM
      1  PG        11.2280   30.3980   14.8450 P.3   1521  ANP1521     0.4884
      2  O1G       11.4080   28.8730   14.6240 O.2   1521  ANP1521    -0.2331
      3  O2G       12.4070   31.0170   15.6050 O.3   1521  ANP1521    -0.1240
      4  O3G        9.8570   30.6580   15.4530 O.3   1521  ANP1521    -0.1240
      5  PB        10.0370   32.3780   12.7740 P.3   1521  ANP1521     0.4669
      6  O1B        8.7160   32.0520   13.4860 O.3   1521  ANP1521    -0.1253
      7  O2B       10.5560   33.8210   12.8040 O.2   1521  ANP1521    -0.2351
      8  N3B       11.2670   31.2470   13.3210 N.3   1521  ANP1521    -0.0163
      9  PA         9.3210   31.1350   10.2110 P.3   1521  ANP1521     0.2220
     10  O1A        9.6330   31.4770    8.7460 O.2   1521  ANP1521    -0.5170
     11  O2A        9.6950   29.7770   10.7560 O.3   1521  ANP1521    -0.4370
     12  O3A        9.9960   32.2870   11.1490 O.3   1521  ANP1521    -0.2360
     13  O5'        7.7090   31.3420   10.3910 O.3   1521  ANP1521    -0.3111
     14  C5'        7.0230   32.5460    9.9880 C.3   1521  ANP1521     0.1813
     15  C4'        5.5490   32.2100   10.1510 C.3   1521  ANP1521     0.1821
     16  O4'        4.7540   33.3940   10.2560 O.3   1521  ANP1521    -0.3135
     17  C3'        5.0510   31.5050    8.9080 C.3   1521  ANP1521     0.2184
     18  O3'        4.1390   30.4740    9.3380 O.3   1521  ANP1521    -0.2174
     19  C2'        4.4180   32.6180    8.0680 C.3   1521  ANP1521     0.2570
     20  O2'        3.3210   32.0790    7.3660 O.3   1521  ANP1521    -0.2130
     21  C1'        3.8480   33.5340    9.1530 C.3   1521  ANP1521     0.3186
     22  N9         3.6460   34.9560    8.7690 N.pl3 1521  ANP1521    -0.1439
     23  C8         4.5100   35.7650    8.0910 C.3   1521  ANP1521     0.3377
     24  N7         3.9770   37.0050    7.9150 N.2   1521  ANP1521    -0.2095
     25  C5         2.7490   36.9870    8.5190 C.2   1521  ANP1521     0.2526
     26  C6         1.6180   37.9120    8.7170 C.2   1521  ANP1521     0.4393
     27  N6         1.6470   39.1770    8.2780 N.pl3 1521  ANP1521     0.2180
     28  N1         0.5140   37.4720    9.3660 N.2   1521  ANP1521     0.0021
     29  C2         0.4110   36.2110    9.8390 C.3   1521  ANP1521     0.5254
     30  N3         1.3900   35.3250    9.6920 N.2   1521  ANP1521    -0.0055
     31  C4         2.5480   35.6340    9.0560 C.2   1521  ANP1521     0.3518
@<TRIPOS>BOND
     1    20    19    1
     2    24    23    1
     3    24    25    2
     4    19    17    1
     5    19    21    1
     6    23    22    1
     7    27    26    1
     8    25    26    1
     9    25    31    1
    10    26    28    2
    11    10     9    2
    12    22    31    1
    13    22    21    1
    14    17    18    1
    15    17    15    1
    16    31    30    2
    17    21    16    1
    18    28    29    1
    19    30    29    1
    20    14    15    1
    21    14    13    1
    22    15    16    1
    23     9    13    1
    24     9    11    1
    25     9    12    1
    26    12     5    1
    27     5     7    2
    28     5     8    1
    29     5     6    1
    30     8     1    1
    31     2     1    2
    32     1     4    1
    33     1     3    1
