@<TRIPOS>MOLECULE
2d32_GLU_A_1.pdb
 10 9 0 0 0
SMALL
GASTEIGER

@<TRIPOS>ATOM
      1  N         10.5130   23.7070   20.8250 N.3   1519  GLU1519    -0.1208
      2  CA         9.9030   24.9510   21.4060 C.3   1519  GLU1519     0.1949
      3  C          8.4390   24.7540   21.8630 C.2   1519  GLU1519     0.3819
      4  O          8.1710   23.7520   22.5720 O.co2 1519  GLU1519    -0.2441
      5  CB         9.9710   26.1290   20.4260 C.3   1519  GLU1519     0.0424
      6  CG        11.3050   26.3520   19.7410 C.3   1519  GLU1519     0.1161
      7  CD        11.2800   27.6640   18.9470 C.2   1519  GLU1519     0.3649
      8  OE1       11.0920   27.6290   17.7000 O.co2 1519  GLU1519    -0.2457
      9  OE2       11.4240   28.7470   19.5640 O.co2 1519  GLU1519    -0.2457
     10  OXT        7.5340   25.5940   21.5400 O.co2 1519  GLU1519    -0.2441
@<TRIPOS>BOND
     1     8     7   ar
     2     7     9   ar
     3     7     6    1
     4     6     5    1
     5     5     2    1
     6     1     2    1
     7     2     3    1
     8    10     3   ar
     9     3     4   ar
