@<TRIPOS>MOLECULE
2d33_GLU_A_1.pdb
 10 9 0 0 0
SMALL
GASTEIGER

@<TRIPOS>ATOM
      1  N         10.7080   23.7720  -14.5620 N.3   519  GLU519     -0.1208
      2  CA        10.0170   24.9170  -13.8690 C.3   519  GLU519      0.1949
      3  C          8.6020   24.6260  -13.2620 C.2   519  GLU519      0.3819
      4  O          8.3580   23.7180  -12.4190 O.co2 519  GLU519     -0.2441
      5  CB         9.9280   26.1370  -14.8070 C.3   519  GLU519      0.0424
      6  CG        11.1370   26.3240  -15.7350 C.3   519  GLU519      0.1161
      7  CD        11.1590   27.7280  -16.3670 C.2   519  GLU519      0.3649
      8  OE1       11.0840   28.7390  -15.6270 O.co2 519  GLU519     -0.2457
      9  OE2       11.2540   27.8400  -17.6070 O.co2 519  GLU519     -0.2457
     10  OXT        7.6500   25.3660  -13.6060 O.co2 519  GLU519     -0.2441
@<TRIPOS>BOND
     1     9     7   ar
     2     7     6    1
     3     7     8   ar
     4     6     5    1
     5     5     2    1
     6     1     2    1
     7     2     3    1
     8    10     3   ar
     9     3     4   ar
