@<TRIPOS>MOLECULE
2d33_ADP_A_1.pdb
 27 29 0 0 0
SMALL
GASTEIGER

@<TRIPOS>ATOM
      1  PB         9.8500   31.8000  -21.7770 P.3   521  ADP521      0.5373
      2  O1B       10.5820   30.4810  -21.6860 O.2   521  ADP521     -0.2221
      3  O2B       10.8390   32.9010  -21.4770 O.3   521  ADP521     -0.1143
      4  O3B        8.4920   31.9130  -21.0680 O.3   521  ADP521     -0.1143
      5  PA         9.1440   30.8630  -24.3460 P.3   521  ADP521      0.2231
      6  O1A        9.6200   31.3070  -25.6970 O.2   521  ADP521     -0.5169
      7  O2A        9.4310   29.4560  -23.8550 O.3   521  ADP521     -0.4370
      8  O3A        9.5520   32.0290  -23.3310 O.3   521  ADP521     -0.2261
      9  O5'        7.5300   31.1310  -24.4060 O.3   521  ADP521     -0.3111
     10  C5'        6.9770   32.4220  -24.7130 C.3   521  ADP521      0.1813
     11  C4'        5.4840   32.1740  -24.7580 C.3   521  ADP521      0.1821
     12  O4'        4.7010   33.3830  -24.7300 O.3   521  ADP521     -0.3135
     13  C3'        5.1080   31.4500  -26.0320 C.3   521  ADP521      0.2184
     14  O3'        4.1300   30.5170  -25.5960 O.3   521  ADP521     -0.2174
     15  C2'        4.5120   32.5600  -26.8940 C.3   521  ADP521      0.2570
     16  O2'        3.4790   32.1130  -27.7440 O.3   521  ADP521     -0.2130
     17  C1'        3.8480   33.4190  -25.8550 C.3   521  ADP521      0.3186
     18  N9         3.7030   34.8160  -26.2460 N.pl3 521  ADP521     -0.1439
     19  C8         4.5650   35.6150  -26.9050 C.3   521  ADP521      0.3377
     20  N7         3.9820   36.8460  -27.0300 N.2   521  ADP521     -0.2095
     21  C5         2.7640   36.8310  -26.4380 C.2   521  ADP521      0.2526
     22  C6         1.6250   37.7470  -26.2310 C.2   521  ADP521      0.4393
     23  N6         1.6630   39.0290  -26.6400 N.pl3 521  ADP521      0.2180
     24  N1         0.5340   37.2790  -25.5840 N.2   521  ADP521      0.0021
     25  C2         0.4280   36.0070  -25.1440 C.3   521  ADP521      0.5254
     26  N3         1.4220   35.1330  -25.3190 N.2   521  ADP521     -0.0055
     27  C4         2.5820   35.4830  -25.9340 C.2   521  ADP521      0.3518
@<TRIPOS>BOND
     1    16    15    1
     2    20    19    1
     3    20    21    2
     4    19    18    1
     5    15    13    1
     6    15    17    1
     7    23    22    1
     8    21    22    1
     9    21    27    1
    10    18    27    1
    11    18    17    1
    12    22    24    2
    13    13    14    1
    14    13    11    1
    15    27    26    2
    16    17    12    1
    17     6     5    2
    18    24    25    1
    19    26    25    1
    20    11    12    1
    21    11    10    1
    22    10     9    1
    23     9     5    1
    24     5     7    1
    25     5     8    1
    26     8     1    1
    27     1     2    2
    28     1     3    1
    29     1     4    1
