@<TRIPOS>MOLECULE
2d36_FMN_A_1.pdb
 31 33 0 0 0
SMALL
GASTEIGER

@<TRIPOS>ATOM
      1  N1        -7.4320   63.1830   15.5220 N.2   200  FMN200     -0.2890
      2  C2        -8.4610   64.0650   15.7780 C.1   200  FMN200      0.3669
      3  O2        -9.6010   63.6340   15.8310 O.2   200  FMN200     -0.1744
      4  N3        -8.2310   65.4210   15.9800 N.2   200  FMN200     -0.2300
      5  C4        -6.9370   65.9090   15.9220 C.1   200  FMN200      0.2513
      6  O4        -6.6890   67.0510   16.3080 O.2   200  FMN200     -0.2057
      7  C4A       -5.8920   65.0270   15.6520 C.2   200  FMN200      0.2697
      8  N5        -4.6030   65.5090   15.6050 N.2   200  FMN200     -0.3922
      9  C5A       -3.5740   64.6210   15.3750 C.2   200  FMN200      0.1102
     10  C6        -2.2820   65.1130   15.2630 C.3   200  FMN200      0.0605
     11  C7        -1.2060   64.2760   15.1050 C.3   200  FMN200      0.0248
     12  C7M        0.1410   64.8360   15.4560 C.3   200  FMN200      0.0048
     13  C8        -1.4090   62.9210   14.8710 C.2   200  FMN200     -0.0461
     14  C8M       -0.2780   62.0720   14.3530 C.3   200  FMN200      0.0261
     15  C9        -2.7030   62.3940   14.9180 C.2   200  FMN200     -0.0084
     16  C9A       -3.8080   63.2540   15.1620 C.3   200  FMN200      0.1451
     17  N10       -5.1220   62.7770   15.2290 N.pl3 200  FMN200     -0.2694
     18  C10       -6.1450   63.6600   15.4660 C.2   200  FMN200      0.2416
     19  C1'       -5.4560   61.3140   15.0830 C.3   200  FMN200      0.1294
     20  C2'       -5.6290   60.6800   16.4630 C.3   200  FMN200      0.2044
     21  O2'       -4.4300   60.7550   17.2240 O.3   200  FMN200     -0.2185
     22  C3'       -6.0870   59.2370   16.3300 C.3   200  FMN200      0.2164
     23  O3'       -7.0860   59.1150   15.3560 O.3   200  FMN200     -0.2175
     24  C4'       -6.6150   58.7630   17.6690 C.3   200  FMN200      0.2147
     25  O4'       -5.4750   58.5560   18.4820 O.3   200  FMN200     -0.2176
     26  C5'       -7.4340   57.4770   17.5590 C.3   200  FMN200      0.1892
     27  O5'       -6.5540   56.5090   17.0490 O.3   200  FMN200     -0.2674
     28  P         -6.8900   55.4920   15.8410 P.3   200  FMN200      0.5327
     29  O1P       -7.8760   54.5090   16.3760 O.3   200  FMN200     -0.1145
     30  O2P       -5.5690   54.8030   15.4940 O.3   200  FMN200     -0.1145
     31  O3P       -7.4100   56.2110   14.5730 O.2   200  FMN200     -0.2224
@<TRIPOS>BOND
     1    14    13    1
     2    31    28    2
     3    13    15    2
     4    13    11    1
     5    15    16    1
     6    19    17    1
     7    19    20    1
     8    11    10    1
     9    11    12    1
    10    16    17    1
    11    16     9    1
    12    17    18    1
    13    10     9    1
    14    23    22    1
    15     9     8    2
    16    18     1    2
    17    18     7    1
    18    30    28    1
    19     1     2    2
    20     8     7    2
    21     7     5    1
    22     2     3    2
    23     2     4    2
    24    28    29    1
    25    28    27    1
    26     5     4    2
    27     5     6    2
    28    22    20    1
    29    22    24    1
    30    20    21    1
    31    27    26    1
    32    26    24    1
    33    24    25    1
