@<TRIPOS>MOLECULE
2d37_FMN_A_1.pdb
 31 33 0 0 0
SMALL
GASTEIGER

@<TRIPOS>ATOM
      1  N1        -7.7330   62.6130   14.8830 N.2   200  FMN200     -0.2887
      2  C2        -8.7860   63.4280   15.1950 C.1   200  FMN200      0.3669
      3  O2        -9.9240   62.9940   15.1940 O.2   200  FMN200     -0.1744
      4  N3        -8.5490   64.7380   15.5480 N.2   200  FMN200     -0.2300
      5  C4        -7.2830   65.2610   15.5800 C.1   200  FMN200      0.2513
      6  O4        -7.1170   66.4590   15.9210 O.2   200  FMN200     -0.2057
      7  C4A       -6.2040   64.4520   15.2420 C.2   200  FMN200      0.2706
      8  N5        -4.9260   64.9660   15.2430 N.2   200  FMN200     -0.3841
      9  C5A       -3.8710   64.1100   14.9690 C.2   200  FMN200      0.1452
     10  C6        -2.5750   64.5900   14.9450 C.2   200  FMN200      0.0252
     11  C7        -1.4620   63.7740   14.7840 C.2   200  FMN200     -0.0375
     12  C7M       -0.1010   64.3500   15.0610 C.3   200  FMN200      0.0268
     13  C8        -1.6820   62.4370   14.3870 C.3   200  FMN200      0.0417
     14  C8M       -0.5380   61.5990   13.8770 C.3   200  FMN200      0.0091
     15  C9        -2.9990   61.9430   14.3340 C.2   200  FMN200     -0.0049
     16  C9A       -4.0960   62.7510   14.6440 C.2   200  FMN200      0.0795
     17  N10       -5.4060   62.2770   14.5920 N.pl3 200  FMN200     -0.2545
     18  C10       -6.4470   63.1020   14.9170 C.2   200  FMN200      0.2449
     19  C1'       -5.7380   60.8270   14.4790 C.3   200  FMN200      0.1336
     20  C2'       -6.0520   60.1830   15.8350 C.3   200  FMN200      0.2048
     21  O2'       -4.9350   60.2740   16.7040 O.3   200  FMN200     -0.2185
     22  C3'       -6.4430   58.7140   15.6450 C.3   200  FMN200      0.2165
     23  O3'       -7.5140   58.5870   14.7150 O.3   200  FMN200     -0.2175
     24  C4'       -6.8930   58.1440   16.9870 C.3   200  FMN200      0.2147
     25  O4'       -5.7390   57.9270   17.7700 O.3   200  FMN200     -0.2176
     26  C5'       -7.6700   56.8310   16.8940 C.3   200  FMN200      0.1892
     27  O5'       -6.7970   55.9200   16.2800 O.3   200  FMN200     -0.2674
     28  P         -7.4000   54.7820   15.3090 P.3   200  FMN200      0.5327
     29  O1P       -7.7490   53.6830   16.2670 O.3   200  FMN200     -0.1145
     30  O2P       -6.2520   54.2640   14.4270 O.2   200  FMN200     -0.2224
     31  O3P       -8.5670   55.2370   14.4690 O.3   200  FMN200     -0.1145
@<TRIPOS>BOND
     1    14    13    1
     2    15    13    1
     3    15    16    2
     4    13    11    1
     5    30    28    2
     6    31    28    1
     7    19    17    1
     8    19    20    1
     9    17    16    1
    10    17    18    1
    11    16     9    1
    12    23    22    1
    13    11    10    2
    14    11    12    1
    15     1    18    2
    16     1     2    2
    17    18     7    1
    18    10     9    1
    19     9     8    2
    20     3     2    2
    21     2     4    2
    22     7     8    2
    23     7     5    1
    24    28    29    1
    25    28    27    1
    26     4     5    2
    27     5     6    2
    28    22    20    1
    29    22    24    1
    30    20    21    1
    31    27    26    1
    32    26    24    1
    33    24    25    1
