@<TRIPOS>MOLECULE
2d37_NAD_A_1.pdb
 44 48 0 0 0
SMALL
GASTEIGER

@<TRIPOS>ATOM
      1  PA        -1.6210   63.7360    6.1980 P.3   300  NAD300      0.2189
      2  O1A       -2.6780   62.8350    5.6690 O.3   300  NAD300     -0.4371
      3  O2A       -0.2910   63.7110    5.5160 O.2   300  NAD300     -0.5170
      4  O5B       -2.2470   65.2310    6.2170 O.3   300  NAD300     -0.3112
      5  C5B       -1.4200   66.3270    6.6060 C.3   300  NAD300      0.1813
      6  C4B       -2.2720   67.2340    7.5180 C.3   300  NAD300      0.1821
      7  O4B       -3.5140   67.5190    6.9210 O.3   300  NAD300     -0.3135
      8  C3B       -2.6200   66.6500    8.8840 C.3   300  NAD300      0.2184
      9  O3B       -1.5540   66.7380    9.7990 O.3   300  NAD300     -0.2174
     10  C2B       -3.8450   67.4710    9.2390 C.3   300  NAD300      0.2570
     11  O2B       -3.4730   68.7220    9.8160 O.3   300  NAD300     -0.2130
     12  C1B       -4.5460   67.6330    7.8770 C.3   300  NAD300      0.3186
     13  N9A       -5.5210   66.5260    7.7920 N.pl3 300  NAD300     -0.1439
     14  C8A       -5.2290   65.2520    7.4000 C.3   300  NAD300      0.3377
     15  N7A       -6.3080   64.4570    7.5440 N.2   300  NAD300     -0.2095
     16  C5A       -7.3140   65.2510    8.0160 C.2   300  NAD300      0.2526
     17  C6A       -8.6220   65.0100    8.3270 C.2   300  NAD300      0.4393
     18  N6A       -9.1980   63.8040    8.2070 N.pl3 300  NAD300      0.2180
     19  N1A       -9.4070   66.0510    8.7620 N.2   300  NAD300      0.0021
     20  C2A       -8.9000   67.3190    8.9340 C.3   300  NAD300      0.5254
     21  N3A       -7.6000   67.5550    8.6030 N.2   300  NAD300     -0.0055
     22  C4A       -6.8080   66.5430    8.1660 C.2   300  NAD300      0.3518
     23  O3        -1.6050   63.4160    7.7750 O.3   300  NAD300     -0.2703
     24  PN        -0.4550   63.0160    8.7900 P.3   300  NAD300      0.2189
     25  O1N        0.1030   64.1840    9.4130 O.3   300  NAD300     -0.4371
     26  O2N        0.4120   61.9450    8.1930 O.2   300  NAD300     -0.5170
     27  O5D       -1.4890   62.2940    9.7900 O.3   300  NAD300     -0.3112
     28  C5D       -1.8110   60.9200    9.7060 C.3   300  NAD300      0.1813
     29  C4D       -3.3030   60.7220    9.7280 C.3   300  NAD300      0.1799
     30  O4D       -3.7790   61.0910   11.0170 O.3   300  NAD300     -0.3327
     31  C3D       -4.0880   61.6090    8.7640 C.3   300  NAD300      0.2158
     32  O3D       -4.0940   61.0830    7.4230 O.3   300  NAD300     -0.2175
     33  C2D       -5.4390   61.6420    9.4190 C.3   300  NAD300      0.2309
     34  O2D       -6.2170   60.5030    9.1060 O.3   300  NAD300     -0.2158
     35  C1D       -5.0830   61.6270   10.9310 C.3   300  NAD300      0.2263
     36  N1N       -5.0640   63.0660   11.3220 N.pl3 300  NAD300     -0.2787
     37  C2N       -6.2690   63.6180   11.5450 C.3   300  NAD300      0.1244
     38  C3N       -6.3840   64.9720   11.8690 C.2   300  NAD300      0.0544
     39  C7N       -7.7430   65.5440   12.1180 C.2   300  NAD300      0.2818
     40  O7N       -7.8860   66.9080   12.3360 O.2   300  NAD300     -0.2670
     41  N7N       -8.7730   64.7760   12.0920 N.am  300  NAD300     -0.0839
     42  C4N       -5.2320   65.7520   11.9990 C.2   300  NAD300      0.0033
     43  C5N       -3.9960   65.1740   11.7560 C.2   300  NAD300      0.0157
     44  C6N       -3.9140   63.8170   11.4310 C.2   300  NAD300      0.0633
@<TRIPOS>BOND
     1     3     1    2
     2     2     1    1
     3     1     4    1
     4     1    23    1
     5     4     5    1
     6     5     6    1
     7     7     6    1
     8     7    12    1
     9    14    15    1
    10    14    13    1
    11    32    31    1
    12     6     8    1
    13    15    16    2
    14    23    24    1
    15    13    12    1
    16    13    22    1
    17    12    10    1
    18    16    22    1
    19    16    17    1
    20    22    21    2
    21    26    24    2
    22    18    17    1
    23    17    19    2
    24    21    20    1
    25    19    20    1
    26    31    33    1
    27    31    29    1
    28    24    25    1
    29    24    27    1
    30     8    10    1
    31     8     9    1
    32    34    33    1
    33    10    11    1
    34    33    35    1
    35    28    29    1
    36    28    27    1
    37    29    30    1
    38    35    30    1
    39    35    36    1
    40    36    44    1
    41    36    37    1
    42    44    43    2
    43    37    38    1
    44    43    42    1
    45    38    42    2
    46    38    39    1
    47    41    39   am
    48    39    40    2
