@<TRIPOS>MOLECULE
2d38_NAP_A_1.pdb
 48 52 0 0 0
SMALL
GASTEIGER

@<TRIPOS>ATOM
      1  PA        42.9320   11.9190   24.0930 P.3   300  NAP300      0.2189
      2  O1A       43.7380   10.7470   23.6990 O.2   300  NAP300     -0.5170
      3  O2A       43.7880   13.0150   24.7660 O.3   300  NAP300     -0.4371
      4  O5B       42.2320   12.5220   22.7660 O.3   300  NAP300     -0.3112
      5  C5B       42.1320   13.9280   22.5470 C.3   300  NAP300      0.1813
      6  C4B       40.6670   14.3260   22.3830 C.3   300  NAP300      0.1820
      7  O4B       39.9340   13.7350   21.3340 O.3   300  NAP300     -0.3136
      8  C3B       39.9580   13.9670   23.6800 C.3   300  NAP300      0.2157
      9  O3B       40.2480   14.9980   24.6180 O.3   300  NAP300     -0.2175
     10  C2B       38.5530   13.6180   23.2800 C.3   300  NAP300      0.2314
     11  O2B       37.6580   14.6600   23.5480 O.3   300  NAP300     -0.2630
     12  C1B       38.6500   13.3800   21.7830 C.3   300  NAP300      0.3158
     13  N9A       38.3940   11.9630   21.5300 N.pl3 300  NAP300     -0.1439
     14  C8A       39.2870   10.9190   21.4890 C.3   300  NAP300      0.3377
     15  N7A       38.5920    9.7860   21.2420 N.2   300  NAP300     -0.2095
     16  C5A       37.2740   10.0960   21.1440 C.2   300  NAP300      0.2526
     17  C6A       36.1250    9.3420   20.9010 C.2   300  NAP300      0.4393
     18  N6A       36.1570    8.0110   20.8960 N.pl3 300  NAP300      0.2180
     19  N1A       34.9050    9.9790   20.8530 N.2   300  NAP300      0.0021
     20  C2A       34.8080   11.3370   21.0480 C.3   300  NAP300      0.5254
     21  N3A       35.9410   12.0860   21.2880 N.2   300  NAP300     -0.0055
     22  C4A       37.1480   11.4660   21.3300 C.2   300  NAP300      0.3518
     23  O3        41.6600   11.5010   24.9770 O.3   300  NAP300     -0.2703
     24  PN        41.6620   11.3860   26.5800 P.3   300  NAP300      0.2189
     25  O1N       40.6380   12.3250   27.0910 O.3   300  NAP300     -0.4371
     26  O2N       43.0510   11.4220   27.0530 O.2   300  NAP300     -0.5170
     27  O5D       41.1340    9.8710   26.7290 O.3   300  NAP300     -0.3112
     28  C5D       41.9560    8.7960   26.3000 C.3   300  NAP300      0.1813
     29  C4D       41.1360    7.7900   25.4990 C.3   300  NAP300      0.1799
     30  O4D       39.8490    7.4790   25.9780 O.3   300  NAP300     -0.3327
     31  C3D       40.9160    8.2120   24.0390 C.3   300  NAP300      0.2158
     32  O3D       42.1110    8.0500   23.3020 O.3   300  NAP300     -0.2175
     33  C2D       39.6930    7.4480   23.6210 C.3   300  NAP300      0.2309
     34  O2D       40.0300    6.1940   23.0690 O.3   300  NAP300     -0.2158
     35  C1D       38.9280    7.2570   24.9250 C.3   300  NAP300      0.2263
     36  N1N       37.7520    8.1990   24.9520 N.pl3 300  NAP300     -0.2787
     37  C2N       36.5930    7.6190   24.5440 C.3   300  NAP300      0.1244
     38  C3N       35.4400    8.3370   24.4760 C.2   300  NAP300      0.0544
     39  C7N       34.1730    7.6620   24.0920 C.2   300  NAP300      0.2818
     40  O7N       32.9640    8.3700   24.1880 O.2   300  NAP300     -0.2670
     41  N7N       34.2010    6.3970   23.6810 N.am  300  NAP300     -0.0839
     42  C4N       35.5080    9.6650   24.8250 C.2   300  NAP300      0.0033
     43  C5N       36.7300   10.2040   25.2040 C.2   300  NAP300      0.0157
     44  C6N       37.9840    9.5450   25.3090 C.2   300  NAP300      0.0633
     45  P2B       37.1760   15.0050   25.0490 P.3   300  NAP300      0.5328
     46  O1X       36.3530   16.2370   24.9380 O.2   300  NAP300     -0.2224
     47  O2X       36.3400   13.8550   25.6490 O.3   300  NAP300     -0.1145
     48  O3X       38.4040   15.2770   25.9480 O.3   300  NAP300     -0.1145
@<TRIPOS>BOND
     1    19    17    2
     2    19    20    1
     3    18    17    1
     4    17    16    1
     5    20    21    1
     6    16    15    2
     7    16    22    1
     8    15    14    1
     9    21    22    2
    10    22    13    1
    11     7    12    1
    12     7     6    1
    13    14    13    1
    14    13    12    1
    15    12    10    1
    16     6     5    1
    17     6     8    1
    18     5     4    1
    19     4     1    1
    20    34    33    1
    21    10    11    1
    22    10     8    1
    23    32    31    1
    24    11    45    1
    25    33    31    1
    26    33    35    1
    27     8     9    1
    28    41    39   am
    29     2     1    2
    30    31    29    1
    31    39    40    2
    32    39    38    1
    33     1     3    1
    34     1    23    1
    35    38    37    1
    36    38    42    2
    37    37    36    1
    38    42    43    1
    39    35    36    1
    40    35    30    1
    41    46    45    2
    42    36    44    1
    43    23    24    1
    44    45    47    1
    45    45    48    1
    46    43    44    2
    47    29    30    1
    48    29    28    1
    49    28    27    1
    50    24    27    1
    51    24    26    2
    52    24    25    1
