@<TRIPOS>MOLECULE
2d38_FMN_A_1.pdb
 31 33 0 0 0
SMALL
GASTEIGER

@<TRIPOS>ATOM
      1  N1        35.5850   12.3080   17.7610 N.2   200  FMN200     -0.2890
      2  C2        34.5010   11.5140   17.5080 C.1   200  FMN200      0.3669
      3  O2        33.3730   12.0280   17.4760 O.2   200  FMN200     -0.1744
      4  N3        34.7100   10.1670   17.2940 N.2   200  FMN200     -0.2300
      5  C4        35.9840    9.6210   17.3220 C.1   200  FMN200      0.2513
      6  O4        36.1330    8.4280   17.0520 O.2   200  FMN200     -0.2057
      7  C4A       37.0860   10.4500   17.5760 C.2   200  FMN200      0.2697
      8  N5        38.3800    9.9620   17.6320 N.2   200  FMN200     -0.3922
      9  C5A       39.4360   10.8220   17.8720 C.2   200  FMN200      0.1102
     10  C6        40.7210   10.2740   17.9100 C.3   200  FMN200      0.0605
     11  C7        41.7940   11.1430   18.1480 C.3   200  FMN200      0.0248
     12  C7M       43.1280   10.6510   17.6730 C.3   200  FMN200      0.0048
     13  C8        41.5840   12.5160   18.3700 C.2   200  FMN200     -0.0461
     14  C8M       42.7120   13.4290   18.7810 C.3   200  FMN200      0.0261
     15  C9        40.2930   13.0300   18.3380 C.2   200  FMN200     -0.0084
     16  C9A       39.2050   12.1920   18.0900 C.3   200  FMN200      0.1451
     17  N10       37.8960   12.6780   18.0550 N.pl3 200  FMN200     -0.2694
     18  C10       36.8610   11.8090   17.7920 C.2   200  FMN200      0.2416
     19  C1'       37.5280   14.1270   18.2570 C.3   200  FMN200      0.1294
     20  C2'       37.2900   14.7790   16.8970 C.3   200  FMN200      0.2044
     21  O2'       38.4260   14.6060   16.0610 O.3   200  FMN200     -0.2185
     22  C3'       36.9620   16.2640   17.0590 C.3   200  FMN200      0.2164
     23  O3'       35.9170   16.4170   17.9900 O.3   200  FMN200     -0.2175
     24  C4'       36.5640   16.8650   15.7150 C.3   200  FMN200      0.2147
     25  O4'       37.7400   16.9990   14.9600 O.3   200  FMN200     -0.2176
     26  C5'       35.8920   18.2330   15.8370 C.3   200  FMN200      0.1892
     27  O5'       36.7150   19.0820   16.6100 O.3   200  FMN200     -0.2674
     28  P         36.0830   20.2550   17.5120 P.3   200  FMN200      0.5327
     29  O1P       35.4320   21.2380   16.6130 O.2   200  FMN200     -0.2224
     30  O2P       37.2180   20.9310   18.3030 O.3   200  FMN200     -0.1145
     31  O3P       35.0450   19.6690   18.4960 O.3   200  FMN200     -0.1145
@<TRIPOS>BOND
     1    25    24    1
     2    24    26    1
     3    24    22    1
     4    26    27    1
     5    21    20    1
     6    27    28    1
     7    29    28    2
     8    20    22    1
     9    20    19    1
    10     6     5    2
    11    22    23    1
    12     4     5    2
    13     4     2    2
    14     5     7    1
    15     3     2    2
    16     2     1    2
    17    28    30    1
    18    28    31    1
    19     7     8    2
    20     7    18    1
    21     8     9    2
    22    12    11    1
    23     1    18    2
    24    18    17    1
    25     9    10    1
    26     9    16    1
    27    10    11    1
    28    17    16    1
    29    17    19    1
    30    16    15    1
    31    11    13    1
    32    15    13    2
    33    13    14    1
