@<TRIPOS>MOLECULE
2d3a_ADP_A_1.pdb
 27 29 0 0 0
SMALL
GASTEIGER

@<TRIPOS>ATOM
      1  PB        26.4530   21.6340   62.5700 P.3   6001  ADP6001     0.5373
      2  O1B       27.6320   21.8200   63.4890 O.3   6001  ADP6001    -0.1143
      3  O2B       25.3890   22.7310   62.5390 O.3   6001  ADP6001    -0.1143
      4  O3B       26.9590   21.1670   61.2510 O.2   6001  ADP6001    -0.2221
      5  PA        24.4360   19.7930   62.0160 P.3   6001  ADP6001     0.2231
      6  O1A       23.3330   20.7140   61.7220 O.3   6001  ADP6001    -0.4370
      7  O2A       25.0810   18.9470   60.9010 O.2   6001  ADP6001    -0.5169
      8  O3A       25.5650   20.3930   63.0320 O.3   6001  ADP6001    -0.2261
      9  O5'       23.6090   18.7450   62.9040 O.3   6001  ADP6001    -0.3111
     10  C5'       22.9070   19.1200   64.0980 C.3   6001  ADP6001     0.1813
     11  C4'       22.3620   17.8180   64.6500 C.3   6001  ADP6001     0.1821
     12  O4'       21.8290   18.0200   65.9510 O.3   6001  ADP6001    -0.3135
     13  C3'       21.2350   17.3840   63.7480 C.3   6001  ADP6001     0.2184
     14  O3'       21.2610   15.9480   63.6200 O.3   6001  ADP6001    -0.2174
     15  C2'       20.0150   17.9260   64.4640 C.3   6001  ADP6001     0.2570
     16  O2'       18.7670   17.3090   64.0810 O.3   6001  ADP6001    -0.2130
     17  C1'       20.4390   17.7050   65.9020 C.3   6001  ADP6001     0.3186
     18  N9        19.6720   18.4810   66.9270 N.pl3 6001  ADP6001    -0.1439
     19  C8        18.8080   19.4950   66.7270 C.3   6001  ADP6001     0.3377
     20  N7        18.3180   19.9100   67.9050 N.2   6001  ADP6001    -0.2095
     21  C5        18.8650   19.1220   68.8690 C.2   6001  ADP6001     0.2526
     22  C6        18.7410   19.0580   70.2520 C.2   6001  ADP6001     0.4393
     23  N6        17.9110   19.9120   70.9070 N.pl3 6001  ADP6001     0.2180
     24  N1        19.4680   18.1380   70.9270 N.2   6001  ADP6001     0.0021
     25  C2        20.2880   17.2680   70.3310 C.3   6001  ADP6001     0.5254
     26  N3        20.4090   17.3000   69.0100 N.2   6001  ADP6001    -0.0055
     27  C4        19.7210   18.2200   68.2550 C.2   6001  ADP6001     0.3518
@<TRIPOS>BOND
     1     7     5    2
     2     4     1    2
     3     6     5    1
     4     5     9    1
     5     5     8    1
     6     3     1    1
     7     1     8    1
     8     1     2    1
     9     9    10    1
    10    14    13    1
    11    13    15    1
    12    13    11    1
    13    16    15    1
    14    10    11    1
    15    15    17    1
    16    11    12    1
    17    17    12    1
    18    17    18    1
    19    19    18    1
    20    19    20    1
    21    18    27    1
    22    20    21    2
    23    27    21    1
    24    27    26    2
    25    21    22    1
    26    26    25    1
    27    22    23    1
    28    22    24    2
    29    25    24    1
