@<TRIPOS>MOLECULE
2d3a_P3S_A_1.pdb
 15 14 0 0 0
SMALL
GASTEIGER

@<TRIPOS>ATOM
      1  O3A       29.2080   20.1680   60.2210 O.2   5001  P3S5001    -0.2328
      2  PA        30.3380   20.8180   60.9450 P.3   5001  P3S5001     0.4896
      3  O1A       30.6230   22.2650   60.5390 O.3   5001  P3S5001    -0.1237
      4  O2A       30.1590   20.7850   62.4420 O.3   5001  P3S5001    -0.1237
      5  NE        31.8110   19.9580   60.5510 N.3   5001  P3S5001    -0.0523
      6  SD        33.0100   20.9530   60.1910 S.3   5001  P3S5001     0.0022
      7  OE        33.1980   22.0240   61.1230 O.3   5001  P3S5001    -0.1552
      8  CE        32.6160   21.6510   58.7160 C.3   5001  P3S5001     0.0974
      9  CG        34.4760   20.1740   60.1800 C.3   5001  P3S5001     0.0859
     10  CB        34.5050   18.9120   61.0050 C.3   5001  P3S5001     0.0443
     11  CA        35.9060   18.3210   60.9600 C.3   5001  P3S5001     0.1953
     12  N         35.9480   17.3810   59.8540 N.3   5001  P3S5001    -0.1208
     13  C         36.2470   17.5590   62.2200 C.2   5001  P3S5001     0.3819
     14  OT        37.3620   16.9860   62.2980 O.co2 5001  P3S5001    -0.2441
     15  O         35.4110   17.5180   63.1590 O.co2 5001  P3S5001    -0.2441
@<TRIPOS>BOND
     1     8     6    1
     2    12    11    1
     3     9     6    1
     4     9    10    1
     5     6     5    1
     6     6     7    1
     7     1     2    2
     8     3     2    1
     9     5     2    1
    10     2     4    1
    11    11    10    1
    12    11    13    1
    13    13    14   ar
    14    13    15   ar
