@<TRIPOS>MOLECULE
2d3b_MSL_C_10.pdb
 11 10 0 0 0
SMALL
GASTEIGER

@<TRIPOS>ATOM
      1  OXT       52.0940   26.7600   -1.9740 O.co2 5009  MSL5009    -0.2441
      2  C         53.3040   27.0810   -1.9100 C.2   5009  MSL5009     0.3819
      3  O         53.9810   27.1480   -2.9580 O.co2 5009  MSL5009    -0.2441
      4  CA        53.9460   27.3960   -0.5630 C.3   5009  MSL5009     0.1953
      5  N         54.1520   26.1740    0.2210 N.3   5009  MSL5009    -0.1208
      6  CB        55.2420   28.2160   -0.7200 C.3   5009  MSL5009     0.0443
      7  CG        55.6930   28.9430    0.5510 C.3   5009  MSL5009     0.0868
      8  SD        57.3580   29.1640    0.6560 S.3   5009  MSL5009     0.0098
      9  OE        57.7680   30.4140    0.0770 O.3   5009  MSL5009    -0.1543
     10  NE        58.0230   27.9260    0.1050 N.3   5009  MSL5009    -0.0533
     11  CE        57.8180   29.2730    2.2520 C.3   5009  MSL5009     0.0984
@<TRIPOS>BOND
     1     3     2   ar
     2     1     2   ar
     3     2     4    1
     4     6     4    1
     5     6     7    1
     6     4     5    1
     7     9     8    1
     8    10     8    1
     9     7     8    1
    10     8    11    1
