@<TRIPOS>MOLECULE
2d3b_ANP_A_1.pdb
 31 33 0 0 0
SMALL
GASTEIGER

@<TRIPOS>ATOM
      1  PG        29.0610   20.8650   61.2100 P.3   6001  ANP6001     0.4884
      2  O1G       30.0130   21.7600   61.9590 O.3   6001  ANP6001    -0.1240
      3  O2G       29.4460   19.3710   61.2470 O.3   6001  ANP6001    -0.1240
      4  O3G       29.0450   21.2610   59.7450 O.2   6001  ANP6001    -0.2331
      5  PB        26.5760   21.6620   62.7010 P.3   6001  ANP6001     0.4669
      6  O1B       27.3420   22.0860   63.8840 O.3   6001  ANP6001    -0.1253
      7  O2B       26.0690   22.7530   61.8590 O.2   6001  ANP6001    -0.2351
      8  N3B       27.5200   20.6960   61.9110 N.3   6001  ANP6001    -0.0163
      9  PA        24.4040   19.7780   62.3860 P.3   6001  ANP6001     0.2220
     10  O1A       23.4270   20.2200   61.2830 O.2   6001  ANP6001    -0.5170
     11  O2A       25.3500   18.8920   61.7250 O.3   6001  ANP6001    -0.4370
     12  O3A       25.1570   21.0270   63.1040 O.3   6001  ANP6001    -0.2360
     13  O5'       23.3000   18.8640   63.1980 O.3   6001  ANP6001    -0.3111
     14  C5'       23.2180   18.5080   64.6860 C.3   6001  ANP6001     0.1813
     15  C4'       22.1270   17.7630   64.7970 C.3   6001  ANP6001     0.1821
     16  O4'       21.6360   17.3000   66.0740 O.3   6001  ANP6001    -0.3135
     17  C3'       21.0020   17.3730   63.8140 C.3   6001  ANP6001     0.2184
     18  O3'       20.6210   16.0550   63.7330 O.3   6001  ANP6001    -0.2174
     19  C2'       20.0880   18.3800   64.6200 C.3   6001  ANP6001     0.2570
     20  O2'       18.7660   17.6210   64.4040 O.3   6001  ANP6001    -0.2130
     21  C1'       20.4630   18.0840   66.0470 C.3   6001  ANP6001     0.3186
     22  N9        19.7680   18.5200   67.0860 N.pl3 6001  ANP6001    -0.1439
     23  C8        18.6450   19.3240   67.0580 C.3   6001  ANP6001     0.3377
     24  N7        18.1010   19.6570   68.1560 N.2   6001  ANP6001    -0.2095
     25  C5        18.8900   19.0240   69.0300 C.2   6001  ANP6001     0.2526
     26  C6        18.7530   19.0120   70.3970 C.2   6001  ANP6001     0.4393
     27  N6        17.8220   19.6150   71.1820 N.pl3 6001  ANP6001     0.2180
     28  N1        19.7110   18.2830   71.0990 N.2   6001  ANP6001     0.0021
     29  C2        20.7310   17.6250   70.3900 C.3   6001  ANP6001     0.5254
     30  N3        20.9390   17.5610   69.0750 N.2   6001  ANP6001    -0.0055
     31  C4        19.9390   18.3180   68.4240 C.2   6001  ANP6001     0.3518
@<TRIPOS>BOND
     1     4     1    2
     2     1     3    1
     3     1     8    1
     4     1     2    1
     5    10     9    2
     6    11     9    1
     7     7     5    2
     8     8     5    1
     9     9    12    1
    10     9    13    1
    11     5    12    1
    12     5     6    1
    13    13    14    1
    14    18    17    1
    15    17    19    1
    16    17    15    1
    17    20    19    1
    18    19    21    1
    19    14    15    1
    20    15    16    1
    21    21    16    1
    22    21    22    1
    23    23    22    1
    24    23    24    1
    25    22    31    1
    26    24    25    2
    27    31    25    1
    28    31    30    2
    29    25    26    1
    30    30    29    1
    31    29    28    1
    32    26    28    2
    33    26    27    1
