@<TRIPOS>MOLECULE
2d3c_ADP_A_1.pdb
 27 29 0 0 0
SMALL
GASTEIGER

@<TRIPOS>ATOM
      1  PB        26.6240   21.6800   62.8290 P.3   6001  ADP6001     0.5373
      2  O1B       27.2820   21.5450   64.1680 O.3   6001  ADP6001    -0.1143
      3  O2B       25.7540   22.9310   62.5140 O.3   6001  ADP6001    -0.1143
      4  O3B       27.4380   21.2640   61.6480 O.2   6001  ADP6001    -0.2221
      5  PA        24.6540   19.7540   61.9180 P.3   6001  ADP6001     0.2231
      6  O1A       23.3770   20.4780   61.5560 O.3   6001  ADP6001    -0.4370
      7  O2A       25.3980   19.0860   60.7880 O.2   6001  ADP6001    -0.5169
      8  O3A       25.6410   20.4260   63.0200 O.3   6001  ADP6001    -0.2261
      9  O5'       24.0200   18.6840   62.9250 O.3   6001  ADP6001    -0.3111
     10  C5'       23.2240   19.0330   64.0930 C.3   6001  ADP6001     0.1813
     11  C4'       22.3050   17.8650   64.5290 C.3   6001  ADP6001     0.1821
     12  O4'       21.9020   17.9310   65.8890 O.3   6001  ADP6001    -0.3135
     13  C3'       21.0300   17.8400   63.7110 C.3   6001  ADP6001     0.2184
     14  O3'       20.5980   16.4900   63.6850 O.3   6001  ADP6001    -0.2174
     15  C2'       19.9780   18.4300   64.5490 C.3   6001  ADP6001     0.2570
     16  O2'       18.8540   17.6550   64.1490 O.3   6001  ADP6001    -0.2130
     17  C1'       20.4670   17.9390   65.8970 C.3   6001  ADP6001     0.3186
     18  N9        19.7420   18.5950   67.0580 N.pl3 6001  ADP6001    -0.1439
     19  C8        18.7400   19.5240   66.9290 C.3   6001  ADP6001     0.3377
     20  N7        18.2640   19.8750   68.1650 N.2   6001  ADP6001    -0.2095
     21  C5        18.9710   19.1390   69.0780 C.2   6001  ADP6001     0.2526
     22  C6        18.9500   19.0740   70.4520 C.2   6001  ADP6001     0.4393
     23  N6        18.0340   19.8850   70.9830 N.pl3 6001  ADP6001     0.2180
     24  N1        19.7730   18.2890   71.2010 N.2   6001  ADP6001     0.0021
     25  C2        20.6550   17.5220   70.5910 C.3   6001  ADP6001     0.5254
     26  N3        20.7010   17.5370   69.2400 N.2   6001  ADP6001    -0.0055
     27  C4        19.8900   18.3310   68.4230 C.2   6001  ADP6001     0.3518
@<TRIPOS>BOND
     1     7     5    2
     2     6     5    1
     3     4     1    2
     4     5     9    1
     5     5     8    1
     6     3     1    1
     7     1     8    1
     8     1     2    1
     9     9    10    1
    10    14    13    1
    11    13    11    1
    12    13    15    1
    13    10    11    1
    14    16    15    1
    15    11    12    1
    16    15    17    1
    17    12    17    1
    18    17    18    1
    19    19    18    1
    20    19    20    1
    21    18    27    1
    22    20    21    2
    23    27    21    1
    24    27    26    2
    25    21    22    1
    26    26    25    1
    27    22    23    1
    28    22    24    2
    29    25    24    1
