@<TRIPOS>MOLECULE
2d3c_P3P_A_1.pdb
 15 14 0 0 0
SMALL
GASTEIGER

@<TRIPOS>ATOM
      1  OTP       37.8080   17.2720   61.9550 O.co2 5001  P3P5001    -0.2441
      2  CP        36.6500   17.7730   61.9890 C.2   5001  P3P5001     0.3819
      3  OP        35.8790   17.7600   62.9930 O.co2 5001  P3P5001    -0.2441
      4  CAP       36.1340   18.4850   60.7620 C.3   5001  P3P5001     0.1949
      5  NP        36.3740   17.7970   59.4620 N.3   5001  P3P5001    -0.1208
      6  CBP       34.6520   18.8130   61.0150 C.3   5001  P3P5001     0.0408
      7  CGP       34.2790   19.8600   60.0030 C.3   5001  P3P5001     0.0895
      8  PDP       33.3430   21.1570   60.5420 P.3   5001  P3P5001     0.2318
      9  OEA       34.2410   21.7550   61.7400 O.2   5001  P3P5001    -0.2891
     10  CEP       33.0660   22.2300   59.2150 C.3   5001  P3P5001     0.0976
     11  OEB       32.0380   20.4570   61.1270 O.3   5001  P3P5001    -0.2251
     12  P12       30.6600   20.8850   60.4690 P.3   5001  P3P5001     0.5374
     13  O15       30.0660   19.5280   60.2240 O.3   5001  P3P5001    -0.1143
     14  O13       31.0010   21.6190   59.2050 O.2   5001  P3P5001    -0.2221
     15  O14       29.9680   21.6420   61.5780 O.3   5001  P3P5001    -0.1143
@<TRIPOS>BOND
     1    14    12    2
     2    10     8    1
     3     5     4    1
     4     7     8    1
     5     7     6    1
     6    13    12    1
     7    12    11    1
     8    12    15    1
     9     8    11    1
    10     8     9    2
    11     4     6    1
    12     4     2    1
    13     1     2   ar
    14     2     3   ar
