@<TRIPOS>MOLECULE
2d3l_GLC_A_1.pdb
 11 11 0 0 0
SMALL
GASTEIGER

@<TRIPOS>ATOM
      1  C1        22.7190  -46.2950   74.0150 C.3   601  GLC601      0.1777
      2  C2        23.1890  -47.6300   73.4300 C.3   601  GLC601      0.2141
      3  C3        22.4580  -47.9460   72.1170 C.3   601  GLC601      0.2173
      4  C4        20.9340  -47.8010   72.2670 C.3   601  GLC601      0.2142
      5  C5        20.5840  -46.4570   72.9040 C.3   601  GLC601      0.1810
      6  C6        19.1040  -46.3150   73.1900 C.3   601  GLC601      0.2141
      7  O2        24.5850  -47.5590   73.1780 O.3   601  GLC601     -0.2176
      8  O3        22.7730  -49.2730   71.7120 O.3   601  GLC601     -0.2175
      9  O4        20.3170  -47.8770   70.9850 O.3   601  GLC601     -0.2176
     10  O5        21.2960  -46.2850   74.1490 O.3   601  GLC601     -0.3481
     11  O6        18.4820  -45.5200   72.1870 O.3   601  GLC601     -0.2176
@<TRIPOS>BOND
     1     9     4    1
     2     8     3    1
     3     3     4    1
     4     3     2    1
     5    11     6    1
     6     4     5    1
     7     5     6    1
     8     5    10    1
     9     7     2    1
    10     2     1    1
    11     1    10    1
