@<TRIPOS>MOLECULE
2d3m_COA_A_1.pdb
 48 50 0 0 0
SMALL
GASTEIGER

@<TRIPOS>ATOM
      1  N1A       18.0380    0.0370   16.8680 N.2   500  COA500      0.0021
      2  C2A       17.5310   -1.2030   17.3450 C.3   500  COA500      0.5254
      3  N3A       17.4130   -1.4800   18.6870 N.2   500  COA500     -0.0055
      4  C4A       17.8520   -0.3910   19.5150 C.2   500  COA500      0.3518
      5  C5A       18.3660    0.8660   19.1360 C.2   500  COA500      0.2526
      6  C6A       18.4720    1.1130   17.7050 C.2   500  COA500      0.4393
      7  N6A       18.9500    2.2840   17.2110 N.pl3 500  COA500      0.2180
      8  N7A       18.6810    1.6550   20.2230 N.2   500  COA500     -0.2095
      9  C8A       18.3560    0.8700   21.2630 C.3   500  COA500      0.3377
     10  N9A       17.8520   -0.3740   20.9080 N.pl3 500  COA500     -0.1439
     11  C1B       17.3420   -1.6130   21.8260 C.3   500  COA500      0.3185
     12  C2B       18.1630   -2.3090   22.7970 C.3   500  COA500      0.2543
     13  O2B       18.8750   -3.0820   21.9190 O.3   500  COA500     -0.2131
     14  C3B       16.9820   -2.7450   23.6900 C.3   500  COA500      0.1928
     15  O3B       16.4330   -4.1270   23.4070 O.3   500  COA500     -0.2673
     16  P3B       17.0190   -5.6300   23.4200 P.3   500  COA500      0.5327
     17  O7A       15.6700   -6.4290   23.0780 O.3   500  COA500     -0.1145
     18  O8A       17.5210   -5.8560   24.7940 O.3   500  COA500     -0.1145
     19  O9A       18.1520   -5.8370   22.4430 O.2   500  COA500     -0.2224
     20  C4B       15.6850   -1.8300   23.6000 C.3   500  COA500      0.1795
     21  O4B       16.1230   -1.0130   22.3940 O.3   500  COA500     -0.3136
     22  C5B       15.5050   -0.7980   24.7960 C.3   500  COA500      0.1812
     23  O5B       16.8090   -0.3940   25.4710 O.3   500  COA500     -0.3112
     24  P1A       17.3190    0.0320   26.6530 P.3   500  COA500      0.2189
     25  O1A       16.4550   -0.6590   27.6770 O.3   500  COA500     -0.4371
     26  O2A       18.7840   -0.3390   26.6930 O.2   500  COA500     -0.5170
     27  O3A       17.1270    1.5900   26.6530 O.3   500  COA500     -0.2703
     28  P2A       17.9380    2.9060   26.3480 P.3   500  COA500      0.2188
     29  O4A       18.4950    3.3370   27.6480 O.3   500  COA500     -0.4371
     30  O5A       19.0610    2.6420   25.4160 O.2   500  COA500     -0.5170
     31  O6A       17.0510    4.1120   25.9900 O.3   500  COA500     -0.3138
     32  CBP       16.5480    5.1880   23.8090 C.3   500  COA500      0.0645
     33  CCP       16.2770    3.9210   24.7740 C.3   500  COA500      0.1519
     34  CDP       15.8190    6.3900   24.4710 C.3   500  COA500      0.0056
     35  CEP       15.9380    4.9240   22.4260 C.3   500  COA500      0.0056
     36  CAP       18.1230    5.3970   23.6310 C.3   500  COA500      0.2312
     37  OAP       18.7690    4.2780   22.9520 O.3   500  COA500     -0.2131
     38  C9P       18.5810    6.6500   22.7910 C.2   500  COA500      0.2719
     39  O9P       18.4610    7.7620   23.3980 O.2   500  COA500     -0.2706
     40  N8P       19.0490    6.4550   21.5420 N.am  500  COA500     -0.2028
     41  C7P       19.4820    7.7280   20.7630 C.3   500  COA500      0.1248
     42  C6P       18.5430    7.7590   19.5870 C.3   500  COA500      0.1102
     43  C5P       19.0250    8.7240   18.4860 C.2   500  COA500      0.2432
     44  O5P       19.9210    8.3520   18.1520 O.2   500  COA500     -0.2733
     45  N4P       18.2760    9.7970   18.1420 N.am  500  COA500     -0.2044
     46  C3P       18.8330   10.6930   17.0180 C.3   500  COA500      0.1276
     47  C2P       18.8330   10.1520   15.5920 C.3   500  COA500      0.0920
     48  S1P       18.1260   11.4870   14.5880 S.3   500  COA500     -0.0802
@<TRIPOS>BOND
     1    48    47    1
     2    47    46    1
     3     1     2    1
     4     1     6    2
     5    46    45    1
     6     7     6    1
     7     2     3    1
     8     6     5    1
     9    45    43   am
    10    44    43    2
    11    43    42    1
    12     3     4    2
    13     5     4    1
    14     5     8    2
    15     4    10    1
    16    42    41    1
    17     8     9    1
    18    41    40    1
    19    10     9    1
    20    10    11    1
    21    40    38   am
    22    11    21    1
    23    11    12    1
    24    13    12    1
    25    21    20    1
    26    35    32    1
    27    19    16    2
    28    38    39    2
    29    38    36    1
    30    12    14    1
    31    37    36    1
    32    17    16    1
    33    15    16    1
    34    15    14    1
    35    16    18    1
    36    20    14    1
    37    20    22    1
    38    36    32    1
    39    32    34    1
    40    32    33    1
    41    33    31    1
    42    22    23    1
    43    30    28    2
    44    23    24    1
    45    31    28    1
    46    28    27    1
    47    28    29    1
    48    27    24    1
    49    24    26    2
    50    24    25    1
