@<TRIPOS>MOLECULE
2d3n_GLC_A_10.pdb
 12 12 0 0 0
SMALL
GASTEIGER

@<TRIPOS>ATOM
      1  C1        44.6240  -51.1170   81.4250 C.3   622  GLC622      0.3024
      2  C2        44.4730  -49.6540   81.0000 C.3   622  GLC622      0.2434
      3  C3        44.4470  -48.7610   82.2360 C.3   622  GLC622      0.2199
      4  C4        43.3660  -49.2170   83.2180 C.3   622  GLC622      0.2144
      5  C5        43.5110  -50.7160   83.5260 C.3   622  GLC622      0.1836
      6  C6        42.3460  -51.2510   84.3390 C.3   622  GLC622      0.2142
      7  O1        45.8760  -51.3050   82.0200 O.3   622  GLC622     -0.1869
      8  O2        45.5620  -49.2780   80.1720 O.3   622  GLC622     -0.2148
      9  O3        44.2060  -47.4140   81.8530 O.3   622  GLC622     -0.2174
     10  O4        43.5110  -48.4680   84.4350 O.3   622  GLC622     -0.2176
     11  O5        43.5600  -51.4790   82.3000 O.3   622  GLC622     -0.3236
     12  O6        42.4930  -52.6400   84.5960 O.3   622  GLC622     -0.2176
@<TRIPOS>BOND
     1     8     2    1
     2     2     1    1
     3     2     3    1
     4     1     7    1
     5     1    11    1
     6     9     3    1
     7     3     4    1
     8    11     5    1
     9     4     5    1
    10     4    10    1
    11     5     6    1
    12     6    12    1
