@<TRIPOS>MOLECULE
2d3q_HEM_A_1.pdb
 43 50 0 0 0
SMALL
GASTEIGER

@<TRIPOS>ATOM
      1  CHA       44.0670   47.5520   11.2300 C.2   446  HEM446      0.0000
      2  CHB       47.4270   46.2140    9.1000 C.2   446  HEM446      0.0000
      3  CHC       46.1430   46.7830    5.1520 C.2   446  HEM446      0.0000
      4  CHD       42.2360   47.7920    7.1110 C.2   446  HEM446      0.0000
      5  C1A       45.3610   47.0860   11.4330 C.2   446  HEM446      0.0000
      6  C2A       46.4030   46.9770   12.4260 C.2   446  HEM446      0.0000
      7  C3A       47.5740   46.7600   11.7610 C.2   446  HEM446      0.0000
      8  C4A       47.1980   46.7430   10.3550 C.2   446  HEM446      0.0000
      9  CMA       48.9750   46.2730   11.9460 C.3   446  HEM446      0.0000
     10  CAA       46.3050   47.0680   13.9380 C.3   446  HEM446      0.0000
     11  CBA       45.2130   46.1870   14.6030 C.3   446  HEM446      0.0000
     12  CGA       43.8220   46.4120   14.7770 C.2   446  HEM446      0.0000
     13  O1A       43.3710   47.5870   15.1620 O.co2 446  HEM446      0.0000
     14  O2A       43.6380   45.2180   14.4310 O.co2 446  HEM446      0.0000
     15  C1B       48.0740   46.2970    7.8810 C.ar  446  HEM446      0.0000
     16  C2B       49.1890   45.9390    7.0240 C.ar  446  HEM446      0.0000
     17  C3B       48.6770   46.0620    5.7710 C.ar  446  HEM446      0.0000
     18  C4B       47.2870   46.4830    5.8750 C.ar  446  HEM446      0.0000
     19  CMB       50.5770   45.8470    7.5730 C.3   446  HEM446      0.0000
     20  CAB       49.1610   45.6950    4.4090 C.3   446  HEM446      0.0000
     21  CBB       50.6360   45.4550    4.0170 C.3   446  HEM446      0.0000
     22  C1C       44.8370   47.1530    5.0180 C.2   446  HEM446      0.0000
     23  C2C       43.9500   47.4050    3.9000 C.2   446  HEM446      0.0000
     24  C3C       42.8350   47.7510    4.5690 C.2   446  HEM446      0.0000
     25  C4C       43.0490   47.7060    5.9940 C.2   446  HEM446      0.0000
     26  CMC       44.3590   47.2890    2.4530 C.3   446  HEM446      0.0000
     27  CAC       41.5380   48.2930    3.9810 C.3   446  HEM446      0.0000
     28  CBC       41.2160   48.9920    2.6250 C.3   446  HEM446      0.0000
     29  C1D       42.0700   47.7690    8.4910 C.ar  446  HEM446      0.0000
     30  C2D       41.0600   47.8190    9.5390 C.ar  446  HEM446      0.0000
     31  C3D       41.5270   47.8220   10.8060 C.ar  446  HEM446      0.0000
     32  C4D       42.9410   47.7660   10.4180 C.ar  446  HEM446      0.0000
     33  CMD       39.6230   47.9560    9.1430 C.3   446  HEM446      0.0000
     34  CAD       41.0360   48.0400   12.2040 C.3   446  HEM446      0.0000
     35  CBD       40.5700   49.5240   12.5440 C.3   446  HEM446      0.0000
     36  CGD       39.9020   49.5360   13.7870 C.2   446  HEM446      0.0000
     37  O1D       40.5040   50.2350   14.6740 O.co2 446  HEM446      0.0000
     38  O2D       38.8190   48.9160   14.0170 O.co2 446  HEM446      0.0000
     39  NA        45.8460   46.9410   10.1520 N.2   446  HEM446      0.0000
     40  NB        46.9150   46.6290    7.2140 N.ar  446  HEM446      0.0000
     41  NC        44.3300   47.3240    6.3160 N.2   446  HEM446      0.0000
     42  ND        43.3040   47.7340    9.1060 N.ar  446  HEM446      0.0000
     43 FE         45.1220   47.2960    8.2140 Fe    446  HEM446      0.0000
@<TRIPOS>BOND
     1    26    23    1
     2    28    27    1
     3    23    24    2
     4    23    22    1
     5    27    24    1
     6    21    20    1
     7    20    17    1
     8    24    25    1
     9    22     3    2
    10    22    41    1
    11     3    18    1
    12    17    18   ar
    13    17    16   ar
    14    18    40   ar
    15    25    41    2
    16    25     4    1
    17    41    43    1
    18    16    19    1
    19    16    15   ar
    20     4    29    2
    21    40    15   ar
    22    40    43    1
    23    15     2    1
    24    43    42    1
    25    43    39    1
    26    29    42   ar
    27    29    30   ar
    28     2     8    2
    29    42    32   ar
    30    33    30    1
    31    30    31   ar
    32    39     8    1
    33    39     5    2
    34     8     7    1
    35    32    31   ar
    36    32     1    2
    37    31    34    1
    38     1     5    1
    39     5     6    1
    40     7     9    1
    41     7     6    2
    42    34    35    1
    43     6    10    1
    44    35    36    1
    45    36    38   ar
    46    36    37   ar
    47    10    11    1
    48    14    12   ar
    49    11    12    1
    50    12    13   ar
