@<TRIPOS>MOLECULE
2d3s_TNR_A_1.pdb
 21 21 0 0 0
SMALL
GASTEIGER

@<TRIPOS>ATOM
      1  OXT      127.5400   12.7200   -1.8620 O.co2 401  TNR401     -0.2440
      2  C        127.5550   12.0340   -2.8960 C.2   401  TNR401      0.3844
      3  O        126.5210   11.9350   -3.5680 O.co2 401  TNR401     -0.2440
      4  CA       128.8500   11.3070   -3.3370 C.3   401  TNR401      0.2237
      5  N        129.9300   11.4870   -2.3610 N.3   401  TNR401     -0.1181
      6  CB       128.6080    9.8020   -3.5390 C.3   401  TNR401      0.1753
      7  O1       128.0570    9.2190   -2.3680 O.3   401  TNR401     -0.3270
      8  C1       127.5920    7.8740   -2.4090 C.3   401  TNR401      0.2586
      9  C2       126.3070    7.7740   -1.5680 C.3   401  TNR401      0.1842
     10  N2       125.3280    8.6790   -2.1340 N.am  401  TNR401     -0.1992
     11  C7       124.1130    8.2880   -2.5170 C.2   401  TNR401      0.2420
     12  C8       123.2330    9.3660   -3.0810 C.3   401  TNR401      0.0964
     13  O7       123.7450    7.1270   -2.4140 O.2   401  TNR401     -0.2733
     14  C3       126.6320    8.1120   -0.1020 C.3   401  TNR401      0.2094
     15  O3       125.4540    8.0180    0.6900 O.3   401  TNR401     -0.2183
     16  C4       127.6920    7.1400    0.4160 C.3   401  TNR401      0.2136
     17  O4       127.1560    5.8180    0.3560 O.3   401  TNR401     -0.2176
     18  C5       128.9320    7.2610   -0.4790 C.3   401  TNR401      0.1834
     19  O5       128.6180    7.0040   -1.8760 O.3   401  TNR401     -0.3262
     20  C6       130.0160    6.3050   -0.0320 C.3   401  TNR401      0.2142
     21  O6       131.2180    6.6330   -0.7410 O.3   401  TNR401     -0.2176
@<TRIPOS>BOND
     1     3     2   ar
     2     6     4    1
     3     6     7    1
     4     4     2    1
     5     4     5    1
     6    12    11    1
     7     2     1   ar
     8    11    13    2
     9    11    10   am
    10     8     7    1
    11     8    19    1
    12     8     9    1
    13    10     9    1
    14    19    18    1
    15     9    14    1
    16    21    20    1
    17    18    20    1
    18    18    16    1
    19    14    16    1
    20    14    15    1
    21    17    16    1
