@<TRIPOS>MOLECULE
2d3s_NAG_A_1.pdb
 14 14 0 0 0
SMALL
GASTEIGER

@<TRIPOS>ATOM
      1  C1       141.0890    2.0910    3.8080 C.3   501  NAG501      0.1665
      2  C2       142.1000    3.2010    3.4840 C.3   501  NAG501      0.1576
      3  C3       143.5400    2.7150    3.6730 C.3   501  NAG501      0.2069
      4  C4       143.7090    2.1120    5.0640 C.3   501  NAG501      0.2134
      5  C5       142.6690    1.0050    5.2560 C.3   501  NAG501      0.1809
      6  C6       142.7310    0.3770    6.6280 C.3   501  NAG501      0.2141
      7  C7       141.4440    4.8780    1.8920 C.2   501  NAG501      0.2420
      8  C8       140.6280    5.0720    0.6230 C.3   501  NAG501      0.0964
      9  N2       141.9190    3.6590    2.1220 N.am  501  NAG501     -0.2019
     10  O3       144.4460    3.8230    3.5050 O.3   501  NAG501     -0.2184
     11  O4       145.0390    1.5700    5.2040 O.3   501  NAG501     -0.2176
     12  O5       141.3440    1.5480    5.1140 O.3   501  NAG501     -0.3489
     13  O6       142.4100    1.3270    7.6310 O.3   501  NAG501     -0.2176
     14  O7       141.6310    5.8280    2.6580 O.2   501  NAG501     -0.2733
@<TRIPOS>BOND
     1     8     7    1
     2     7     9   am
     3     7    14    2
     4     9     2    1
     5     2     3    1
     6     2     1    1
     7    10     3    1
     8     3     4    1
     9     1    12    1
    10     4    11    1
    11     4     5    1
    12    12     5    1
    13     5     6    1
    14     6    13    1
