@<TRIPOS>MOLECULE
2d3t_NAD_A_1.pdb
 44 48 0 0 0
SMALL
GASTEIGER

@<TRIPOS>ATOM
      1  PA        23.1220  -32.4120   83.2090 P.3   1001  NAD1001     0.2189
      2  O1A       22.7350  -30.9930   83.4330 O.2   1001  NAD1001    -0.5170
      3  O2A       22.1580  -33.4360   83.6980 O.3   1001  NAD1001    -0.4371
      4  O5B       23.3000  -32.6580   81.6400 O.3   1001  NAD1001    -0.3112
      5  C5B       23.7330  -33.9120   81.1120 C.3   1001  NAD1001     0.1813
      6  C4B       24.0540  -33.7290   79.6450 C.3   1001  NAD1001     0.1821
      7  O4B       24.9870  -34.7750   79.2190 O.3   1001  NAD1001    -0.3135
      8  C3B       22.8200  -33.8940   78.7440 C.3   1001  NAD1001     0.2184
      9  O3B       22.8110  -32.9060   77.7140 O.3   1001  NAD1001    -0.2174
     10  C2B       22.9740  -35.3000   78.1690 C.3   1001  NAD1001     0.2570
     11  O2B       22.3530  -35.4600   76.9050 O.3   1001  NAD1001    -0.2130
     12  C1B       24.4940  -35.3960   78.0430 C.3   1001  NAD1001     0.3186
     13  N9A       24.9860  -36.7920   77.9960 N.pl3 1001  NAD1001    -0.1439
     14  C8A       24.6610  -37.8560   78.8160 C.3   1001  NAD1001     0.3377
     15  N7A       25.2760  -38.9780   78.5130 N.2   1001  NAD1001    -0.2095
     16  C5A       26.0370  -38.6500   77.3980 C.2   1001  NAD1001     0.2526
     17  C6A       26.9650  -39.3880   76.5940 C.2   1001  NAD1001     0.4393
     18  N6A       27.2190  -40.6880   76.7690 N.pl3 1001  NAD1001     0.2180
     19  N1A       27.5810  -38.7410   75.5460 N.2   1001  NAD1001     0.0021
     20  C2A       27.3260  -37.4230   75.3470 C.3   1001  NAD1001     0.5254
     21  N3A       26.4960  -36.6210   76.0480 N.2   1001  NAD1001    -0.0055
     22  C4A       25.8890  -37.2940   77.0800 C.2   1001  NAD1001     0.3518
     23  O3        24.5190  -32.6600   83.9570 O.3   1001  NAD1001    -0.2703
     24  PN        25.7380  -31.6310   83.8180 P.3   1001  NAD1001     0.2189
     25  O1N       25.7610  -31.0970   82.4320 O.2   1001  NAD1001    -0.5170
     26  O2N       25.5830  -30.6200   84.9040 O.3   1001  NAD1001    -0.4371
     27  O5D       27.1100  -32.4050   84.0610 O.3   1001  NAD1001    -0.3112
     28  C5D       27.3300  -33.1290   85.2730 C.3   1001  NAD1001     0.1813
     29  C4D       28.8110  -33.2030   85.5600 C.3   1001  NAD1001     0.1799
     30  O4D       29.2370  -31.9330   86.1340 O.3   1001  NAD1001    -0.3327
     31  C3D       29.1590  -34.2540   86.6310 C.3   1001  NAD1001     0.2158
     32  O3D       30.3770  -34.9140   86.3180 O.3   1001  NAD1001    -0.2175
     33  C2D       29.2780  -33.4360   87.9130 C.3   1001  NAD1001     0.2309
     34  O2D       30.1270  -34.0470   88.8850 O.3   1001  NAD1001    -0.2158
     35  C1D       29.9090  -32.1430   87.3720 C.3   1001  NAD1001     0.2263
     36  N1N       29.7570  -31.0100   88.3400 N.pl3 1001  NAD1001    -0.2787
     37  C2N       28.5190  -30.4200   88.5620 C.3   1001  NAD1001     0.1244
     38  C3N       28.3850  -29.3610   89.4640 C.2   1001  NAD1001     0.0544
     39  C7N       26.9810  -28.6680   89.7320 C.2   1001  NAD1001     0.2818
     40  O7N       26.5220  -27.8840   88.9210 O.2   1001  NAD1001    -0.2670
     41  N7N       26.3730  -29.0070   90.8900 N.am  1001  NAD1001    -0.0839
     42  C4N       29.5180  -28.8380   90.1950 C.2   1001  NAD1001     0.0033
     43  C5N       30.7390  -29.5030   89.9060 C.2   1001  NAD1001     0.0157
     44  C6N       30.9390  -30.5580   89.0230 C.2   1001  NAD1001     0.0633
@<TRIPOS>BOND
     1    20    19    1
     2    20    21    1
     3    19    17    2
     4    21    22    2
     5    17    18    1
     6    17    16    1
     7    11    10    1
     8    22    16    1
     9    22    13    1
    10    16    15    2
    11     9     8    1
    12    13    12    1
    13    13    14    1
    14    12    10    1
    15    12     7    1
    16    10     8    1
    17    15    14    1
    18     8     6    1
    19     7     6    1
    20     6     5    1
    21     5     4    1
    22     4     1    1
    23    25    24    2
    24     1     2    2
    25     1     3    1
    26     1    23    1
    27    24    23    1
    28    24    27    1
    29    24    26    1
    30    27    28    1
    31    28    29    1
    32    29    30    1
    33    29    31    1
    34    30    35    1
    35    32    31    1
    36    31    33    1
    37    35    33    1
    38    35    36    1
    39    33    34    1
    40    36    37    1
    41    36    44    1
    42    37    38    1
    43    40    39    2
    44    44    43    2
    45    38    39    1
    46    38    42    2
    47    39    41   am
    48    43    42    1
