@<TRIPOS>MOLECULE
2d3u_CCT_A_1.pdb
 27 29 0 0 0
SMALL
GASTEIGER

@<TRIPOS>ATOM
      1  C1        12.9300   30.8710   73.5550 C.ar  1001  CCT1001     0.0103
      2  C2        12.9040   29.5940   72.9150 C.ar  1001  CCT1001     0.0684
      3  C3        11.6750   28.8760   72.8760 C.ar  1001  CCT1001     0.0103
      4  C4        10.5040   29.4160   73.4550 C.ar  1001  CCT1001     0.0012
      5  C5        10.5200   30.6920   74.0920 C.ar  1001  CCT1001     0.0061
      6  C6        11.7530   31.4110   74.1340 C.ar  1001  CCT1001     0.0012
      7  C7         6.8840   31.7970   75.1110 C.ar  1001  CCT1001     0.1259
      8  C8         7.7330   32.3920   76.0330 C.ar  1001  CCT1001     0.1039
      9  C9         9.1080   32.0610   75.7680 C.ar  1001  CCT1001     0.0252
     10  C10        9.2770   31.2340   74.6690 C.ar  1001  CCT1001     0.0310
     11  S11        7.7570   30.8740   73.9820 S.2   1001  CCT1001    -0.0791
     12  C12       14.0830   29.0400   72.3180 C.1   1001  CCT1001     0.1004
     13  N13       15.0430   28.5810   71.8110 N.1   1001  CCT1001    -0.1908
     14  C14        5.4020   31.9440   75.1070 C.2   1001  CCT1001     0.3950
     15  O15        4.7680   31.2300   74.3130 O.co2 1001  CCT1001    -0.2399
     16  O16        4.8680   32.7870   75.8710 O.co2 1001  CCT1001    -0.2399
     17  N17        7.3010   33.2370   77.1370 N.pl3 1001  CCT1001    -0.0958
     18  S18        8.2820   34.5020   77.6890 S.O2  1001  CCT1001     0.0925
     19  C19        7.7750   36.4670   75.7110 C.ar  1001  CCT1001    -0.0029
     20  C20        8.7330   35.6820   76.4270 C.ar  1001  CCT1001     0.1231
     21  C21       10.1250   35.8300   76.1460 C.ar  1001  CCT1001     0.0199
     22  C22       10.5780   36.7400   75.1660 C.ar  1001  CCT1001     0.0014
     23  C23        9.6350   37.5250   74.4500 C.ar  1001  CCT1001    -0.0002
     24  C24        8.2460   37.3870   74.7200 C.ar  1001  CCT1001    -0.0029
     25  C25        6.2860   36.3670   75.9520 C.3   1001  CCT1001     0.0324
     26  O26        9.4810   33.8970   78.2520 O.2   1001  CCT1001    -0.1483
     27  O27        7.4830   35.1830   78.6860 O.2   1001  CCT1001    -0.1483
@<TRIPOS>BOND
     1    13    12    3
     2    12     2    1
     3     3     2   ar
     4     3     4   ar
     5     2     1   ar
     6     4     5   ar
     7     1     6   ar
     8    11    10   ar
     9    11     7   ar
    10     5     6   ar
    11     5    10    1
    12    15    14   ar
    13    23    24   ar
    14    23    22   ar
    15    10     9   ar
    16    24    19   ar
    17    14     7    1
    18    14    16   ar
    19     7     8   ar
    20    22    21   ar
    21    19    25    1
    22    19    20   ar
    23     9     8   ar
    24     8    17    1
    25    21    20   ar
    26    20    18    1
    27    17    18    1
    28    18    26    2
    29    18    27    2
