@<TRIPOS>MOLECULE
2d3y_DU_A_1.pdb
 20 21 0 0 0
SMALL
GASTEIGER

@<TRIPOS>ATOM
      1  OP3        8.8010   33.3750   20.9240 O.3   221  DU221      -0.1145
      2  P          8.5000   33.7450   19.5380 P.3   221  DU221       0.5327
      3  OP1        9.5990   34.5540   18.9420 O.2   221  DU221      -0.2224
      4  OP2        7.2480   34.4850   19.4910 O.3   221  DU221      -0.1145
      5  O5'        8.3310   32.4350   18.6620 O.3   221  DU221      -0.2675
      6  C5'        8.9560   32.2020   17.3690 C.3   221  DU221       0.1858
      7  C4'        8.5310   30.8040   16.8660 C.3   221  DU221       0.1774
      8  O4'        9.5930   30.2070   16.0120 O.3   221  DU221      -0.3339
      9  C3'        8.4970   29.7470   17.9680 C.3   221  DU221       0.1857
     10  O3'        7.6710   28.6670   17.4690 O.3   221  DU221      -0.2203
     11  C2'       10.0190   29.2660   18.1670 C.3   221  DU221       0.0874
     12  C1'       10.5300   29.2530   16.6940 C.3   221  DU221       0.2090
     13  N1        11.9840   29.6680   16.8780 N.am  221  DU221      -0.1790
     14  C2        12.9550   28.7740   17.5510 C.1   221  DU221       0.2844
     15  O2        12.6890   27.6810   18.0060 O.2   221  DU221      -0.1918
     16  N3        14.2740   29.3020   17.6310 N.2   221  DU221      -0.2452
     17  C4        14.7410   30.5710   17.1420 C.1   221  DU221       0.2182
     18  O4        15.9270   30.8830   17.2890 O.2   221  DU221      -0.2085
     19  C5        13.7470   31.4040   16.4960 C.2   221  DU221       0.1242
     20  C6        12.4690   30.9530   16.3880 C.2   221  DU221       0.0928
@<TRIPOS>BOND
     1     8    12    1
     2     8     7    1
     3    20    19    2
     4    20    13    1
     5    19    17    1
     6    12    13    1
     7    12    11    1
     8     7     6    1
     9     7     9    1
    10    13    14   am
    11    17    18    2
    12    17    16    2
    13     6     5    1
    14    10     9    1
    15    14    16    2
    16    14    15    2
    17     9    11    1
    18     5     2    1
    19     3     2    2
    20     4     2    1
    21     2     1    1
