@<TRIPOS>MOLECULE
2d3z_FIH_A_1.pdb
 26 28 0 0 0
SMALL
GASTEIGER

@<TRIPOS>ATOM
      1  C1        13.1800   31.3790   73.3040 C.ar  2001  FIH2001     0.0297
      2  C2        13.1300   30.3960   72.2700 C.ar  2001  FIH2001     0.1401
      3  C3        11.8850   29.7900   71.9620 C.ar  2001  FIH2001     0.0297
      4  C4        10.7110   30.1540   72.6660 C.ar  2001  FIH2001     0.0028
      5  C5        10.7390   31.1360   73.7000 C.ar  2001  FIH2001     0.0062
      6  C6        11.9960   31.7470   74.0120 C.ar  2001  FIH2001     0.0028
      7  C7         7.0760   31.9050   74.9850 C.ar  2001  FIH2001     0.1259
      8  C8         7.9150   32.2730   76.0280 C.ar  2001  FIH2001     0.1039
      9  C9         9.2970   32.0410   75.6900 C.ar  2001  FIH2001     0.0252
     10  C10        9.4820   31.5070   74.4150 C.ar  2001  FIH2001     0.0310
     11  S11        7.9570   31.3000   73.6670 S.2   2001  FIH2001    -0.0791
     12  F12       14.2100   30.0530   71.6110 F     2001  FIH2001    -0.2042
     13  C14        5.5950   32.0130   74.9890 C.2   2001  FIH2001     0.3950
     14  O15        4.9690   31.4060   74.0950 O.co2 2001  FIH2001    -0.2399
     15  O16        5.0480   32.7110   75.8690 O.co2 2001  FIH2001    -0.2399
     16  N17        7.4610   32.8240   77.3080 N.pl3 2001  FIH2001    -0.0958
     17  S18        8.1820   34.1980   78.0070 S.O2  2001  FIH2001     0.0928
     18  C19        7.3500   36.3870   76.4550 C.ar  2001  FIH2001     0.0199
     19  C20        8.4490   35.5690   76.8630 C.ar  2001  FIH2001     0.1270
     20  C21        9.7580   35.8370   76.3620 C.ar  2001  FIH2001     0.0199
     21  C22        9.9680   36.9150   75.4580 C.ar  2001  FIH2001    -0.0029
     22  C23        8.8750   37.7290   75.0520 C.ar  2001  FIH2001    -0.0218
     23  C24        7.5670   37.4640   75.5520 C.ar  2001  FIH2001    -0.0029
     24  C25        9.1030   38.8670   74.0940 C.3   2001  FIH2001     0.0310
     25  O26        9.4660   33.7560   78.5380 O.2   2001  FIH2001    -0.1483
     26  O27        7.2740   34.6330   79.0650 O.2   2001  FIH2001    -0.1483
@<TRIPOS>BOND
     1    12     2    1
     2     3     2   ar
     3     3     4   ar
     4     2     1   ar
     5     4     5   ar
     6     1     6   ar
     7    11    10   ar
     8    11     7   ar
     9     5     6   ar
    10     5    10    1
    11    24    22    1
    12    14    13   ar
    13    10     9   ar
    14     7    13    1
    15     7     8   ar
    16    13    15   ar
    17    22    21   ar
    18    22    23   ar
    19    21    20   ar
    20    23    18   ar
    21     9     8   ar
    22     8    16    1
    23    20    19   ar
    24    18    19   ar
    25    19    17    1
    26    16    17    1
    27    17    25    2
    28    17    26    2
