@<TRIPOS>MOLECULE
2d41_SNH_A_1.pdb
 28 30 0 0 0
SMALL
GASTEIGER

@<TRIPOS>ATOM
      1  C1         9.0610   32.4490   72.4310 C.ar  1001  SNH1001     0.0370
      2  C2         8.8610   33.1760   73.5840 C.ar  1001  SNH1001     0.0257
      3  C3         7.4890   33.5370   73.8300 C.ar  1001  SNH1001     0.1039
      4  C4         6.6630   33.0540   72.8140 C.ar  1001  SNH1001     0.1259
      5  S5         7.5930   32.1870   71.6260 S.2   1001  SNH1001    -0.0786
      6  C6         5.1930   33.2310   72.7220 C.2   1001  SNH1001     0.3950
      7  O7         4.6080   32.7310   71.7430 O.co2 1001  SNH1001    -0.2399
      8  O8         4.5800   33.8640   73.6070 O.co2 1001  SNH1001    -0.2399
      9  N9         7.0370   34.2700   74.9450 N.pl3 1001  SNH1001    -0.0958
     10  S11        7.8650   35.5180   75.7150 S.O2  1001  SNH1001     0.0925
     11  O12        7.0040   36.1520   76.6860 O.2   1001  SNH1001    -0.1483
     12  O13        9.0630   34.9350   76.3010 O.2   1001  SNH1001    -0.1483
     13  C14        8.3010   36.7670   74.4830 C.ar  1001  SNH1001     0.1231
     14  C15        9.6810   36.9320   74.1700 C.ar  1001  SNH1001     0.0196
     15  C16       10.1080   37.8840   73.2120 C.ar  1001  SNH1001    -0.0029
     16  C17        9.1630   38.6990   72.5400 C.ar  1001  SNH1001    -0.0221
     17  C18        7.7820   38.5350   72.8510 C.ar  1001  SNH1001    -0.0072
     18  C19        7.3250   37.5810   73.8130 C.ar  1001  SNH1001    -0.0032
     19  C20        5.8310   37.4860   74.0660 C.3   1001  SNH1001     0.0324
     20  C21        9.5970   39.7140   71.5210 C.3   1001  SNH1001     0.0310
     21  C22       10.3490   31.9400   71.9220 C.ar  1001  SNH1001     0.0356
     22  C23       10.4980   30.8230   71.1280 C.ar  1001  SNH1001     0.0076
     23  C24       11.8410   30.5560   70.7840 C.ar  1001  SNH1001     0.0099
     24  C25       12.7230   31.4800   71.3220 C.ar  1001  SNH1001     0.0641
     25  S26       11.8710   32.6570   72.2370 S.2   1001  SNH1001    -0.0836
     26  C27       14.2080   31.4610   71.1380 C.2   1001  SNH1001     0.1794
     27  C28       14.8470   30.3610   70.2990 C.3   1001  SNH1001     0.0778
     28  O29       14.9220   32.3130   71.6490 O.2   1001  SNH1001    -0.2908
@<TRIPOS>BOND
     1    27    26    1
     2    23    22   ar
     3    23    24   ar
     4    22    21   ar
     5    26    24    1
     6    26    28    2
     7    24    25   ar
     8    20    16    1
     9     5     1   ar
    10     5     4   ar
    11     7     6   ar
    12    21    25   ar
    13    21     1    1
    14     1     2   ar
    15    16    17   ar
    16    16    15   ar
    17     6     4    1
    18     6     8   ar
    19     4     3   ar
    20    17    18   ar
    21    15    14   ar
    22     2     3   ar
    23    18    19    1
    24    18    13   ar
    25     3     9    1
    26    14    13   ar
    27    13    10    1
    28     9    10    1
    29    10    12    2
    30    10    11    2
