@<TRIPOS>MOLECULE
2d44_AHR_A_1.pdb
 10 10 0 0 0
SMALL
GASTEIGER

@<TRIPOS>ATOM
      1  O5'       35.4640    3.2810   18.0850 O.3   700  AHR700     -0.2176
      2  C5'       35.9210    3.9410   16.9130 C.3   700  AHR700      0.2142
      3  C4'       35.5440    5.4610   16.9050 C.3   700  AHR700      0.1837
      4  O4'       36.3130    6.1320   17.8700 O.3   700  AHR700     -0.3236
      5  C3'       34.1260    5.8170   17.3520 C.3   700  AHR700      0.2169
      6  O3'       33.1110    5.4980   16.3850 O.3   700  AHR700     -0.2175
      7  C2'       34.2130    7.3070   17.6890 C.3   700  AHR700      0.2433
      8  O2'       33.3490    7.6200   18.8210 O.3   700  AHR700     -0.2148
      9  C1'       35.7210    7.4390   18.0510 C.3   700  AHR700      0.3024
     10  O1'       36.4230    8.4470   17.2560 O.3   700  AHR700     -0.1869
@<TRIPOS>BOND
     1     6     5    1
     2     3     2    1
     3     3     5    1
     4     3     4    1
     5     2     1    1
     6    10     9    1
     7     5     7    1
     8     7     9    1
     9     7     8    1
    10     4     9    1
