@<TRIPOS>MOLECULE
2d4e_NAD_C_1.pdb
 44 48 0 0 0
SMALL
GASTEIGER

@<TRIPOS>ATOM
      1  PA       -22.8070    2.5750   27.7130 P.3   1701  NAD1701     0.2189
      2  O1A      -24.0480    2.3300   28.4390 O.3   1701  NAD1701    -0.4371
      3  O2A      -22.5980    1.6030   26.6260 O.2   1701  NAD1701    -0.5170
      4  O5B      -22.7250    4.0460   27.0320 O.3   1701  NAD1701    -0.3112
      5  C5B      -22.2140    4.3330   25.6880 C.3   1701  NAD1701     0.1813
      6  C4B      -23.2840    5.0920   24.9340 C.3   1701  NAD1701     0.1821
      7  O4B      -24.3150    4.1100   24.6910 O.3   1701  NAD1701    -0.3135
      8  C3B      -23.9920    6.2100   25.7500 C.3   1701  NAD1701     0.2184
      9  O3B      -23.9460    7.4650   25.0390 O.3   1701  NAD1701    -0.2174
     10  C2B      -25.4090    5.6430   25.9360 C.3   1701  NAD1701     0.2570
     11  O2B      -26.4270    6.6660   26.0150 O.3   1701  NAD1701    -0.2130
     12  C1B      -25.5410    4.7430   24.7240 C.3   1701  NAD1701     0.3186
     13  N9A      -26.5620    3.7260   24.8960 N.pl3 1701  NAD1701    -0.1439
     14  C8A      -26.8710    2.9680   26.0110 C.3   1701  NAD1701     0.3377
     15  N7A      -27.8970    2.1070   25.8160 N.2   1701  NAD1701    -0.2095
     16  C5A      -28.2480    2.3450   24.4870 C.2   1701  NAD1701     0.2526
     17  C6A      -29.2690    1.7640   23.6440 C.2   1701  NAD1701     0.4393
     18  N6A      -30.1130    0.8190   24.0660 N.pl3 1701  NAD1701     0.2180
     19  N1A      -29.3420    2.2430   22.3440 N.2   1701  NAD1701     0.0021
     20  C2A      -28.4610    3.2300   21.9120 C.3   1701  NAD1701     0.5254
     21  N3A      -27.5010    3.8190   22.6110 N.2   1701  NAD1701    -0.0055
     22  C4A      -27.4350    3.3380   23.8980 C.2   1701  NAD1701     0.3518
     23  O3       -21.6770    2.5530   28.7320 O.3   1701  NAD1701    -0.2703
     24  PN       -20.5750    3.5270   29.3250 P.3   1701  NAD1701     0.2189
     25  O1N      -20.7500    3.4750   30.7910 O.3   1701  NAD1701    -0.4371
     26  O2N      -20.7100    4.8520   28.6970 O.2   1701  NAD1701    -0.5170
     27  O5D      -19.4080    2.6110   28.8800 O.3   1701  NAD1701    -0.3112
     28  C5D      -18.1080    2.5430   29.4140 C.3   1701  NAD1701     0.1813
     29  C4D      -17.6470    1.4240   28.5340 C.3   1701  NAD1701     0.1799
     30  O4D      -17.1070    1.9030   27.2820 O.3   1701  NAD1701    -0.3327
     31  C3D      -16.6720    0.4270   29.1440 C.3   1701  NAD1701     0.2158
     32  O3D      -17.0840   -0.9420   28.9580 O.3   1701  NAD1701    -0.2175
     33  C2D      -15.3800    0.7990   28.4190 C.3   1701  NAD1701     0.2309
     34  O2D      -14.4710   -0.3210   28.3880 O.3   1701  NAD1701    -0.2158
     35  C1D      -15.9040    1.2290   27.0670 C.3   1701  NAD1701     0.2263
     36  N1N      -14.9620    2.0770   26.3180 N.pl3 1701  NAD1701    -0.2787
     37  C2N      -14.3580    1.4080   25.2640 C.3   1701  NAD1701     0.1244
     38  C3N      -13.4440    2.1370   24.5180 C.2   1701  NAD1701     0.0544
     39  C7N      -12.6940    1.5160   23.3490 C.2   1701  NAD1701     0.2818
     40  O7N      -11.9080    2.2110   22.7310 O.2   1701  NAD1701    -0.2670
     41  N7N      -12.8980    0.2270   23.0240 N.am  1701  NAD1701    -0.0839
     42  C4N      -13.1360    3.5390   24.8360 C.2   1701  NAD1701     0.0033
     43  C5N      -13.8370    4.0910   25.9470 C.2   1701  NAD1701     0.0157
     44  C6N      -14.7500    3.4340   26.7260 C.2   1701  NAD1701     0.0633
@<TRIPOS>BOND
     1    20    19    1
     2    20    21    1
     3    19    17    2
     4    21    22    2
     5    40    39    2
     6    41    39   am
     7    39    38    1
     8    17    18    1
     9    17    16    1
    10    22    16    1
    11    22    13    1
    12    16    15    2
    13    38    42    2
    14    38    37    1
    15     7    12    1
    16     7     6    1
    17    12    13    1
    18    12    10    1
    19    42    43    1
    20    13    14    1
    21     6     5    1
    22     6     8    1
    23     9     8    1
    24    37    36    1
    25     5     4    1
    26     8    10    1
    27    15    14    1
    28    10    11    1
    29    43    44    2
    30    36    44    1
    31    36    35    1
    32     3     1    2
    33     4     1    1
    34    35    30    1
    35    35    33    1
    36    30    29    1
    37     1     2    1
    38     1    23    1
    39    34    33    1
    40    33    31    1
    41    29    31    1
    42    29    28    1
    43    26    24    2
    44    23    24    1
    45    27    24    1
    46    27    28    1
    47    32    31    1
    48    24    25    1
