@<TRIPOS>MOLECULE
2d4h_5GP_A_1.pdb
 24 26 0 0 0
SMALL
GASTEIGER

@<TRIPOS>ATOM
      1  P          9.8810   -0.7070   27.0740 P.3   593  5GP593      0.5327
      2  O1P       11.1730   -0.1360   26.6220 O.3   593  5GP593     -0.1145
      3  O2P        8.7400    0.4220   27.2140 O.3   593  5GP593     -0.1145
      4  O3P        9.3250   -1.8020   26.0260 O.2   593  5GP593     -0.2224
      5  O5'        9.9180   -1.4200   28.4880 O.3   593  5GP593     -0.2675
      6  C5'       11.0010   -2.2630   28.8180 C.3   593  5GP593      0.1859
      7  C4'       10.6540   -3.0790   30.0590 C.3   593  5GP593      0.1801
      8  O4'       10.5720   -4.4730   29.6840 O.3   593  5GP593     -0.3326
      9  C3'       11.7440   -2.9490   31.1250 C.3   593  5GP593      0.2158
     10  O3'       11.1310   -2.9810   32.4220 O.3   593  5GP593     -0.2175
     11  C2'       12.6270   -4.1740   30.9070 C.3   593  5GP593      0.2310
     12  O2'       13.0910   -4.6660   32.1700 O.3   593  5GP593     -0.2158
     13  C1'       11.6650   -5.1990   30.3040 C.3   593  5GP593      0.2293
     14  N9        12.2000   -6.0740   29.2290 N.pl3 593  5GP593     -0.2354
     15  C8        13.3770   -6.0260   28.6010 C.3   593  5GP593      0.2246
     16  N7        13.4350   -7.0130   27.7030 N.2   593  5GP593     -0.2322
     17  C5        12.2900   -7.6940   27.7640 C.2   593  5GP593      0.2182
     18  C6        11.7930   -8.8030   27.0790 C.1   593  5GP593      0.2372
     19  O6        12.4690   -9.3540   26.2130 O.2   593  5GP593     -0.2069
     20  N1        10.5120   -9.2980   27.3790 N.2   593  5GP593     -0.2485
     21  C2         9.7350   -8.6760   28.3650 C.1   593  5GP593      0.2531
     22  N2         8.5220   -9.1300   28.6600 N.pl3 593  5GP593     -0.0226
     23  N3        10.2350   -7.5700   29.0440 N.2   593  5GP593     -0.3074
     24  C4        11.5110   -7.0890   28.7360 C.2   593  5GP593      0.2300
@<TRIPOS>BOND
     1     4     1    2
     2    19    18    2
     3     2     1    1
     4     1     3    1
     5     1     5    1
     6    18    20    2
     7    18    17    1
     8    20    21    2
     9    16    17    2
    10    16    15    1
    11    17    24    1
    12    21    22    1
    13    21    23    2
    14     5     6    1
    15    15    14    1
    16    24    23    2
    17    24    14    1
    18     6     7    1
    19    14    13    1
    20     8     7    1
    21     8    13    1
    22     7     9    1
    23    13    11    1
    24    11     9    1
    25    11    12    1
    26     9    10    1
