@<TRIPOS>MOLECULE
2d4n_DUP_A_1.pdb
 28 29 0 0 0
SMALL
GASTEIGER

@<TRIPOS>ATOM
      1  O4        -2.5560   60.2620   29.1490 O.2   777  DUP777     -0.2085
      2  C4        -3.4180   59.6410   29.7680 C.1   777  DUP777      0.2182
      3  C5        -4.6360   60.1600   30.1820 C.2   777  DUP777      0.1242
      4  C6        -5.5310   59.3290   30.8420 C.2   777  DUP777      0.0928
      5  N3        -3.1550   58.3080   29.9200 N.2   777  DUP777     -0.2452
      6  C2        -4.0730   57.4990   30.5570 C.1   777  DUP777      0.2844
      7  O2        -3.7610   56.2970   30.7560 O.2   777  DUP777     -0.1918
      8  N1        -5.2250   58.0110   31.0590 N.am  777  DUP777     -0.1790
      9  C1'       -6.1760   57.1190   31.7990 C.3   777  DUP777      0.2090
     10  C2'       -5.9500   57.3150   33.3080 C.3   777  DUP777      0.0874
     11  C3'       -7.1360   58.1720   33.7550 C.3   777  DUP777      0.1857
     12  O3'       -7.5340   58.0070   35.1030 O.3   777  DUP777     -0.2203
     13  O4'       -7.4930   57.5200   31.5240 O.3   777  DUP777     -0.3339
     14  C4'       -8.1790   57.7400   32.7420 C.3   777  DUP777      0.1774
     15  C5'       -9.3180   58.7660   32.5190 C.3   777  DUP777      0.1848
     16  O5'       -8.7210   60.0100   32.0870 O.3   777  DUP777     -0.2775
     17  PA        -9.6670   61.2120   31.5790 P.3   777  DUP777      0.4623
     18  O1A      -10.6560   61.6160   32.6040 O.3   777  DUP777     -0.1255
     19  O2A       -8.7260   62.2800   31.0470 O.2   777  DUP777     -0.2354
     20  N3A      -10.4270   60.5400   30.2930 N.3   777  DUP777     -0.0179
     21  PB       -12.0780   60.5340   29.9710 P.3   777  DUP777      0.4700
     22  O1B      -12.7940   61.6740   30.6490 O.3   777  DUP777     -0.1252
     23  O2B      -12.2230   60.4970   28.4830 O.2   777  DUP777     -0.2350
     24  O3B      -12.6420   59.1280   30.5430 O.3   777  DUP777     -0.1901
     25  PG       -13.5750   59.0150   31.8490 P.3   777  DUP777      0.5397
     26  O2G      -13.1720   59.9610   32.9710 O.3   777  DUP777     -0.1143
     27  O1G      -14.9330   59.4580   31.4130 O.2   777  DUP777     -0.2220
     28  O3G      -13.5200   57.5930   32.2950 O.3   777  DUP777     -0.1143
@<TRIPOS>BOND
     1    23    21    2
     2     1     2    2
     3     2     5    2
     4     2     3    1
     5     5     6    2
     6    21    20    1
     7    21    24    1
     8    21    22    1
     9     3     4    2
    10    20    17    1
    11    24    25    1
    12     6     7    2
    13     6     8   am
    14     4     8    1
    15    19    17    2
    16     8     9    1
    17    27    25    2
    18    13     9    1
    19    13    14    1
    20    17    16    1
    21    17    18    1
    22     9    10    1
    23    25    28    1
    24    25    26    1
    25    16    15    1
    26    15    14    1
    27    14    11    1
    28    10    11    1
    29    11    12    1
