@<TRIPOS>MOLECULE
2d4q_OXN_A_1.pdb
 24 24 0 0 0
SMALL
GASTEIGER

@<TRIPOS>ATOM
      1  C5       -30.1660   19.0660   12.2900 C.3   701  OXN701      0.0040
      2  C1       -29.9640   18.3280   10.8450 C.3   701  OXN701      0.0003
      3  C4       -29.1250   17.0640   10.7760 C.3   701  OXN701      0.0000
      4  C2       -31.2280   17.8550   10.1440 C.3   701  OXN701      0.0000
      5  C6       -29.1210   19.3530   13.3910 C.3   701  OXN701      0.0189
      6  C9       -28.6870   18.1170   14.2430 C.ar  701  OXN701     -0.0226
      7  C8       -27.9430   20.0540   12.6740 C.3   701  OXN701      0.0044
      8  C7       -29.7220   20.2800   14.5160 C.3   701  OXN701      0.0044
      9  C10      -29.6470   17.1120   14.6500 C.ar  701  OXN701     -0.0012
     10  C11      -29.2550   15.9940   15.4200 C.ar  701  OXN701      0.0366
     11  C12      -27.9300   15.8150   15.8070 C.ar  701  OXN701      0.1387
     12  C13      -26.9730   16.7660   15.4360 C.ar  701  OXN701      0.0366
     13  C14      -27.3250   17.9020   14.6640 C.ar  701  OXN701     -0.0012
     14  O15      -27.5670   14.7460   16.5400 O.3   701  OXN701     -0.4727
     15  C16      -27.5930   13.3150   16.4360 C.3   701  OXN701      0.2373
     16  C17      -26.6770   12.8540   17.6340 C.3   701  OXN701      0.1895
     17  O18      -27.2900   11.9280   18.5860 O.3   701  OXN701     -0.3458
     18  C19      -26.7510   12.1230   19.9540 C.3   701  OXN701      0.1895
     19  C20      -27.8770   12.2760   21.0300 C.3   701  OXN701      0.2376
     20  O21      -27.7550   13.4340   21.9640 O.2   701  OXN701     -0.4666
     21  C22      -28.6320   14.6410   21.9550 C.2   701  OXN701      0.2124
     22  C23      -28.3490   15.9170   20.9970 C.2   701  OXN701      0.2125
     23  O24      -27.1800   15.9850   20.0400 O.2   701  OXN701     -0.4652
     24  C25      -26.7200   17.1960   19.3600 C.3   701  OXN701      0.2528
@<TRIPOS>BOND
     1     4     2    1
     2     3     2    1
     3     2     1    1
     4     1     5    1
     5     7     5    1
     6     5     6    1
     7     5     8    1
     8     6     9   ar
     9     6    13   ar
    10     9    10   ar
    11    13    12   ar
    12    10    11   ar
    13    12    11   ar
    14    11    14    1
    15    15    14    1
    16    15    16    1
    17    16    17    1
    18    17    18    1
    19    24    23    1
    20    18    19    1
    21    23    22    1
    22    22    21    2
    23    19    20    1
    24    21    20    1
