@<TRIPOS>MOLECULE
2d4v_NAD_A_1.pdb
 44 48 0 0 0
SMALL
GASTEIGER

@<TRIPOS>ATOM
      1  PA        34.3380   29.4000   39.1510 P.3   2001  NAD2001     0.2189
      2  O1A       34.7960   28.8110   40.4250 O.3   2001  NAD2001    -0.4371
      3  O2A       34.4320   30.9230   39.0220 O.2   2001  NAD2001    -0.5170
      4  O5B       35.1780   28.7320   37.9370 O.3   2001  NAD2001    -0.3112
      5  C5B       34.7020   29.0070   36.6230 C.3   2001  NAD2001     0.1813
      6  C4B       35.7980   28.8030   35.5810 C.3   2001  NAD2001     0.1821
      7  O4B       36.6130   29.9630   35.6310 O.3   2001  NAD2001    -0.3135
      8  C3B       36.6480   27.5880   35.9250 C.3   2001  NAD2001     0.2184
      9  O3B       37.0360   26.9400   34.7180 O.3   2001  NAD2001    -0.2174
     10  C2B       37.8580   28.2330   36.5780 C.3   2001  NAD2001     0.2570
     11  O2B       39.0620   27.5020   36.3760 O.3   2001  NAD2001    -0.2130
     12  C1B       37.9430   29.6100   35.9430 C.3   2001  NAD2001     0.3186
     13  N9A       38.5060   30.5430   36.9310 N.pl3 2001  NAD2001    -0.1439
     14  C8A       37.8280   31.2110   37.9250 C.3   2001  NAD2001     0.3377
     15  N7A       38.7280   31.9520   38.6190 N.2   2001  NAD2001    -0.2095
     16  C5A       39.9510   31.7710   38.0770 C.2   2001  NAD2001     0.2526
     17  C6A       41.1960   32.2800   38.4160 C.2   2001  NAD2001     0.4393
     18  N6A       41.3250   33.2130   39.3600 N.pl3 2001  NAD2001     0.2180
     19  N1A       42.2790   31.8930   37.6780 N.2   2001  NAD2001     0.0021
     20  C2A       42.1320   31.0220   36.6190 C.3   2001  NAD2001     0.5254
     21  N3A       40.8940   30.4930   36.2860 N.2   2001  NAD2001    -0.0055
     22  C4A       39.8230   30.8730   37.0280 C.2   2001  NAD2001     0.3518
     23  O3        32.8090   29.0670   38.8120 O.3   2001  NAD2001    -0.2703
     24  PN        31.9620   27.7310   39.0450 P.3   2001  NAD2001     0.2189
     25  O1N       30.7190   27.9880   38.2700 O.2   2001  NAD2001    -0.5170
     26  O2N       32.7900   26.5490   38.7570 O.3   2001  NAD2001    -0.4371
     27  O5D       31.5670   27.7280   40.5930 O.3   2001  NAD2001    -0.3112
     28  C5D       32.4060   27.0660   41.5310 C.3   2001  NAD2001     0.1813
     29  C4D       32.0100   27.4960   42.9350 C.3   2001  NAD2001     0.1799
     30  O4D       32.4050   28.8490   43.1180 O.3   2001  NAD2001    -0.3327
     31  C3D       30.5010   27.4370   43.1750 C.3   2001  NAD2001     0.2158
     32  O3D       30.2850   26.7820   44.4090 O.3   2001  NAD2001    -0.2175
     33  C2D       30.0840   28.8970   43.2510 C.3   2001  NAD2001     0.2309
     34  O2D       28.9890   29.1300   44.1120 O.3   2001  NAD2001    -0.2158
     35  C1D       31.3590   29.5530   43.7700 C.3   2001  NAD2001     0.2263
     36  N1N       31.5040   30.9900   43.4600 N.pl3 2001  NAD2001    -0.2787
     37  C2N       31.8300   31.8280   44.4890 C.3   2001  NAD2001     0.1244
     38  C3N       32.0170   33.1870   44.2700 C.2   2001  NAD2001     0.0544
     39  C7N       32.4250   34.0560   45.4220 C.2   2001  NAD2001     0.2818
     40  O7N       32.9720   33.4540   46.5380 O.2   2001  NAD2001    -0.2670
     41  N7N       32.2370   35.3760   45.3740 N.am  2001  NAD2001    -0.0839
     42  C4N       31.8500   33.7120   42.9880 C.2   2001  NAD2001     0.0033
     43  C5N       31.5260   32.8520   41.9340 C.2   2001  NAD2001     0.0157
     44  C6N       31.3670   31.4860   42.1800 C.2   2001  NAD2001     0.0633
@<TRIPOS>BOND
     1     9     8    1
     2     6     7    1
     3     6     8    1
     4     6     5    1
     5     7    12    1
     6     8    10    1
     7    12    10    1
     8    12    13    1
     9    21    20    1
    10    21    22    2
    11    11    10    1
    12    20    19    1
    13     5     4    1
    14    13    22    1
    15    13    14    1
    16    22    16    1
    17    19    17    2
    18    14    15    1
    19     4     1    1
    20    16    17    1
    21    16    15    2
    22    25    24    2
    23    17    18    1
    24    26    24    1
    25    23    24    1
    26    23     1    1
    27     3     1    2
    28    24    27    1
    29     1     2    1
    30    27    28    1
    31    28    29    1
    32    43    44    2
    33    43    42    1
    34    44    36    1
    35    29    30    1
    36    29    31    1
    37    42    38    2
    38    30    35    1
    39    31    33    1
    40    31    32    1
    41    33    35    1
    42    33    34    1
    43    36    35    1
    44    36    37    1
    45    38    37    1
    46    38    39    1
    47    41    39   am
    48    39    40    2
