@<TRIPOS>MOLECULE
2d4v_FLC_A_1.pdb
 13 12 0 0 0
SMALL
GASTEIGER

@<TRIPOS>ATOM
      1  CAC       27.7630   32.4420   44.8200 C.2   3001  FLC3001     0.3680
      2  CA        26.9290   33.5480   44.2010 C.3   3001  FLC3001     0.1560
      3  CB        27.6620   34.3900   43.1620 C.3   3001  FLC3001     0.2402
      4  CBC       26.6350   35.4170   42.8160 C.2   3001  FLC3001     0.3927
      5  CG        28.9270   34.9890   43.7440 C.3   3001  FLC3001     0.1560
      6  CGC       29.4370   36.1770   42.9550 C.2   3001  FLC3001     0.3680
      7  OA1       27.7830   32.2740   46.0210 O.co2 3001  FLC3001    -0.2455
      8  OA2       28.4630   31.6430   44.0540 O.co2 3001  FLC3001    -0.2455
      9  OB1       25.8520   35.1900   41.9010 O.co2 3001  FLC3001    -0.2429
     10  OB2       26.5580   36.5410   43.5430 O.co2 3001  FLC3001    -0.2429
     11  OG1       30.1560   36.9850   43.5030 O.co2 3001  FLC3001    -0.2455
     12  OG2       29.1300   36.3770   41.6940 O.co2 3001  FLC3001    -0.2455
     13  OHB       28.0130   33.6550   41.9940 O.3   3001  FLC3001    -0.2129
@<TRIPOS>BOND
     1    12     6   ar
     2     9     4   ar
     3    13     3    1
     4     4     3    1
     5     4    10   ar
     6     6    11   ar
     7     6     5    1
     8     3     5    1
     9     3     2    1
    10     8     1   ar
    11     2     1    1
    12     1     7   ar
