@<TRIPOS>MOLECULE
2d52_COA_A_1.pdb
 48 50 0 0 0
SMALL
GASTEIGER

@<TRIPOS>ATOM
      1  N1A       17.9970    0.0850   16.9980 N.2   500  COA500      0.0021
      2  C2A       17.5330   -1.1590   17.5050 C.3   500  COA500      0.5254
      3  N3A       17.3850   -1.3920   18.8500 N.2   500  COA500     -0.0055
      4  C4A       17.7480   -0.2540   19.6470 C.2   500  COA500      0.3518
      5  C5A       18.2120    1.0090   19.2370 C.2   500  COA500      0.2526
      6  C6A       18.3530    1.2060   17.8060 C.2   500  COA500      0.4393
      7  N6A       18.7930    2.3740   17.2880 N.pl3 500  COA500      0.2180
      8  N7A       18.4560    1.8520   20.2990 N.2   500  COA500     -0.2095
      9  C8A       18.1370    1.0930   21.3570 C.3   500  COA500      0.3377
     10  N9A       17.7040   -0.1850   21.0330 N.pl3 500  COA500     -0.1439
     11  C1B       17.2320   -1.4130   21.9750 C.3   500  COA500      0.3185
     12  C2B       18.1040   -2.0850   22.9150 C.3   500  COA500      0.2543
     13  O2B       18.7820   -2.8620   22.0150 O.3   500  COA500     -0.2131
     14  C3B       16.9720   -2.5180   23.8610 C.3   500  COA500      0.1928
     15  O3B       16.3970   -3.8870   23.5880 O.3   500  COA500     -0.2673
     16  P3B       16.9520   -5.3950   23.6850 P.3   500  COA500      0.5327
     17  O7A       15.6470   -6.1810   23.1860 O.3   500  COA500     -0.1145
     18  O8A       17.2790   -5.6060   25.1140 O.3   500  COA500     -0.1145
     19  O9A       18.1940   -5.6240   22.8580 O.2   500  COA500     -0.2224
     20  C4B       15.6900   -1.5830   23.8530 C.3   500  COA500      0.1795
     21  O4B       16.0350   -0.8150   22.5860 O.3   500  COA500     -0.3136
     22  C5B       15.6410   -0.5090   25.0220 C.3   500  COA500      0.1812
     23  O5B       16.9520   -0.3490   25.7810 O.3   500  COA500     -0.3112
     24  P1A       17.4590    0.1630   26.9290 P.3   500  COA500      0.2189
     25  O1A       16.6260   -0.4960   27.9980 O.3   500  COA500     -0.4371
     26  O2A       18.9360   -0.1500   26.9780 O.2   500  COA500     -0.5170
     27  O3A       17.2070    1.7040   26.8330 O.3   500  COA500     -0.2703
     28  P2A       17.9920    3.0250   26.5280 P.3   500  COA500      0.2188
     29  O4A       18.5500    3.4550   27.8290 O.3   500  COA500     -0.4371
     30  O5A       19.1050    2.7760   25.5860 O.2   500  COA500     -0.5170
     31  O6A       17.0790    4.2160   26.1860 O.3   500  COA500     -0.3138
     32  CBP       16.6990    5.3740   24.0340 C.3   500  COA500      0.0645
     33  CCP       16.3700    4.0690   24.9260 C.3   500  COA500      0.1519
     34  CDP       16.0310    6.5720   24.7590 C.3   500  COA500      0.0056
     35  CEP       16.0840    5.2210   22.6330 C.3   500  COA500      0.0056
     36  CAP       18.2790    5.5180   23.8790 C.3   500  COA500      0.2312
     37  OAP       18.8960    4.3510   23.2630 O.3   500  COA500     -0.2131
     38  C9P       18.7880    6.7120   22.9960 C.2   500  COA500      0.2719
     39  O9P       18.6540    7.8570   23.5360 O.2   500  COA500     -0.2706
     40  N8P       19.3040    6.4430   21.7820 N.am  500  COA500     -0.2028
     41  C7P       19.7810    7.6660   20.9560 C.3   500  COA500      0.1248
     42  C6P       18.6420    7.9230   20.0010 C.3   500  COA500      0.1102
     43  C5P       19.0950    8.7230   18.7650 C.2   500  COA500      0.2432
     44  O5P       19.8520    8.1830   18.3340 O.2   500  COA500     -0.2733
     45  N4P       18.4880    9.8880   18.4450 N.am  500  COA500     -0.2044
     46  C3P       18.9970   10.6010   17.1770 C.3   500  COA500      0.1276
     47  C2P       18.7750    9.9170   15.8300 C.3   500  COA500      0.0920
     48  S1P       18.2260   11.2270   14.7080 S.3   500  COA500     -0.0802
@<TRIPOS>BOND
     1    48    47    1
     2    47    46    1
     3     1     2    1
     4     1     6    2
     5    46    45    1
     6     7     6    1
     7     2     3    1
     8     6     5    1
     9    44    43    2
    10    45    43   am
    11    43    42    1
    12     3     4    2
    13     5     4    1
    14     5     8    2
    15     4    10    1
    16    42    41    1
    17     8     9    1
    18    41    40    1
    19    10     9    1
    20    10    11    1
    21    40    38   am
    22    11    21    1
    23    11    12    1
    24    13    12    1
    25    21    20    1
    26    35    32    1
    27    19    16    2
    28    12    14    1
    29    38    39    2
    30    38    36    1
    31    17    16    1
    32    37    36    1
    33    15    16    1
    34    15    14    1
    35    16    18    1
    36    20    14    1
    37    20    22    1
    38    36    32    1
    39    32    34    1
    40    32    33    1
    41    33    31    1
    42    22    23    1
    43    30    28    2
    44    23    24    1
    45    31    28    1
    46    28    27    1
    47    28    29    1
    48    27    24    1
    49    24    26    2
    50    24    25    1
