@<TRIPOS>MOLECULE
2d5a_COA_A_1.pdb
 48 50 0 0 0
SMALL
GASTEIGER

@<TRIPOS>ATOM
      1  N1A       53.8630   -2.7700   25.4090 N.2   200  COA200      0.0021
      2  C2A       54.3060   -1.5380   25.6060 C.3   200  COA200      0.5254
      3  N3A       54.0740   -0.5370   24.7570 N.2   200  COA200     -0.0055
      4  C4A       53.3120   -0.7820   23.6790 C.2   200  COA200      0.3518
      5  C5A       52.7970   -2.0560   23.4440 C.2   200  COA200      0.2526
      6  C6A       53.1050   -3.0750   24.3310 C.2   200  COA200      0.4393
      7  N6A       52.7340   -4.3460   24.1110 N.pl3 200  COA200      0.2180
      8  N7A       52.1240   -1.9880   22.2920 N.2   200  COA200     -0.2095
      9  C8A       52.2010   -0.7450   21.8190 C.3   200  COA200      0.3377
     10  N9A       52.9350   -0.0030   22.6620 N.pl3 200  COA200     -0.1439
     11  C1B       53.3580    1.3920   22.4650 C.3   200  COA200      0.3185
     12  C2B       53.7830    1.6970   21.0250 C.3   200  COA200      0.2543
     13  O2B       55.1770    1.4350   20.8570 O.3   200  COA200     -0.2131
     14  C3B       53.4190    3.1790   20.9050 C.3   200  COA200      0.1928
     15  O3B       54.5440    4.0630   20.9400 O.3   200  COA200     -0.2673
     16  P3B       55.3080    4.4000   19.5600 P.3   200  COA200      0.5327
     17  O7A       56.5990    5.2220   20.0610 O.3   200  COA200     -0.1145
     18  O8A       54.3460    5.3080   18.6770 O.2   200  COA200     -0.2224
     19  O9A       55.6280    3.0920   18.9290 O.3   200  COA200     -0.1145
     20  C4B       52.4750    3.4430   22.0830 C.3   200  COA200      0.1795
     21  O4B       52.1640    2.1580   22.6280 O.3   200  COA200     -0.3136
     22  C5B       51.1830    4.1050   21.5980 C.3   200  COA200      0.1812
     23  O5B       50.6350    3.3300   20.5320 O.3   200  COA200     -0.3112
     24  P1A       49.0340    3.2260   20.2770 P.3   200  COA200      0.2189
     25  O1A       48.4400    2.4560   21.3950 O.3   200  COA200     -0.4371
     26  O2A       48.9650    2.6840   18.8990 O.2   200  COA200     -0.5170
     27  O3A       48.6570    4.7870   20.2200 O.3   200  COA200     -0.2703
     28  P2A       47.1550    5.3900   20.1840 P.3   200  COA200      0.2188
     29  O4A       47.3040    6.6690   19.4550 O.2   200  COA200     -0.5170
     30  O5A       46.2450    4.3120   19.7300 O.3   200  COA200     -0.4371
     31  O6A       46.8140    5.7660   21.7120 O.3   200  COA200     -0.3138
     32  CBP       46.9950    5.1940   24.0220 C.3   200  COA200      0.0645
     33  CCP       46.3800    4.7990   22.6750 C.3   200  COA200      0.1519
     34  CDP       48.5100    5.4040   23.9510 C.3   200  COA200      0.0056
     35  CEP       46.4330    4.3240   25.1420 C.3   200  COA200      0.0056
     36  CAP       46.4350    6.6090   24.2640 C.3   200  COA200      0.2312
     37  OAP       45.0040    6.6640   24.3340 O.3   200  COA200     -0.2131
     38  C9P       46.9450    7.3040   25.5290 C.2   200  COA200      0.2719
     39  O9P       48.0840    8.0080   25.3850 O.2   200  COA200     -0.2706
     40  N8P       46.2170    7.3080   26.6480 N.am  200  COA200     -0.2028
     41  C7P       46.6290    8.0390   27.8520 C.3   200  COA200      0.1248
     42  C6P       46.1200    9.4750   27.6660 C.3   200  COA200      0.1102
     43  C5P       46.5000   10.3380   28.8700 C.2   200  COA200      0.2432
     44  O5P       46.2370    9.8340   30.0940 O.2   200  COA200     -0.2733
     45  N4P       47.1130   11.4890   28.6420 N.am  200  COA200     -0.2044
     46  C3P       47.5440   12.3280   29.7670 C.3   200  COA200      0.1276
     47  C2P       46.8350   13.6650   29.5840 C.3   200  COA200      0.0920
     48  S1P       47.4220   14.8170   30.8730 S.3   200  COA200     -0.0802
@<TRIPOS>BOND
     1    18    16    2
     2    26    24    2
     3    19    16    1
     4    29    28    2
     5    16    17    1
     6    16    15    1
     7    30    28    1
     8    28    27    1
     9    28    31    1
    10    27    24    1
    11    24    23    1
    12    24    25    1
    13    23    22    1
    14    13    12    1
    15    14    15    1
    16    14    12    1
    17    14    20    1
    18    12    11    1
    19    22    20    1
    20    31    33    1
    21     9     8    1
    22     9    10    1
    23    20    21    1
    24     8     5    2
    25    11    21    1
    26    11    10    1
    27    10     4    1
    28    33    32    1
    29     5     4    1
    30     5     6    1
    31     4     3    2
    32    34    32    1
    33    32    36    1
    34    32    35    1
    35     7     6    1
    36    36    37    1
    37    36    38    1
    38     6     1    2
    39     3     2    1
    40    39    38    2
    41     1     2    1
    42    38    40   am
    43    40    41    1
    44    42    41    1
    45    42    43    1
    46    45    43   am
    47    45    46    1
    48    43    44    2
    49    47    46    1
    50    47    48    1
