@<TRIPOS>MOLECULE
2d5c_SKM_A_1.pdb
 12 12 0 0 0
SMALL
GASTEIGER

@<TRIPOS>ATOM
      1  O12       24.2000   13.4670   18.3130 O.3   301  SKM301     -0.2173
      2  C8        25.3400   14.1780   18.8180 C.3   301  SKM301      0.2167
      3  C6        25.3960   14.0360   20.3640 C.3   301  SKM301      0.1896
      4  O7        24.1950   14.5640   20.9230 O.3   301  SKM301     -0.2200
      5  C5        26.6120   14.7960   20.9540 C.3   301  SKM301      0.0684
      6  C4        27.8690   14.6820   20.0900 C.2   301  SKM301      0.0584
      7  C1        29.1470   15.1780   20.6630 C.2   301  SKM301      0.3837
      8  O2        29.1630   15.6970   21.9060 O.co2 301  SKM301     -0.2409
      9  O3        30.1860   15.1180   20.0200 O.co2 301  SKM301     -0.2409
     10  C10       27.8750   14.1640   18.8580 C.2   301  SKM301      0.0111
     11  C9        26.6420   13.6170   18.1700 C.3   301  SKM301      0.2066
     12  O11       26.6540   12.1850   18.2840 O.3   301  SKM301     -0.2155
@<TRIPOS>BOND
     1    11    12    1
     2    11     2    1
     3    11    10    1
     4     1     2    1
     5     2     3    1
     6    10     6    2
     7     9     7   ar
     8     6     7    1
     9     6     5    1
    10     3     4    1
    11     3     5    1
    12     7     8   ar
