@<TRIPOS>MOLECULE
2d5i_FMN_A_1.pdb
 31 33 0 0 0
SMALL
GASTEIGER

@<TRIPOS>ATOM
      1  N1        70.4310    6.6930   -6.3690 N.2   201  FMN201     -0.2887
      2  C2        71.7800    6.3670   -6.3730 C.1   201  FMN201      0.3669
      3  O2        72.2100    5.2300   -6.1640 O.2   201  FMN201     -0.1744
      4  N3        72.6980    7.3290   -6.5860 N.2   201  FMN201     -0.2300
      5  C4        72.3920    8.6260   -6.8010 C.1   201  FMN201      0.2513
      6  O4        73.3340    9.4230   -6.7940 O.2   201  FMN201     -0.2057
      7  C4A       71.0600    8.9940   -6.7890 C.2   201  FMN201      0.2703
      8  N5        70.7270   10.2600   -7.0670 N.2   201  FMN201     -0.3882
      9  C5A       69.3850   10.5910   -6.9670 C.2   201  FMN201      0.1277
     10  C6        68.9870   11.9330   -7.1430 C.3   201  FMN201      0.0820
     11  C7        67.6290   12.3450   -6.9900 C.2   201  FMN201     -0.0408
     12  C7M       67.3050   13.8730   -7.0450 C.3   201  FMN201      0.0265
     13  C8        66.6550   11.3790   -6.7190 C.2   201  FMN201     -0.0280
     14  C8M       65.2030   11.7400   -6.5790 C.3   201  FMN201      0.0304
     15  C9        67.0220   10.0450   -6.5360 C.2   201  FMN201      0.0123
     16  C9A       68.3770    9.6420   -6.6410 C.2   201  FMN201      0.0793
     17  N10       68.7460    8.3500   -6.4570 N.pl3 201  FMN201     -0.2545
     18  C10       70.0850    8.0200   -6.5610 C.2   201  FMN201      0.2449
     19  C1'       67.8680    7.2650   -5.9820 C.3   201  FMN201      0.1336
     20  C2'       67.6900    7.3660   -4.4580 C.3   201  FMN201      0.2048
     21  O2'       68.8740    7.2270   -3.6800 O.3   201  FMN201     -0.2185
     22  C3'       66.5690    6.3510   -4.0770 C.3   201  FMN201      0.2165
     23  O3'       65.3690    6.7330   -4.7360 O.3   201  FMN201     -0.2175
     24  C4'       66.3790    6.3230   -2.5760 C.3   201  FMN201      0.2147
     25  O4'       65.3460    5.4300   -2.2020 O.3   201  FMN201     -0.2176
     26  C5'       66.0720    7.7220   -2.0580 C.3   201  FMN201      0.1892
     27  O5'       65.8300    7.6270   -0.6700 O.3   201  FMN201     -0.2674
     28  P         64.3610    8.0370   -0.2730 P.3   201  FMN201      0.5327
     29  O1P       64.2610    8.0080    1.2310 O.3   201  FMN201     -0.1145
     30  O2P       64.1400    9.4590   -0.7280 O.3   201  FMN201     -0.1145
     31  O3P       63.2790    7.2160   -1.0160 O.2   201  FMN201     -0.2224
@<TRIPOS>BOND
     1    10    11    1
     2    10     9    1
     3     8     9    2
     4     8     7    2
     5    12    11    1
     6    11    13    2
     7     9    16    1
     8     5     6    2
     9     5     7    1
    10     5     4    2
    11     7    18    1
    12    13    14    1
    13    13    15    1
    14    16    15    2
    15    16    17    1
    16     4     2    2
    17    18    17    1
    18    18     1    2
    19    17    19    1
    20     2     1    2
    21     2     3    2
    22    19    20    1
    23    23    22    1
    24    20    22    1
    25    20    21    1
    26    22    24    1
    27    24    25    1
    28    24    26    1
    29    26    27    1
    30    31    28    2
    31    30    28    1
    32    27    28    1
    33    28    29    1
