@<TRIPOS>MOLECULE
2d5m_FMN_A_1.pdb
 31 33 0 0 0
SMALL
GASTEIGER

@<TRIPOS>ATOM
      1  N1        14.1530   19.5650   13.2410 N.2   1001  FMN1001    -0.2890
      2  C2        13.3830   18.8230   12.3850 C.1   1001  FMN1001     0.3669
      3  O2        12.7540   17.8360   12.7920 O.2   1001  FMN1001    -0.1744
      4  N3        13.3490   19.1780   11.0390 N.2   1001  FMN1001    -0.2300
      5  C4        14.0610   20.2090   10.4690 C.1   1001  FMN1001     0.2513
      6  O4        13.9700   20.4470    9.2460 O.2   1001  FMN1001    -0.2057
      7  C4A       14.9020   20.9460   11.3480 C.2   1001  FMN1001     0.2700
      8  N5        15.6760   21.9380   10.8460 N.2   1001  FMN1001    -0.3878
      9  C5A       16.3310   22.7130   11.7700 C.2   1001  FMN1001     0.1320
     10  C6        17.1310   23.7820   11.2780 C.2   1001  FMN1001     0.0250
     11  C7        17.8060   24.6610   12.1100 C.2   1001  FMN1001    -0.0238
     12  C7M       18.6920   25.7620   11.5760 C.3   1001  FMN1001     0.0308
     13  C8        17.6410   24.4790   13.5340 C.2   1001  FMN1001    -0.0280
     14  C8M       18.2910   25.4810   14.4750 C.3   1001  FMN1001     0.0304
     15  C9        16.9260   23.4000   14.0240 C.2   1001  FMN1001    -0.0041
     16  C9A       16.2660   22.5220   13.1800 C.3   1001  FMN1001     0.1497
     17  N10       15.5490   21.3890   13.6230 N.pl3 1001  FMN1001    -0.2691
     18  C10       14.8220   20.6350   12.7350 C.2   1001  FMN1001     0.2416
     19  C1'       15.5130   21.0590   15.0750 C.3   1001  FMN1001     0.1294
     20  C2'       14.2100   21.4860   15.7470 C.3   1001  FMN1001     0.2044
     21  O2'       13.8500   22.8380   15.4380 O.3   1001  FMN1001    -0.2185
     22  C3'       14.3890   21.3670   17.2640 C.3   1001  FMN1001     0.2164
     23  O3'       14.4900   19.9550   17.5620 O.3   1001  FMN1001    -0.2175
     24  C4'       13.2770   22.0060   18.0820 C.3   1001  FMN1001     0.2147
     25  O4'       13.7910   22.1130   19.4380 O.3   1001  FMN1001    -0.2176
     26  C5'       12.0060   21.2310   18.0950 C.3   1001  FMN1001     0.1892
     27  O5'       11.0520   21.9550   18.9370 O.3   1001  FMN1001    -0.2674
     28  P          9.7120   21.2470   19.4820 P.3   1001  FMN1001     0.5327
     29  O1P       10.1250   20.0170   20.3030 O.3   1001  FMN1001    -0.1145
     30  O2P        8.8220   20.8440   18.3310 O.2   1001  FMN1001    -0.2224
     31  O3P        9.1410   22.3630   20.3380 O.3   1001  FMN1001    -0.1145
@<TRIPOS>BOND
     1     6     5    2
     2     5     4    2
     3     5     7    1
     4     8     7    2
     5     8     9    2
     6     4     2    2
     7    10     9    1
     8    10    11    2
     9     7    18    1
    10    12    11    1
    11     9    16    1
    12    11    13    1
    13     2     3    2
    14     2     1    2
    15    18     1    2
    16    18    17    1
    17    16    17    1
    18    16    15    1
    19    13    15    2
    20    13    14    1
    21    17    19    1
    22    19    20    1
    23    21    20    1
    24    20    22    1
    25    22    23    1
    26    22    24    1
    27    24    26    1
    28    24    25    1
    29    26    27    1
    30    30    28    2
    31    27    28    1
    32    28    29    1
    33    28    31    1
