@<TRIPOS>MOLECULE
2d5n_NDP_B_1.pdb
 48 52 0 0 0
SMALL
GASTEIGER

@<TRIPOS>ATOM
      1  PA        39.0760   63.6500   69.2390 P.3   381  NDP381      0.2189
      2  O1A       39.2280   63.1480   70.6170 O.3   381  NDP381     -0.4371
      3  O2A       40.2700   63.8330   68.3990 O.2   381  NDP381     -0.5170
      4  O5B       38.2400   64.9800   69.3540 O.3   381  NDP381     -0.3112
      5  C5B       37.8710   65.6290   68.1240 C.3   381  NDP381      0.1813
      6  C4B       37.1040   66.8400   68.5130 C.3   381  NDP381      0.1820
      7  O4B       38.0360   67.7230   69.2320 O.3   381  NDP381     -0.3136
      8  C3B       36.5670   67.6830   67.3580 C.3   381  NDP381      0.2157
      9  O3B       35.2180   67.3290   67.1250 O.3   381  NDP381     -0.2175
     10  C2B       36.7790   69.1140   67.8770 C.3   381  NDP381      0.2314
     11  O2B       35.7220   69.5450   68.7510 O.3   381  NDP381     -0.2630
     12  C1B       38.0880   69.0050   68.6230 C.3   381  NDP381      0.3158
     13  N9A       39.3020   69.0990   67.7840 N.pl3 381  NDP381     -0.1439
     14  C8A       40.1050   68.0610   67.3270 C.3   381  NDP381      0.3377
     15  N7A       41.1190   68.4510   66.6030 N.2   381  NDP381     -0.2095
     16  C5A       40.9850   69.7920   66.5810 C.2   381  NDP381      0.2526
     17  C6A       41.7610   70.7940   65.9760 C.2   381  NDP381      0.4393
     18  N6A       42.8540   70.4950   65.2630 N.pl3 381  NDP381      0.2180
     19  N1A       41.3520   72.0890   66.1400 N.2   381  NDP381      0.0021
     20  C2A       40.2350   72.3870   66.8690 C.3   381  NDP381      0.5254
     21  N3A       39.4250   71.4920   67.4960 N.2   381  NDP381     -0.0055
     22  C4A       39.8680   70.2130   67.3080 C.2   381  NDP381      0.3518
     23  O3        37.9600   62.8300   68.4050 O.3   381  NDP381     -0.2703
     24  PN        37.5430   61.3990   67.9300 P.3   381  NDP381      0.2189
     25  O1N       38.2010   61.1290   66.6040 O.2   381  NDP381     -0.5170
     26  O2N       36.0490   61.4320   67.9680 O.3   381  NDP381     -0.4371
     27  O5D       37.9680   60.3830   69.0860 O.3   381  NDP381     -0.3112
     28  C5D       38.7940   59.2310   68.8730 C.3   381  NDP381      0.1813
     29  C4D       38.0710   57.9150   69.1000 C.3   381  NDP381      0.1799
     30  O4D       39.0390   56.9250   69.4930 O.3   381  NDP381     -0.3327
     31  C3D       37.0000   57.8350   70.2100 C.3   381  NDP381      0.2158
     32  O3D       35.9570   56.9270   69.9080 O.3   381  NDP381     -0.2175
     33  C2D       37.8260   57.4980   71.4610 C.3   381  NDP381      0.2309
     34  O2D       37.0030   56.8030   72.3870 O.3   381  NDP381     -0.2158
     35  C1D       38.9620   56.6410   70.8750 C.3   381  NDP381      0.2263
     36  N1N       40.3360   56.9010   71.4520 N.pl3 381  NDP381     -0.2787
     37  C2N       41.2820   55.9040   71.2690 C.3   381  NDP381      0.1244
     38  C3N       42.5830   56.0460   71.7640 C.2   381  NDP381      0.0544
     39  C7N       43.6130   54.9600   71.5660 C.2   381  NDP381      0.2818
     40  O7N       44.7970   55.2530   71.4250 O.2   381  NDP381     -0.2670
     41  N7N       43.1760   53.6970   71.5510 N.am  381  NDP381     -0.0839
     42  C4N       42.9360   57.2420   72.4690 C.2   381  NDP381      0.0033
     43  C5N       41.9710   58.2530   72.6500 C.2   381  NDP381      0.0157
     44  C6N       40.6730   58.0860   72.1430 C.2   381  NDP381      0.0633
     45  P2B       34.3700   70.3320   68.3110 P.3   381  NDP381      0.5328
     46  O1X       34.1780   70.1480   66.8140 O.2   381  NDP381     -0.2224
     47  O2X       33.3350   69.6720   69.2020 O.3   381  NDP381     -0.1145
     48  O3X       34.5940   71.7850   68.6810 O.3   381  NDP381     -0.1145
@<TRIPOS>BOND
     1    18    17    1
     2    17    19    2
     3    17    16    1
     4    19    20    1
     5    16    15    2
     6    16    22    1
     7    15    14    1
     8    25    24    2
     9    46    45    2
    10    20    21    1
    11     9     8    1
    12    22    21    2
    13    22    13    1
    14    14    13    1
    15     8    10    1
    16     8     6    1
    17    13    12    1
    18    10    12    1
    19    10    11    1
    20    24    26    1
    21    24    23    1
    22    24    27    1
    23     5     6    1
    24     5     4    1
    25    45    48    1
    26    45    11    1
    27    45    47    1
    28     3     1    2
    29    23     1    1
    30     6     7    1
    31    12     7    1
    32    28    27    1
    33    28    29    1
    34    29    30    1
    35    29    31    1
    36     1     4    1
    37     1     2    1
    38    30    35    1
    39    32    31    1
    40    31    33    1
    41    35    36    1
    42    35    33    1
    43    37    36    1
    44    37    38    1
    45    40    39    2
    46    36    44    1
    47    33    34    1
    48    41    39   am
    49    39    38    1
    50    38    42    2
    51    44    43    2
    52    42    43    1
