@<TRIPOS>MOLECULE
2d5w_III_C_1.pdb
 37 37 0 0 0
SMALL
GASTEIGER

@<TRIPOS>ATOM
      1  N         25.2320   43.9900   43.5920 N.3     1  ALA1       -0.1231
      2  CA        23.8100   43.8180   44.0020 C.3     1  ALA1        0.1694
      3  C         23.0400   42.9920   42.9790 C.2     1  ALA1        0.2593
      4  O         22.5660   43.5170   41.9710 O.2     1  ALA1       -0.2718
      5  CB        23.1510   45.1790   44.1720 C.3     1  ALA1        0.0304
      6  N         22.9200   41.6960   43.2440 N.am    2  SER2       -0.1938
      7  CA        22.2030   40.7950   42.3500 C.3     2  SER2        0.2055
      8  C         20.8050   41.3480   42.0950 C.2     2  SER2        0.2643
      9  O         20.2570   42.0680   42.9270 O.2     2  SER2       -0.2714
     10  CB        22.1040   39.4060   42.9820 C.3     2  SER2        0.2130
     11  OG        23.3820   38.9370   43.3770 O.3     2  SER2       -0.2179
     12  N         20.2320   41.0100   40.9430 N.am    3  LYS3       -0.1963
     13  CA        18.8970   41.4820   40.5890 C.3     3  LYS3        0.1713
     14  C         17.8980   40.3250   40.5650 C.2     3  LYS3        0.2458
     15  O         18.2590   39.1930   40.2560 O.2     3  LYS3       -0.2730
     16  CB        18.9320   42.1710   39.2250 C.3     3  LYS3        0.0311
     17  CG        19.8110   43.4150   39.1810 C.3     3  LYS3        0.0038
     18  CD        19.6590   44.1670   37.8680 C.3     3  LYS3        0.0206
     19  CE        20.1460   43.3600   36.6750 C.3     3  LYS3        0.1093
     20  NZ        19.3580   42.1260   36.4130 N.3     3  LYS3       -0.1314
     21  N         16.6290   40.5930   40.9150 N.am    4  PRO4       -0.2716
     22  CA        15.6050   39.5430   40.9240 C.3     4  PRO4        0.1536
     23  C         14.7770   39.3910   39.6590 C.2     4  PRO4        0.2599
     24  O         14.4760   40.3610   38.9620 O.2     4  PRO4       -0.2715
     25  CB        14.6970   39.9330   42.0960 C.3     4  PRO4        0.0310
     26  CG        15.4920   40.9270   42.8870 C.3     4  PRO4        0.0237
     27  CD        16.2330   41.6800   41.8230 C.3     4  PRO4        0.0939
     28  N         14.3890   38.1500   39.3930 N.am    5  LYS5       -0.1942
     29  CA        13.5360   37.8260   38.2610 C.3     5  LYS5        0.1978
     30  C         12.7870   36.5400   38.5990 C.2     5  LYS5        0.3842
     31  O         11.7510   36.2820   37.9560 O.co2   5  LYS5       -0.2437
     32  CB        14.3590   37.6380   36.9840 C.3     5  LYS5        0.0333
     33  CG        15.1410   36.3420   36.9420 C.3     5  LYS5        0.0039
     34  CD        16.1240   36.3020   35.7880 C.3     5  LYS5        0.0206
     35  CE        15.4520   36.5370   34.4520 C.3     5  LYS5        0.1093
     36  NZ        16.4510   36.4650   33.3520 N.3     5  LYS5       -0.1314
     37  OXT       13.2520   35.8000   39.4970 O.co2   5  LYS5       -0.2437
@<TRIPOS>BOND
     1    36    35    1
     2    35    34    1
     3    34    33    1
     4    20    19    1
     5    19    18    1
     6    33    32    1
     7    32    29    1
     8    18    17    1
     9    31    30   ar
    10    29    30    1
    11    29    28    1
    12    30    37   ar
    13    24    23    2
    14    17    16    1
    15    16    13    1
    16    28    23   am
    17    23    22    1
    18    15    14    2
    19    14    13    1
    20    14    21   am
    21    13    12    1
    22    21    22    1
    23    21    27    1
    24    22    25    1
    25    12     8   am
    26    27    26    1
    27     4     3    2
    28     8     7    1
    29     8     9    2
    30    25    26    1
    31     7    10    1
    32     7     6    1
    33     3     6   am
    34     3     2    1
    35    10    11    1
    36     1     2    1
    37     2     5    1
