@<TRIPOS>MOLECULE
2d5x_HEM_A_1.pdb
 43 50 0 0 0
SMALL
GASTEIGER

@<TRIPOS>ATOM
      1 FE         21.9190   48.2070   26.6600 Fe    142  HEM142      0.0000
      2  CHA       23.0130   48.6460   23.3860 C.2   142  HEM142      0.0000
      3  CHB       24.7410   46.3400   27.3210 C.2   142  HEM142      0.0000
      4  CHC       20.9040   47.8550   29.9160 C.2   142  HEM142      0.0000
      5  CHD       19.0180   49.9930   25.9400 C.2   142  HEM142      0.0000
      6  NA        23.5690   47.6310   25.5700 N.2   142  HEM142      0.0000
      7  C1A       23.7930   47.8690   24.2110 C.2   142  HEM142      0.0000
      8  C2A       24.9870   47.1570   23.8310 C.2   142  HEM142      0.0000
      9  C3A       25.4670   46.5100   24.9130 C.2   142  HEM142      0.0000
     10  C4A       24.5800   46.8000   26.0310 C.2   142  HEM142      0.0000
     11  CMA       26.7260   45.6150   25.0120 C.3   142  HEM142      0.0000
     12  CAA       25.5700   47.1480   22.4090 C.3   142  HEM142      0.0000
     13  CBA       26.3060   48.4580   22.1790 C.3   142  HEM142      0.0000
     14  CGA       26.7810   48.4720   20.7500 C.2   142  HEM142      0.0000
     15  O1A       28.0020   48.3480   20.5500 O.co2 142  HEM142      0.0000
     16  O2A       25.9510   48.5920   19.8190 O.co2 142  HEM142      0.0000
     17  NB        22.7130   47.2810   28.3150 N.ar  142  HEM142      0.0000
     18  C1B       23.8890   46.5740   28.3790 C.ar  142  HEM142      0.0000
     19  C2B       24.0520   46.1220   29.7450 C.ar  142  HEM142      0.0000
     20  C3B       22.9740   46.5180   30.4490 C.ar  142  HEM142      0.0000
     21  C4B       22.1290   47.2770   29.5720 C.ar  142  HEM142      0.0000
     22  CMB       25.2500   45.2640   30.2070 C.3   142  HEM142      0.0000
     23  CAB       22.6350   46.3170   31.9400 C.2   142  HEM142      0.0000
     24  CBB       22.9010   45.1830   32.5940 C.2   142  HEM142      0.0000
     25  NC        20.2890   48.8170   27.7030 N.2   142  HEM142      0.0000
     26  C1C       20.0570   48.5400   29.0550 C.2   142  HEM142      0.0000
     27  C2C       18.7740   49.1100   29.4070 C.2   142  HEM142      0.0000
     28  C3C       18.2570   49.6920   28.3170 C.2   142  HEM142      0.0000
     29  C4C       19.1920   49.5170   27.2200 C.2   142  HEM142      0.0000
     30  CMC       18.1440   49.0440   30.8080 C.3   142  HEM142      0.0000
     31  CAC       16.9190   50.4370   28.1670 C.2   142  HEM142      0.0000
     32  CBC       15.7910   49.7840   28.5130 C.2   142  HEM142      0.0000
     33  ND        21.1490   49.1560   24.9700 N.ar  142  HEM142      0.0000
     34  C1D       19.9130   49.8230   24.9140 C.ar  142  HEM142      0.0000
     35  C2D       19.6890   50.3050   23.5740 C.ar  142  HEM142      0.0000
     36  C3D       20.9180   49.8970   22.7870 C.ar  142  HEM142      0.0000
     37  C4D       21.7840   49.1920   23.7160 C.ar  142  HEM142      0.0000
     38  CMD       18.4750   51.0880   23.0380 C.3   142  HEM142      0.0000
     39  CAD       21.1420   50.1880   21.2890 C.3   142  HEM142      0.0000
     40  CBD       20.3030   49.2040   20.4890 C.3   142  HEM142      0.0000
     41  CGD       20.4920   49.5210   19.0330 C.2   142  HEM142      0.0000
     42  O1D       21.4330   48.9540   18.4210 O.co2 142  HEM142      0.0000
     43  O2D       19.7120   50.3560   18.5020 O.co2 142  HEM142      0.0000
@<TRIPOS>BOND
     1    42    41   ar
     2    43    41   ar
     3    41    40    1
     4    16    14   ar
     5    40    39    1
     6    15    14   ar
     7    14    13    1
     8    39    36    1
     9    13    12    1
    10    12     8    1
    11    36    35   ar
    12    36    37   ar
    13    38    35    1
    14     2    37    2
    15     2     7    1
    16    35    34   ar
    17    37    33   ar
    18     8     7    1
    19     8     9    2
    20     7     6    2
    21     9    11    1
    22     9    10    1
    23    34    33   ar
    24    34     5    2
    25    33     1    1
    26     6    10    1
    27     6     1    1
    28     5    29    1
    29    10     3    2
    30     1    25    1
    31     1    17    1
    32    29    25    2
    33    29    28    1
    34     3    18    1
    35    25    26    1
    36    31    28    1
    37    31    32    2
    38    17    18   ar
    39    17    21   ar
    40    28    27    2
    41    18    19   ar
    42    26    27    1
    43    26     4    2
    44    27    30    1
    45    21     4    1
    46    21    20   ar
    47    19    22    1
    48    19    20   ar
    49    20    23    1
    50    23    24    2
