@<TRIPOS>MOLECULE
2d5x_L35_A_1.pdb
 25 26 0 0 0
SMALL
GASTEIGER

@<TRIPOS>ATOM
      1  C1        30.1050   47.2430   23.3820 C.ar  1200  L351200     0.0767
      2  C2        30.6620   47.2580   24.6590 C.ar  1200  L351200     0.0281
      3  C3        30.8610   46.0760   25.3590 C.ar  1200  L351200     0.0598
      4  C4        30.5110   44.8580   24.7880 C.ar  1200  L351200     0.0229
      5  C5        29.9610   44.8210   23.5060 C.ar  1200  L351200     0.0598
      6  C6        29.7410   46.0190   22.8020 C.ar  1200  L351200     0.0281
      7  C7        30.1220   49.6810   23.0130 C.2   1200  L351200     0.3477
      8  C8        29.3310   54.7150   21.9920 C.ar  1200  L351200     0.1391
      9  C9        30.0310   54.1000   23.0370 C.ar  1200  L351200     0.0382
     10  C10       30.0750   52.7050   23.1650 C.ar  1200  L351200     0.0198
     11  C11       29.4110   51.8980   22.2370 C.ar  1200  L351200     0.0752
     12  C12       28.7050   52.5150   21.2030 C.ar  1200  L351200     0.0198
     13  C13       28.6610   53.9040   21.0780 C.ar  1200  L351200     0.0382
     14  C14       29.0850   56.9610   20.7810 C.3   1200  L351200     0.2253
     15  C15       29.9140   56.5460   19.5650 C.3   1200  L351200     0.0554
     16  C16       29.4830   58.3670   21.2080 C.3   1200  L351200     0.0554
     17  C17       27.6150   57.0510   20.4350 C.2   1200  L351200     0.4000
     18  N1        29.8880   48.3930   22.6810 N.am  1200  L351200    -0.1606
     19  N2        29.3860   50.5320   22.2770 N.am  1200  L351200    -0.1607
     20  O1        30.6440   50.0480   24.0610 O.2   1200  L351200    -0.2484
     21  O2        29.3200   56.1000   21.9200 O.3   1200  L351200    -0.4718
     22  O3        26.7770   56.8830   21.3460 O.co2 1200  L351200    -0.2418
     23  O4        27.2700   57.3180   19.2600 O.co2 1200  L351200    -0.2418
     24 CL1        29.5300   43.2200   22.8190 Cl    1200  L351200    -0.0822
     25 CL2        31.5700   46.1430   27.0120 Cl    1200  L351200    -0.0822
@<TRIPOS>BOND
     1    23    17   ar
     2    15    14    1
     3    17    14    1
     4    17    22   ar
     5    14    16    1
     6    14    21    1
     7    13    12   ar
     8    13     8   ar
     9    12    11   ar
    10    21     8    1
    11     8     9   ar
    12    11    19    1
    13    11    10   ar
    14    19     7   am
    15    18     7   am
    16    18     1    1
    17     6     1   ar
    18     6     5   ar
    19    24     5    1
    20     7    20    2
    21     9    10   ar
    22     1     2   ar
    23     5     4   ar
    24     2     3   ar
    25     4     3   ar
    26     3    25    1
