@<TRIPOS>MOLECULE
2d5y_PLP_A_1.pdb
 15 15 0 0 0
SMALL
GASTEIGER

@<TRIPOS>ATOM
      1  N1        26.9640    4.6520  -14.8200 N.ar  413  PLP413     -0.2452
      2  C2        26.4170    5.5960  -15.6220 C.ar  413  PLP413      0.0978
      3  C2A       27.2650    6.0050  -16.8360 C.3   413  PLP413      0.0555
      4  C3        25.1760    6.0890  -15.2880 C.ar  413  PLP413      0.2049
      5  O3        24.7040    7.0270  -16.1430 O.3   413  PLP413     -0.2857
      6  C4        24.4440    5.6640  -14.1660 C.ar  413  PLP413      0.0182
      7  C4A       23.0320    6.2470  -13.8510 C.3   413  PLP413      0.0342
      8  C5        25.0310    4.6650  -13.3270 C.ar  413  PLP413      0.0261
      9  C6        26.2790    4.2100  -13.7090 C.ar  413  PLP413      0.0965
     10  C5A       24.4660    4.0320  -12.0770 C.3   413  PLP413      0.1815
     11  O4P       23.5480    4.8110  -11.3550 O.3   413  PLP413     -0.2653
     12  P         22.9280    4.2820  -10.0870 P.3   413  PLP413      0.5329
     13  O1P       22.0490    5.4220   -9.7480 O.3   413  PLP413     -0.1145
     14  O2P       24.0130    4.0900   -9.0790 O.3   413  PLP413     -0.1145
     15  O3P       22.2100    3.0420  -10.3590 O.2   413  PLP413     -0.2224
@<TRIPOS>BOND
     1     3     2    1
     2     5     4    1
     3     2     4   ar
     4     2     1   ar
     5     4     6   ar
     6     1     9   ar
     7     6     7    1
     8     6     8   ar
     9     9     8   ar
    10     8    10    1
    11    10    11    1
    12    11    12    1
    13    15    12    2
    14    12    13    1
    15    12    14    1
