@<TRIPOS>MOLECULE
2d5z_L35_A_1.pdb
 25 26 0 0 0
SMALL
GASTEIGER

@<TRIPOS>ATOM
      1  C1        -4.0860   -1.9560   12.6550 C.ar  1201  L351201     0.0767
      2  C2        -5.1380   -1.5540   11.8420 C.ar  1201  L351201     0.0281
      3  C3        -4.9570   -0.5120   10.9450 C.ar  1201  L351201     0.0598
      4  C4        -3.7520    0.1570   10.8300 C.ar  1201  L351201     0.0229
      5  C5        -2.7090   -0.2570   11.6280 C.ar  1201  L351201     0.0598
      6  C6        -2.8580   -1.2980   12.5440 C.ar  1201  L351201     0.0281
      7  C7        -3.4650   -3.5680   14.3780 C.2   1201  L351201     0.3477
      8  C8        -1.2800   -7.1070   17.1440 C.ar  1201  L351201     0.1391
      9  C9        -1.3460   -5.7460   17.4330 C.ar  1201  L351201     0.0382
     10  C10       -2.2420   -4.9140   16.7670 C.ar  1201  L351201     0.0198
     11  C11       -3.0750   -5.4280   15.7660 C.ar  1201  L351201     0.0752
     12  C12       -3.0130   -6.7940   15.4770 C.ar  1201  L351201     0.0198
     13  C13       -2.1230   -7.6310   16.1600 C.ar  1201  L351201     0.0382
     14  C14       -0.1960   -9.2660   17.8910 C.3   1201  L351201     0.2253
     15  C15       -1.3930   -9.9250   18.5820 C.3   1201  L351201     0.0554
     16  C16        1.0780   -9.5410   18.6710 C.3   1201  L351201     0.0554
     17  C17        0.0220   -9.7530   16.4730 C.2   1201  L351201     0.4000
     18  N1        -4.3170   -2.9870   13.5210 N.am  1201  L351201    -0.1606
     19  N2        -3.9330   -4.6180   15.0740 N.am  1201  L351201    -0.1607
     20  O1        -2.2990   -3.2080   14.4800 O.2   1201  L351201    -0.2484
     21  O2        -0.3570   -7.8380   17.8560 O.3   1201  L351201    -0.4718
     22  O3         0.7500   -9.0450   15.7300 O.co2 1201  L351201    -0.2418
     23  O4        -0.5280  -10.8030   16.0710 O.co2 1201  L351201    -0.2418
     24 CL1        -1.1720    0.6140   11.4590 Cl    1201  L351201    -0.0822
     25 CL2        -6.2980    0.0290    9.9140 Cl    1201  L351201    -0.0822
@<TRIPOS>BOND
     1    25     3    1
     2     4     3   ar
     3     4     5   ar
     4     3     2   ar
     5    24     5    1
     6     5     6   ar
     7     2     1   ar
     8     6     1   ar
     9     1    18    1
    10    18     7   am
    11     7    20    2
    12     7    19   am
    13    19    11    1
    14    12    11   ar
    15    12    13   ar
    16    22    17   ar
    17    11    10   ar
    18    23    17   ar
    19    13     8   ar
    20    17    14    1
    21    10     9   ar
    22     8     9   ar
    23     8    21    1
    24    21    14    1
    25    14    15    1
    26    14    16    1
