@<TRIPOS>MOLECULE
2d5z_HEM_A_1.pdb
 43 50 0 0 0
SMALL
GASTEIGER

@<TRIPOS>ATOM
      1 FE         11.0860   -6.0310   28.1780 Fe    142  HEM142      0.0000
      2  CHA       11.3210   -6.4810   31.6080 C.2   142  HEM142      0.0000
      3  CHB       13.6580   -8.2780   27.7240 C.2   142  HEM142      0.0000
      4  CHC       11.2820   -5.2310   24.8030 C.2   142  HEM142      0.0000
      5  CHD        9.1520   -3.1970   28.6560 C.2   142  HEM142      0.0000
      6  NA        12.2570   -7.1710   29.4280 N.ar  142  HEM142      0.0000
      7  C1A       12.1920   -7.2050   30.8180 C.ar  142  HEM142      0.0000
      8  C2A       13.2200   -8.1110   31.2930 C.ar  142  HEM142      0.0000
      9  C3A       13.8600   -8.5950   30.2230 C.ar  142  HEM142      0.0000
     10  C4A       13.2720   -8.0120   29.0250 C.ar  142  HEM142      0.0000
     11  CMA       15.0270   -9.5970   30.2270 C.3   142  HEM142      0.0000
     12  CAA       13.5010   -8.4440   32.7780 C.3   142  HEM142      0.0000
     13  CBA       12.5580   -9.5670   33.1990 C.3   142  HEM142      0.0000
     14  CGA       12.8710  -10.0280   34.5940 C.2   142  HEM142      0.0000
     15  O1A       13.1860  -11.2320   34.7360 O.co2 142  HEM142      0.0000
     16  O2A       12.7920   -9.2080   35.5500 O.co2 142  HEM142      0.0000
     17  NB        12.2640   -6.6140   26.5660 N.2   142  HEM142      0.0000
     18  C1B       13.2080   -7.6380   26.5840 C.2   142  HEM142      0.0000
     19  C2B       13.6100   -7.9450   25.2200 C.2   142  HEM142      0.0000
     20  C3B       12.9740   -7.0760   24.4060 C.2   142  HEM142      0.0000
     21  C4B       12.1040   -6.2590   25.2360 C.2   142  HEM142      0.0000
     22  CMB       14.6780   -9.0010   24.8120 C.3   142  HEM142      0.0000
     23  CAB       13.0820   -6.9590   22.8660 C.2   142  HEM142      0.0000
     24  CBB       14.2940   -6.9590   22.3030 C.2   142  HEM142      0.0000
     25  NC        10.3880   -4.4930   26.9790 N.ar  142  HEM142      0.0000
     26  C1C       10.5250   -4.4030   25.5930 C.ar  142  HEM142      0.0000
     27  C2C        9.6860   -3.3330   25.1100 C.ar  142  HEM142      0.0000
     28  C3C        9.1290   -2.7490   26.1820 C.ar  142  HEM142      0.0000
     29  C4C        9.5520   -3.4740   27.3730 C.ar  142  HEM142      0.0000
     30  CMC        9.5920   -2.9330   23.6100 C.3   142  HEM142      0.0000
     31  CAC        8.1830   -1.5470   26.1640 C.2   142  HEM142      0.0000
     32  CBC        8.6790   -0.3950   25.6710 C.2   142  HEM142      0.0000
     33  ND        10.3590   -5.0160   29.8500 N.2   142  HEM142      0.0000
     34  C1D        9.5660   -3.8730   29.7960 C.2   142  HEM142      0.0000
     35  C2D        9.2320   -3.4600   31.1400 C.2   142  HEM142      0.0000
     36  C3D        9.9030   -4.4710   32.0580 C.2   142  HEM142      0.0000
     37  C4D       10.5750   -5.3940   31.1870 C.2   142  HEM142      0.0000
     38  CMD        8.3720   -2.2690   31.5680 C.3   142  HEM142      0.0000
     39  CAD        9.8700   -4.4990   33.6100 C.3   142  HEM142      0.0000
     40  CBD       11.0190   -3.6080   34.1030 C.3   142  HEM142      0.0000
     41  CGD       11.0430   -3.4770   35.6060 C.2   142  HEM142      0.0000
     42  O1D       12.1360   -3.6640   36.1920 O.co2 142  HEM142      0.0000
     43  O2D        9.9990   -3.1430   36.2140 O.co2 142  HEM142      0.0000
@<TRIPOS>BOND
     1    24    23    2
     2    23    20    1
     3    30    27    1
     4    20    19    2
     5    20    21    1
     6     4    21    2
     7     4    26    1
     8    22    19    1
     9    27    26   ar
    10    27    28   ar
    11    19    18    1
    12    21    17    1
    13    26    25   ar
    14    32    31    2
    15    31    28    1
    16    28    29   ar
    17    17    18    2
    18    17     1    1
    19    18     3    1
    20    25    29   ar
    21    25     1    1
    22    29     5    1
    23     3    10    2
    24     1     6    1
    25     1    33    1
    26     5    34    2
    27    10     6   ar
    28    10     9   ar
    29     6     7   ar
    30    34    33    1
    31    34    35    1
    32    33    37    2
    33     9    11    1
    34     9     8   ar
    35     7     8   ar
    36     7     2    2
    37    35    38    1
    38    35    36    2
    39    37     2    1
    40    37    36    1
    41     8    12    1
    42    36    39    1
    43    12    13    1
    44    13    14    1
    45    39    40    1
    46    40    41    1
    47    14    15   ar
    48    14    16   ar
    49    41    42   ar
    50    41    43   ar
