@<TRIPOS>MOLECULE
2d60_L35_B_1.pdb
 25 26 0 0 0
SMALL
GASTEIGER

@<TRIPOS>ATOM
      1  C1         7.5190    3.6750   12.4900 C.ar  1200  L351200     0.0767
      2  C2         8.7800    3.0890   12.7420 C.ar  1200  L351200     0.0281
      3  C3         8.9400    2.1120   13.7290 C.ar  1200  L351200     0.0598
      4  C4         7.8510    1.7100   14.4510 C.ar  1200  L351200     0.0229
      5  C5         6.6170    2.2760   14.2060 C.ar  1200  L351200     0.0598
      6  C6         6.4280    3.2620   13.2450 C.ar  1200  L351200     0.0281
      7  C7         8.3250    5.2390   10.8310 C.2   1200  L351200     0.3477
      8  C8        10.6690    8.4890    7.7440 C.ar  1200  L351200     0.1391
      9  C9        10.6440    7.0900    7.5720 C.ar  1200  L351200     0.0382
     10  C10        9.7330    6.2910    8.2700 C.ar  1200  L351200     0.0198
     11  C11        8.8430    6.8840    9.1780 C.ar  1200  L351200     0.0752
     12  C12        8.8600    8.2710    9.3460 C.ar  1200  L351200     0.0198
     13  C13        9.7670    9.0630    8.6450 C.ar  1200  L351200     0.0382
     14  C14       11.6990   10.6930    6.9300 C.3   1200  L351200     0.2253
     15  C15       10.5100   11.2750    6.1700 C.3   1200  L351200     0.0554
     16  C16       12.9880   11.0040    6.2050 C.3   1200  L351200     0.0554
     17  C17       11.9110   11.3100    8.3040 C.2   1200  L351200     0.4000
     18  N1         7.3310    4.6390   11.5350 N.am  1200  L351200    -0.1606
     19  N2         7.9470    6.1530    9.9030 N.am  1200  L351200    -0.1607
     20  O1         9.4650    4.7580   10.8320 O.2   1200  L351200    -0.2484
     21  O2        11.5840    9.2470    7.0270 O.3   1200  L351200    -0.4718
     22  O3        12.5890   10.6250    9.1240 O.co2 1200  L351200    -0.2418
     23  O4        11.2460   12.3120    8.6740 O.co2 1200  L351200    -0.2418
     24 CL1         5.3020    1.6420   15.2270 Cl    1200  L351200    -0.0822
     25 CL2        10.4860    1.3160   14.1500 Cl    1200  L351200    -0.0822
@<TRIPOS>BOND
     1    15    14    1
     2    16    14    1
     3    14    21    1
     4    14    17    1
     5    21     8    1
     6     9     8   ar
     7     9    10   ar
     8     8    13   ar
     9    10    11   ar
    10    17    23   ar
    11    17    22   ar
    12    13    12   ar
    13    11    12   ar
    14    11    19    1
    15    19     7   am
    16     7    20    2
    17     7    18   am
    18    18     1    1
    19     1     2   ar
    20     1     6   ar
    21     2     3   ar
    22     6     5   ar
    23     3    25    1
    24     3     4   ar
    25     5     4   ar
    26     5    24    1
