@<TRIPOS>MOLECULE
2d60_HEM_A_1.pdb
 43 50 0 0 0
SMALL
GASTEIGER

@<TRIPOS>ATOM
      1 FE          8.7080   11.7090   27.6950 Fe    142  HEM142      0.0000
      2  CHA        8.5030   12.6900   30.9560 C.2   142  HEM142      0.0000
      3  CHB        6.8950   14.6800   26.8510 C.2   142  HEM142      0.0000
      4  CHC        8.2470   10.6290   24.4970 C.2   142  HEM142      0.0000
      5  CHD        9.5250    8.4290   28.6570 C.2   142  HEM142      0.0000
      6  NA         7.8440   13.4220   28.6990 N.ar  142  HEM142      0.0000
      7  C1A        7.9060   13.5690   30.0680 C.ar  142  HEM142      0.0000
      8  C2A        7.2580   14.8450   30.3870 C.ar  142  HEM142      0.0000
      9  C3A        6.8060   15.4030   29.2610 C.ar  142  HEM142      0.0000
     10  C4A        7.1760   14.5060   28.1820 C.ar  142  HEM142      0.0000
     11  CMA        6.0250   16.7530   29.0360 C.3   142  HEM142      0.0000
     12  CAA        7.1060   15.4050   31.8190 C.3   142  HEM142      0.0000
     13  CBA        8.3350   16.2810   32.1360 C.3   142  HEM142      0.0000
     14  CGA        8.3110   16.9120   33.5100 C.2   142  HEM142      0.0000
     15  O1A        7.8780   16.2640   34.4730 O.co2 142  HEM142      0.0000
     16  O2A        8.7600   18.0730   33.6420 O.co2 142  HEM142      0.0000
     17  NB         7.7310   12.4890   26.0280 N.2   142  HEM142      0.0000
     18  C1B        7.1060   13.7180   25.8720 C.2   142  HEM142      0.0000
     19  C2B        6.7360   13.8830   24.4860 C.2   142  HEM142      0.0000
     20  C3B        7.1230   12.8060   23.8190 C.2   142  HEM142      0.0000
     21  C4B        7.7280   11.8810   24.7720 C.2   142  HEM142      0.0000
     22  CMB        6.0550   15.1330   23.8960 C.3   142  HEM142      0.0000
     23  CAB        6.9020   12.5770   22.3220 C.2   142  HEM142      0.0000
     24  CBB        5.6970   12.8020   21.7270 C.2   142  HEM142      0.0000
     25  NC         8.8700    9.8340   26.7560 N.ar  142  HEM142      0.0000
     26  C1C        8.6630    9.6580   25.3970 C.ar  142  HEM142      0.0000
     27  C2C        8.9180    8.2240   25.1140 C.ar  142  HEM142      0.0000
     28  C3C        9.2620    7.6410   26.2640 C.ar  142  HEM142      0.0000
     29  C4C        9.2450    8.6310   27.3080 C.ar  142  HEM142      0.0000
     30  CMC        8.8460    7.5370   23.7240 C.3   142  HEM142      0.0000
     31  CAC        9.6510    6.1420   26.4810 C.2   142  HEM142      0.0000
     32  CBC        8.8680    5.1380   26.0380 C.2   142  HEM142      0.0000
     33  ND         8.9840   10.6900   29.5010 N.2   142  HEM142      0.0000
     34  C1D        9.3150    9.3620   29.6520 C.2   142  HEM142      0.0000
     35  C2D        9.4890    9.1090   31.0450 C.2   142  HEM142      0.0000
     36  C3D        9.1930   10.4280   31.7560 C.2   142  HEM142      0.0000
     37  C4D        8.8770   11.3410   30.7340 C.2   142  HEM142      0.0000
     38  CMD        9.9080    7.7750   31.6890 C.3   142  HEM142      0.0000
     39  CAD        9.1970   10.6500   33.3010 C.3   142  HEM142      0.0000
     40  CBD        7.8490   10.1660   33.8340 C.3   142  HEM142      0.0000
     41  CGD        7.7540   10.3540   35.3470 C.2   142  HEM142      0.0000
     42  O1D        7.0230   11.2800   35.7920 O.co2 142  HEM142      0.0000
     43  O2D        8.4040    9.5560   36.0630 O.co2 142  HEM142      0.0000
@<TRIPOS>BOND
     1    24    23    2
     2    23    20    1
     3    30    27    1
     4    20    19    2
     5    20    21    1
     6    22    19    1
     7    19    18    1
     8     4    21    2
     9     4    26    1
    10    21    17    1
    11    27    26   ar
    12    27    28   ar
    13    26    25   ar
    14    18    17    2
    15    18     3    1
    16    17     1    1
    17    32    31    2
    18    28    31    1
    19    28    29   ar
    20    25    29   ar
    21    25     1    1
    22     3    10    2
    23    29     5    1
    24     1     6    1
    25     1    33    1
    26    10     6   ar
    27    10     9   ar
    28     5    34    2
    29     6     7   ar
    30    11     9    1
    31     9     8   ar
    32    33    34    1
    33    33    37    2
    34    34    35    1
    35     7     8   ar
    36     7     2    2
    37     8    12    1
    38    37     2    1
    39    37    36    1
    40    35    38    1
    41    35    36    2
    42    36    39    1
    43    12    13    1
    44    13    14    1
    45    39    40    1
    46    14    16   ar
    47    14    15   ar
    48    40    41    1
    49    41    42   ar
    50    41    43   ar
