@<TRIPOS>MOLECULE
2d61_PLP_A_1.pdb
 15 15 0 0 0
SMALL
GASTEIGER

@<TRIPOS>ATOM
      1  N1        26.9880    4.5190  -14.8530 N.ar  413  PLP413     -0.2452
      2  C2        26.3980    5.4500  -15.6680 C.ar  413  PLP413      0.0978
      3  C2A       27.1490    5.7410  -16.9620 C.3   413  PLP413      0.0555
      4  C3        25.1930    6.0260  -15.2490 C.ar  413  PLP413      0.2049
      5  O3        24.6500    6.9430  -16.1000 O.3   413  PLP413     -0.2857
      6  C4        24.5660    5.6910  -14.0350 C.ar  413  PLP413      0.0182
      7  C4A       23.2140    6.3550  -13.6210 C.3   413  PLP413      0.0342
      8  C5        25.2040    4.7050  -13.1940 C.ar  413  PLP413      0.0261
      9  C6        26.3930    4.1760  -13.6650 C.ar  413  PLP413      0.0965
     10  C5A       24.7310    4.1540  -11.8510 C.3   413  PLP413      0.1815
     11  O4P       23.7510    4.8750  -11.1900 O.3   413  PLP413     -0.2653
     12  P         22.9560    4.3590   -9.9860 P.3   413  PLP413      0.5329
     13  O1P       22.1270    5.5690   -9.7320 O.3   413  PLP413     -0.1145
     14  O2P       23.9490    4.0790   -8.9090 O.3   413  PLP413     -0.1145
     15  O3P       22.1220    3.2130  -10.3070 O.2   413  PLP413     -0.2224
@<TRIPOS>BOND
     1     3     2    1
     2     5     4    1
     3     2     4   ar
     4     2     1   ar
     5     4     6   ar
     6     1     9   ar
     7     6     7    1
     8     6     8   ar
     9     9     8   ar
    10     8    10    1
    11    10    11    1
    12    11    12    1
    13    15    12    2
    14    12    13    1
    15    12    14    1
