@<TRIPOS>MOLECULE
2d63_PLP_A_1.pdb
 15 15 0 0 0
SMALL
GASTEIGER

@<TRIPOS>ATOM
      1  N1        26.9770    4.5520  -14.8930 N.ar  413  PLP413     -0.2452
      2  C2        26.3960    5.5070  -15.6900 C.ar  413  PLP413      0.0978
      3  C2A       27.2130    5.9310  -16.9100 C.3   413  PLP413      0.0555
      4  C3        25.1440    5.9910  -15.3290 C.ar  413  PLP413      0.2049
      5  O3        24.6220    6.9330  -16.1590 O.3   413  PLP413     -0.2857
      6  C4        24.4460    5.5480  -14.1910 C.ar  413  PLP413      0.0182
      7  C4A       23.0420    6.1050  -13.8410 C.3   413  PLP413      0.0342
      8  C5        25.0610    4.5530  -13.3590 C.ar  413  PLP413      0.0261
      9  C6        26.3110    4.1050  -13.7670 C.ar  413  PLP413      0.0965
     10  C5A       24.4990    3.9270  -12.0860 C.3   413  PLP413      0.1815
     11  O4P       23.5950    4.7100  -11.3460 O.3   413  PLP413     -0.2653
     12  P         22.9570    4.2190  -10.0280 P.3   413  PLP413      0.5329
     13  O1P       22.0810    5.3770   -9.6710 O.3   413  PLP413     -0.1145
     14  O2P       24.0580    4.0400   -9.0350 O.3   413  PLP413     -0.1145
     15  O3P       22.2110    3.0030  -10.2770 O.2   413  PLP413     -0.2224
@<TRIPOS>BOND
     1     3     2    1
     2     5     4    1
     3     2     4   ar
     4     2     1   ar
     5     4     6   ar
     6     1     9   ar
     7     6     7    1
     8     6     8   ar
     9     9     8   ar
    10     8    10    1
    11    10    11    1
    12    11    12    1
    13    15    12    2
    14    12    13    1
    15    12    14    1
