@<TRIPOS>MOLECULE
2d64_PLP_A_1.pdb
 15 15 0 0 0
SMALL
GASTEIGER

@<TRIPOS>ATOM
      1  N1        26.8400    4.7510  -14.9320 N.ar  413  PLP413     -0.2452
      2  C2        26.2970    5.7340  -15.7240 C.ar  413  PLP413      0.0978
      3  C2A       27.1570    6.1570  -16.9120 C.3   413  PLP413      0.0555
      4  C3        25.0470    6.2420  -15.3860 C.ar  413  PLP413      0.2049
      5  O3        24.5710    7.2080  -16.2160 O.3   413  PLP413     -0.2857
      6  C4        24.3130    5.7930  -14.2660 C.ar  413  PLP413      0.0182
      7  C4A       22.9040    6.3640  -13.9070 C.3   413  PLP413      0.0342
      8  C5        24.8990    4.7650  -13.4470 C.ar  413  PLP413      0.0261
      9  C6        26.1460    4.3000  -13.8400 C.ar  413  PLP413      0.0965
     10  C5A       24.3160    4.1160  -12.1940 C.3   413  PLP413      0.1815
     11  O4P       23.4630    4.8980  -11.3840 O.3   413  PLP413     -0.2653
     12  P         22.8960    4.3450  -10.0550 P.3   413  PLP413      0.5329
     13  O1P       22.0540    5.4720   -9.5880 O.3   413  PLP413     -0.1145
     14  O2P       24.0520    4.1100   -9.1380 O.3   413  PLP413     -0.1145
     15  O3P       22.1370    3.1360  -10.3140 O.2   413  PLP413     -0.2224
@<TRIPOS>BOND
     1     3     2    1
     2     5     4    1
     3     2     4   ar
     4     2     1   ar
     5     4     6   ar
     6     1     9   ar
     7     6     7    1
     8     6     8   ar
     9     9     8   ar
    10     8    10    1
    11    10    11    1
    12    11    12    1
    13    15    12    2
    14    12    13    1
    15    12    14    1
