@<TRIPOS>MOLECULE
2d65_PLP_A_1.pdb
 15 15 0 0 0
SMALL
GASTEIGER

@<TRIPOS>ATOM
      1  N1        26.8760    4.5960  -15.0210 N.ar  413  PLP413     -0.2452
      2  C2        26.4560    5.6630  -15.7760 C.ar  413  PLP413      0.0978
      3  C2A       27.3530    6.0290  -16.9540 C.3   413  PLP413      0.0555
      4  C3        25.2820    6.3000  -15.4130 C.ar  413  PLP413      0.2049
      5  O3        24.9230    7.3500  -16.2070 O.3   413  PLP413     -0.2857
      6  C4        24.5000    5.9090  -14.3170 C.ar  413  PLP413      0.0182
      7  C4A       23.1860    6.6630  -13.9790 C.3   413  PLP413      0.0342
      8  C5        24.9440    4.7900  -13.5290 C.ar  413  PLP413      0.0261
      9  C6        26.1270    4.1920  -13.9390 C.ar  413  PLP413      0.0965
     10  C5A       24.2790    4.1700  -12.3050 C.3   413  PLP413      0.1815
     11  O4P       23.4740    4.9870  -11.5020 O.3   413  PLP413     -0.2653
     12  P         22.9010    4.4780  -10.1570 P.3   413  PLP413      0.5329
     13  O1P       22.1230    5.6580   -9.7020 O.3   413  PLP413     -0.1145
     14  O2P       24.0570    4.2000   -9.2520 O.3   413  PLP413     -0.1145
     15  O3P       22.0710    3.2940  -10.3870 O.2   413  PLP413     -0.2224
@<TRIPOS>BOND
     1     3     2    1
     2     5     4    1
     3     2     4   ar
     4     2     1   ar
     5     4     6   ar
     6     1     9   ar
     7     6     7    1
     8     6     8   ar
     9     9     8   ar
    10     8    10    1
    11    10    11    1
    12    11    12    1
    13    15    12    2
    14    12    13    1
    15    12    14    1
