@<TRIPOS>MOLECULE
2d66_PLP_A_1.pdb
 15 15 0 0 0
SMALL
GASTEIGER

@<TRIPOS>ATOM
      1  N1        26.8530    4.5160  -14.9980 N.ar  413  PLP413     -0.2452
      2  C2        26.4100    5.5800  -15.7600 C.ar  413  PLP413      0.0978
      3  C2A       27.2820    5.9340  -16.9700 C.3   413  PLP413      0.0555
      4  C3        25.2390    6.2220  -15.3730 C.ar  413  PLP413      0.2049
      5  O3        24.8450    7.2640  -16.1630 O.3   413  PLP413     -0.2857
      6  C4        24.4880    5.8470  -14.2530 C.ar  413  PLP413      0.0182
      7  C4A       23.1810    6.6180  -13.8910 C.3   413  PLP413      0.0342
      8  C5        24.9540    4.7360  -13.4630 C.ar  413  PLP413      0.0261
      9  C6        26.1310    4.1290  -13.8950 C.ar  413  PLP413      0.0965
     10  C5A       24.3190    4.1320  -12.2140 C.3   413  PLP413      0.1815
     11  O4P       23.4850    4.9460  -11.4400 O.3   413  PLP413     -0.2653
     12  P         22.8930    4.4560  -10.1050 P.3   413  PLP413      0.5329
     13  O1P       22.0950    5.6460   -9.6890 O.3   413  PLP413     -0.1145
     14  O2P       24.0340    4.1960   -9.1880 O.3   413  PLP413     -0.1145
     15  O3P       22.0590    3.2740  -10.3330 O.2   413  PLP413     -0.2224
@<TRIPOS>BOND
     1     3     2    1
     2     5     4    1
     3     2     4   ar
     4     2     1   ar
     5     4     6   ar
     6     1     9   ar
     7     6     7    1
     8     6     8   ar
     9     9     8   ar
    10     8    10    1
    11    10    11    1
    12    11    12    1
    13    15    12    2
    14    12    13    1
    15    12    14    1
