@<TRIPOS>MOLECULE
2d6c_HME_A_1.pdb
 43 50 0 0 0
SMALL
GASTEIGER

@<TRIPOS>ATOM
      1 FE          8.3730   -7.9040   19.7780 Fe    154  HME154      0.0000
      2  NC         9.5190   -6.6050   18.5170 N.ar  154  HME154      0.0000
      3  NB         9.1020   -6.2930   20.9910 N.ar  154  HME154      0.0000
      4  NA         7.2140   -9.1540   21.1640 N.ar  154  HME154      0.0000
      5  ND         7.6090   -9.4660   18.6450 N.ar  154  HME154      0.0000
      6  C4C        9.7630   -6.7430   17.1880 C.ar  154  HME154      0.0000
      7  C3C       10.6160   -5.6060   16.7690 C.ar  154  HME154      0.0000
      8  C2C       10.8460   -4.8210   17.8800 C.ar  154  HME154      0.0000
      9  C1C       10.1350   -5.4800   18.9830 C.ar  154  HME154      0.0000
     10  C4B        9.8940   -5.2790   20.4100 C.ar  154  HME154      0.0000
     11  C3B       10.2300   -4.3250   21.4490 C.ar  154  HME154      0.0000
     12  C2B        9.6270   -4.7880   22.6180 C.ar  154  HME154      0.0000
     13  C1B        8.9230   -6.0330   22.3170 C.ar  154  HME154      0.0000
     14  CHB        8.1970   -6.7970   23.2850 C.2   154  HME154      0.0000
     15  CHA        7.4240   -8.0000   23.3630 C.2   154  HME154      0.0000
     16  C4A        6.9860   -9.0250   22.4990 C.ar  154  HME154      0.0000
     17  C3A        6.1630  -10.1730   22.9360 C.ar  154  HME154      0.0000
     18  C2A        5.9190  -10.9590   21.8360 C.ar  154  HME154      0.0000
     19  C1A        6.6030  -10.2780   20.6790 C.ar  154  HME154      0.0000
     20  C4D        6.8110  -10.4620   19.2220 C.ar  154  HME154      0.0000
     21  C3D        6.4350  -11.3660   18.1540 C.ar  154  HME154      0.0000
     22  C2D        7.0350  -10.8830   16.9880 C.ar  154  HME154      0.0000
     23  C1D        7.7750   -9.6760   17.3330 C.ar  154  HME154      0.0000
     24  CHD        8.5110   -8.9190   16.3800 C.2   154  HME154      0.0000
     25  CHC        9.3090   -7.7500   16.3240 C.2   154  HME154      0.0000
     26  CAC       11.1400   -5.3540   15.3510 C.3   154  HME154      0.0000
     27  CBC       10.2390   -4.7330   14.3680 C.3   154  HME154      0.0000
     28  CMC       11.6660   -3.5640   17.8830 C.3   154  HME154      0.0000
     29  CMB       11.0490   -3.0730   21.3440 C.3   154  HME154      0.0000
     30  CAB        9.6670   -4.1300   24.0090 C.3   154  HME154      0.0000
     31  CBB       10.7020   -4.6320   24.9070 C.3   154  HME154      0.0000
     32  CMA        5.6760  -10.4260   24.3560 C.3   154  HME154      0.0000
     33  CAA        5.0810  -12.2430   21.9580 C.3   154  HME154      0.0000
     34  CBA        6.3800  -13.2010   21.6890 C.3   154  HME154      0.0000
     35  CGA        6.4010  -14.6370   21.6290 C.2   154  HME154      0.0000
     36  O1A        5.9870  -15.4280   22.5540 O.co2 154  HME154      0.0000
     37  O2A        6.8530  -15.0230   20.5860 O.co2 154  HME154      0.0000
     38  CAD        5.5780  -12.5790   18.2510 C.3   154  HME154      0.0000
     39  CBD        4.0400  -12.0930   18.3660 C.3   154  HME154      0.0000
     40  CGD        2.9570  -12.9600   19.0990 C.2   154  HME154      0.0000
     41  O1D        1.7940  -12.4980   19.1430 O.co2 154  HME154      0.0000
     42  O2D        3.2910  -14.0850   19.6200 O.co2 154  HME154      0.0000
     43  CMD        6.9540  -11.4720   15.5980 C.3   154  HME154      0.0000
@<TRIPOS>BOND
     1    27    26    1
     2    26     7    1
     3    43    22    1
     4    25    24    1
     5    25     6    2
     6    24    23    2
     7     7     6   ar
     8     7     8   ar
     9    22    23   ar
    10    22    21   ar
    11     6     2   ar
    12    23     5   ar
    13     8    28    1
    14     8     9   ar
    15    21    38    1
    16    21    20   ar
    17    38    39    1
    18    39    40    1
    19     2     9   ar
    20     2     1    1
    21     5    20   ar
    22     5     1    1
    23     9    10    2
    24    40    41   ar
    25    40    42   ar
    26    20    19    2
    27     1     3    1
    28     1     4    1
    29    10     3   ar
    30    10    11   ar
    31    37    35   ar
    32    19     4   ar
    33    19    18   ar
    34     3    13   ar
    35     4    16   ar
    36    29    11    1
    37    11    12   ar
    38    35    34    1
    39    35    36   ar
    40    34    33    1
    41    18    33    1
    42    18    17   ar
    43    13    12   ar
    44    13    14    2
    45    16    17   ar
    46    16    15    2
    47    12    30    1
    48    17    32    1
    49    14    15    1
    50    30    31    1
