@<TRIPOS>MOLECULE
2d6m_LBT_A_1.pdb
 23 24 0 0 0
SMALL
GASTEIGER

@<TRIPOS>ATOM
      1  C1        26.3120    3.6000    1.1440 C.3   1400  LBT1400     0.2695
      2  C2        26.8730    5.0180    1.0050 C.3   1400  LBT1400     0.2406
      3  C3        27.6730    5.3690    2.2620 C.3   1400  LBT1400     0.2198
      4  C4        26.8460    5.0800    3.5220 C.3   1400  LBT1400     0.2144
      5  C5        26.2960    3.6480    3.4880 C.3   1400  LBT1400     0.1835
      6  C6        25.4620    3.2900    4.7220 C.3   1400  LBT1400     0.2142
      7  O1        25.5180    3.2510    0.0370 O.3   1400  LBT1400    -0.3257
      8  O2        27.7330    5.0810   -0.1020 O.3   1400  LBT1400    -0.2149
      9  O3        28.0720    6.7300    2.2000 O.3   1400  LBT1400    -0.2174
     10  O4        25.8090    6.0350    3.5780 O.3   1400  LBT1400    -0.2176
     11  O5        25.5230    3.4860    2.3150 O.3   1400  LBT1400    -0.3256
     12  O6        25.0300    1.9520    4.6180 O.3   1400  LBT1400    -0.2176
     13  C1'       23.9050   -0.4820   -0.9910 C.3   1400  LBT1400     0.3023
     14  C2'       22.9160    0.5970   -0.5280 C.3   1400  LBT1400     0.2433
     15  C3'       23.5290    1.9840   -0.4230 C.3   1400  LBT1400     0.2168
     16  C4'       24.9870    1.9400    0.0310 C.3   1400  LBT1400     0.1804
     17  C5'       25.8620    1.0480   -0.8570 C.3   1400  LBT1400     0.1804
     18  C6'       27.1010    0.5480   -0.1080 C.3   1400  LBT1400     0.2141
     19  O1'       23.3430   -1.2910   -2.0010 O.3   1400  LBT1400    -0.1869
     20  O2'       21.7200    0.6520   -1.2960 O.3   1400  LBT1400    -0.2148
     21  O3'       22.7670    2.6520    0.5600 O.3   1400  LBT1400    -0.2175
     22  O5'       25.1950   -0.0630   -1.4140 O.3   1400  LBT1400    -0.3237
     23  O6'       28.1570    1.3580   -0.5410 O.3   1400  LBT1400    -0.2176
@<TRIPOS>BOND
     1    19    13    1
     2    22    13    1
     3    22    17    1
     4    20    14    1
     5    13    14    1
     6    17    18    1
     7    17    16    1
     8    23    18    1
     9    14    15    1
    10    15    16    1
    11    15    21    1
    12     8     2    1
    13    16     7    1
    14     7     1    1
    15     2     1    1
    16     2     3    1
    17     1    11    1
    18     9     3    1
    19     3     4    1
    20    11     5    1
    21     5     4    1
    22     5     6    1
    23     4    10    1
    24    12     6    1
