@<TRIPOS>MOLECULE
2d6n_GAL_A_1.pdb
 11 11 0 0 0
SMALL
GASTEIGER

@<TRIPOS>ATOM
      1  C1        -2.0510   25.6580   -1.2290 C.3   500  GAL500      0.1777
      2  C2        -1.4580   24.2580   -1.0620 C.3   500  GAL500      0.2141
      3  C3        -0.6310   23.8540   -2.2640 C.3   500  GAL500      0.2173
      4  C4        -1.3950   24.1400   -3.5690 C.3   500  GAL500      0.2142
      5  C5        -1.9750   25.5600   -3.5690 C.3   500  GAL500      0.1810
      6  C6        -2.7900   25.8980   -4.8180 C.3   500  GAL500      0.2141
      7  O2        -0.6010   24.1680    0.0540 O.3   500  GAL500     -0.2176
      8  O3        -0.3660   22.4740   -2.1400 O.3   500  GAL500     -0.2175
      9  O4        -2.4060   23.1760   -3.6780 O.3   500  GAL500     -0.2176
     10  O5        -2.7980   25.7500   -2.4350 O.3   500  GAL500     -0.3481
     11  O6        -3.4310   27.1340   -4.6000 O.3   500  GAL500     -0.2176
@<TRIPOS>BOND
     1     6    11    1
     2     6     5    1
     3     9     4    1
     4     4     5    1
     5     4     3    1
     6     5    10    1
     7    10     1    1
     8     3     8    1
     9     3     2    1
    10     1     2    1
    11     2     7    1
