@<TRIPOS>MOLECULE
2d6o_GAL_X_1.pdb
 11 11 0 0 0
SMALL
GASTEIGER

@<TRIPOS>ATOM
      1  C1        27.2100    1.6710    2.5560 C.3   159  GAL159      0.1777
      2  C2        25.8680    1.4060    1.8940 C.3   159  GAL159      0.2141
      3  C3        25.4620    2.5670    0.9830 C.3   159  GAL159      0.2173
      4  C4        25.6070    3.9020    1.7130 C.3   159  GAL159      0.2142
      5  C5        26.9850    4.0080    2.3580 C.3   159  GAL159      0.1810
      6  C6        27.1830    5.2500    3.2220 C.3   159  GAL159      0.2141
      7  O2        25.8530    0.1610    1.2040 O.3   159  GAL159     -0.2176
      8  O3        24.1170    2.3960    0.5790 O.3   159  GAL159     -0.2175
      9  O4        24.5830    4.0290    2.6870 O.3   159  GAL159     -0.2176
     10  O5        27.1400    2.8950    3.2280 O.3   159  GAL159     -0.3481
     11  O6        28.4710    5.1850    3.8140 O.3   159  GAL159     -0.2176
@<TRIPOS>BOND
     1     8     3    1
     2     3     4    1
     3     3     2    1
     4     7     2    1
     5     4     5    1
     6     4     9    1
     7     2     1    1
     8     5     6    1
     9     5    10    1
    10     1    10    1
    11     6    11    1
