@<TRIPOS>MOLECULE
2d6p_GAL_A_1.pdb
 11 11 0 0 0
SMALL
GASTEIGER

@<TRIPOS>ATOM
      1  C1        -7.1080   -7.3200   24.6380 C.3   159  GAL159      0.1777
      2  C2        -6.9790   -6.0240   23.8330 C.3   159  GAL159      0.2141
      3  C3        -5.5970   -5.8800   23.1840 C.3   159  GAL159      0.2173
      4  C4        -4.4740   -6.1150   24.1990 C.3   159  GAL159      0.2142
      5  C5        -4.6990   -7.4710   24.8720 C.3   159  GAL159      0.1810
      6  C6        -3.6570   -7.7960   25.9320 C.3   159  GAL159      0.2141
      7  O2        -8.0170   -5.9550   22.8440 O.3   159  GAL159     -0.2176
      8  O3        -5.4730   -4.5840   22.5840 O.3   159  GAL159     -0.2175
      9  O4        -4.4490   -5.0600   25.1720 O.3   159  GAL159     -0.2176
     10  O5        -5.9840   -7.5090   25.4990 O.3   159  GAL159     -0.3481
     11  O6        -4.0570   -9.0040   26.5860 O.3   159  GAL159     -0.2176
@<TRIPOS>BOND
     1     8     3    1
     2     7     2    1
     3     3     2    1
     4     3     4    1
     5     2     1    1
     6     4     5    1
     7     4     9    1
     8     1    10    1
     9     5    10    1
    10     5     6    1
    11     6    11    1
