@<TRIPOS>MOLECULE
2d7c_GTP_A_1.pdb
 32 34 0 0 0
SMALL
GASTEIGER

@<TRIPOS>ATOM
      1  PG        24.9490    6.9750   37.4070 P.3   1001  GTP1001     0.5373
      2  O1G       24.3110    8.1300   36.7010 O.3   1001  GTP1001    -0.1143
      3  O2G       26.4010    7.2760   37.7750 O.3   1001  GTP1001    -0.1143
      4  O3G       24.8170    5.6450   36.6880 O.2   1001  GTP1001    -0.2221
      5  O3B       24.1010    6.9300   38.8020 O.3   1001  GTP1001    -0.2258
      6  PB        24.4700    6.0630   40.0830 P.3   1001  GTP1001     0.2277
      7  O1B       23.9170    4.7000   39.9750 O.2   1001  GTP1001    -0.5168
      8  O2B       25.9940    6.0720   40.3200 O.3   1001  GTP1001    -0.4368
      9  O3A       23.6780    6.7890   41.2830 O.3   1001  GTP1001    -0.2700
     10  PA        24.3160    7.6500   42.4750 P.3   1001  GTP1001     0.2189
     11  O1A       25.1540    6.8480   43.3810 O.3   1001  GTP1001    -0.4371
     12  O2A       25.1160    8.8310   41.8630 O.2   1001  GTP1001    -0.5170
     13  O5'       23.0110    8.1320   43.2530 O.3   1001  GTP1001    -0.3112
     14  C5'       21.9570    8.7550   42.5420 C.3   1001  GTP1001     0.1813
     15  C4'       21.1200    9.5680   43.5410 C.3   1001  GTP1001     0.1799
     16  O4'       20.4950    8.6770   44.4480 O.3   1001  GTP1001    -0.3326
     17  C3'       21.9680   10.5120   44.3880 C.3   1001  GTP1001     0.2158
     18  O3'       21.1630   11.6520   44.6790 O.3   1001  GTP1001    -0.2175
     19  C2'       22.2670    9.6650   45.6100 C.3   1001  GTP1001     0.2310
     20  O2'       22.5860   10.3380   46.8190 O.3   1001  GTP1001    -0.2158
     21  C1'       20.9730    8.8820   45.7560 C.3   1001  GTP1001     0.2293
     22  N9        21.1690    7.6150   46.4600 N.pl3 1001  GTP1001    -0.2354
     23  C8        22.1620    6.6680   46.3240 C.3   1001  GTP1001     0.2246
     24  N7        21.8980    5.6670   47.1910 N.2   1001  GTP1001    -0.2322
     25  C5        20.7410    5.9640   47.8580 C.2   1001  GTP1001     0.2182
     26  C6        19.9960    5.3200   48.8410 C.1   1001  GTP1001     0.2372
     27  O6        20.3270    4.2390   49.3010 O.2   1001  GTP1001    -0.2069
     28  N1        18.8320    5.9050   49.3070 N.2   1001  GTP1001    -0.2485
     29  C2        18.4050    7.1200   48.8260 C.1   1001  GTP1001     0.2531
     30  N2        17.2880    7.6550   49.3040 N.pl3 1001  GTP1001    -0.0226
     31  N3        19.1350    7.7810   47.8540 N.2   1001  GTP1001    -0.3074
     32  C4        20.2840    7.1930   47.3910 C.2   1001  GTP1001     0.2300
@<TRIPOS>BOND
     1     4     1    2
     2     2     1    1
     3     1     3    1
     4     1     5    1
     5     5     6    1
     6     7     6    2
     7     6     8    1
     8     6     9    1
     9     9    10    1
    10    12    10    2
    11    10    13    1
    12    10    11    1
    13    14    13    1
    14    14    15    1
    15    15    17    1
    16    15    16    1
    17    17    18    1
    18    17    19    1
    19    16    21    1
    20    19    21    1
    21    19    20    1
    22    21    22    1
    23    23    22    1
    24    23    24    1
    25    22    32    1
    26    24    25    2
    27    32    31    2
    28    32    25    1
    29    31    29    2
    30    25    26    1
    31    29    30    1
    32    29    28    2
    33    26    27    2
    34    26    28    2
