@<TRIPOS>MOLECULE
2d7d_ADP_A_1.pdb
 27 29 0 0 0
SMALL
GASTEIGER

@<TRIPOS>ATOM
      1  PB        -2.8710   -8.0980    5.6730 P.3   662  ADP662      0.5373
      2  O1B       -1.8520   -8.1880    6.7930 O.3   662  ADP662     -0.1143
      3  O2B       -4.2800   -7.6370    6.0680 O.3   662  ADP662     -0.1143
      4  O3B       -2.7920   -9.3560    4.8520 O.2   662  ADP662     -0.2221
      5  PA        -2.3130   -5.3540    4.9400 P.3   662  ADP662      0.2231
      6  O1A       -3.7470   -4.9570    5.1400 O.2   662  ADP662     -0.5169
      7  O2A       -1.2840   -5.0370    5.9850 O.3   662  ADP662     -0.4370
      8  O3A       -2.3660   -6.9460    4.6440 O.3   662  ADP662     -0.2261
      9  O5'       -1.8960   -4.7330    3.5090 O.3   662  ADP662     -0.3111
     10  C5'       -0.6170   -4.2450    3.1410 C.3   662  ADP662      0.1813
     11  C4'       -0.7650   -2.7770    2.7740 C.3   662  ADP662      0.1821
     12  O4'       -1.1660   -2.6090    1.4060 O.3   662  ADP662     -0.3135
     13  C3'       -1.8330   -2.0850    3.6040 C.3   662  ADP662      0.2184
     14  O3'       -1.3660   -0.7550    3.7690 O.3   662  ADP662     -0.2174
     15  C2'       -3.0620   -2.1290    2.7050 C.3   662  ADP662      0.2570
     16  O2'       -4.0550   -1.1630    3.0560 O.3   662  ADP662     -0.2130
     17  C1'       -2.4560   -1.9490    1.3060 C.3   662  ADP662      0.3186
     18  N9        -3.2280   -2.5510    0.1680 N.pl3 662  ADP662     -0.1439
     19  C8        -4.0700   -3.6120    0.1770 C.3   662  ADP662      0.3377
     20  N7        -4.5660   -3.8770   -1.0650 N.2   662  ADP662     -0.2095
     21  C5        -4.0210   -2.9810   -1.9070 C.2   662  ADP662      0.2526
     22  C6        -4.0990   -2.6820   -3.3590 C.2   662  ADP662      0.4393
     23  N6        -4.8770   -3.4050   -4.1910 N.pl3 662  ADP662      0.2180
     24  N1        -3.3860   -1.6210   -3.8270 N.2   662  ADP662      0.0021
     25  C2        -2.5930   -0.8700   -3.0220 C.3   662  ADP662      0.5254
     26  N3        -2.4730   -1.0750   -1.6850 N.2   662  ADP662     -0.0055
     27  C4        -3.1420   -2.1110   -1.0850 C.2   662  ADP662      0.3518
@<TRIPOS>BOND
     1    23    22    1
     2    24    22    2
     3    24    25    1
     4    22    21    1
     5    25    26    1
     6    21    27    1
     7    21    20    2
     8    26    27    2
     9    27    18    1
    10    20    19    1
    11    18    19    1
    12    18    17    1
    13    17    12    1
    14    17    15    1
    15    12    11    1
    16    15    16    1
    17    15    13    1
    18    11    10    1
    19    11    13    1
    20    10     9    1
    21     9     5    1
    22    13    14    1
    23     8     5    1
    24     8     1    1
    25     4     1    2
    26     5     6    2
    27     5     7    1
    28     1     3    1
    29     1     2    1
