@<TRIPOS>MOLECULE
2d7f_MMA_A_1.pdb
 13 13 0 0 0
SMALL
GASTEIGER

@<TRIPOS>ATOM
      1  C1        31.4730   12.5440   87.7910 C.3   238  MMA238      0.2695
      2  C2        32.3150   13.6160   88.5760 C.3   238  MMA238      0.2406
      3  C3        31.9380   14.6770   87.4920 C.3   238  MMA238      0.2198
      4  C4        32.2650   14.2180   86.0020 C.3   238  MMA238      0.2144
      5  C5        31.9870   12.7400   85.6570 C.3   238  MMA238      0.1835
      6  C6        32.9710   12.1920   84.7060 C.3   238  MMA238      0.2142
      7  C7        29.6830   10.9360   87.6430 C.3   238  MMA238      0.1769
      8  O1        30.6780   11.6110   88.4480 O.3   238  MMA238     -0.3259
      9  O2        33.7730   13.6000   88.8720 O.3   238  MMA238     -0.2149
     10  O3        32.3780   15.8930   87.9570 O.3   238  MMA238     -0.2174
     11  O4        31.3550   14.7400   85.1080 O.3   238  MMA238     -0.2176
     12  O5        32.2760   11.9530   86.7730 O.3   238  MMA238     -0.3256
     13  O6        34.1330   12.4510   85.4130 O.3   238  MMA238     -0.2176
@<TRIPOS>BOND
     1     6    13    1
     2     6     5    1
     3    11     4    1
     4     5     4    1
     5     5    12    1
     6     4     3    1
     7    12     1    1
     8     3    10    1
     9     3     2    1
    10     7     8    1
    11     1     8    1
    12     1     2    1
    13     2     9    1
