@<TRIPOS>MOLECULE
2d7g_D5M_A_1.pdb
 21 23 0 0 0
SMALL
GASTEIGER

@<TRIPOS>ATOM
      1  O5'       56.7040    8.3260   25.0740 O.3   1001  D5M1001    -0.2926
      2  C5'       56.3490    7.1370   25.7720 C.3   1001  D5M1001     0.1830
      3  C4'       56.2760    5.9730   24.8110 C.3   1001  D5M1001     0.1795
      4  O4'       55.9680    4.7760   25.5620 O.3   1001  D5M1001    -0.3155
      5  C3'       55.1810    6.0890   23.7510 C.3   1001  D5M1001     0.1883
      6  O3'       55.5370    5.3360   22.5870 O.3   1001  D5M1001    -0.2202
      7  C2'       54.0020    5.3960   24.4080 C.3   1001  D5M1001     0.1151
      8  C1'       54.6740    4.2950   25.2210 C.3   1001  D5M1001     0.2873
      9  N9        53.9870    3.9500   26.4680 N.pl3 1001  D5M1001    -0.1460
     10  C8        53.2940    4.7850   27.3150 C.3   1001  D5M1001     0.3377
     11  N7        52.7790    4.1760   28.3540 N.2   1001  D5M1001    -0.2095
     12  C5        53.1580    2.8520   28.1850 C.2   1001  D5M1001     0.2526
     13  C6        52.9190    1.6970   28.9500 C.2   1001  D5M1001     0.4393
     14  N6        52.2040    1.6890   30.0790 N.pl3 1001  D5M1001     0.2180
     15  N1        53.4430    0.5340   28.5090 N.2   1001  D5M1001     0.0021
     16  C2        54.1510    0.5420   27.3740 C.3   1001  D5M1001     0.5254
     17  N3        54.4380    1.5570   26.5630 N.2   1001  D5M1001    -0.0055
     18  C4        53.9060    2.6990   27.0310 C.2   1001  D5M1001     0.3518
     19  P         56.7960    9.7200   25.8340 P.3   1001  D5M1001     0.3942
     20  O1P       58.2160   10.1230   25.8190 O.3   1001  D5M1001    -0.1425
     21  O2P       55.7730   10.6270   25.2610 O.3   1001  D5M1001    -0.1425
@<TRIPOS>BOND
     1     6     5    1
     2     5     7    1
     3     5     3    1
     4     7     8    1
     5     3     4    1
     6     3     2    1
     7     1     2    1
     8     1    19    1
     9     8     4    1
    10     8     9    1
    11    21    19    1
    12    20    19    1
    13     9    18    1
    14     9    10    1
    15    17    18    2
    16    17    16    1
    17    18    12    1
    18    10    11    1
    19    16    15    1
    20    12    11    2
    21    12    13    1
    22    15    13    2
    23    13    14    1
