@<TRIPOS>MOLECULE
2d7h_DCM_A_1.pdb
 19 20 0 0 0
SMALL
GASTEIGER

@<TRIPOS>ATOM
      1  N1        55.0160    4.1860   26.3950 N.am  106  DCM106     -0.1802
      2  C2        54.9780    2.8070   26.4430 C.1   106  DCM106      0.2756
      3  N3        54.9150    2.1860   27.6490 N.2   106  DCM106     -0.3024
      4  C4        54.8680    2.9150   28.7720 C.2   106  DCM106      0.2346
      5  C5        54.8600    4.3390   28.7420 C.2   106  DCM106      0.0687
      6  C6        54.9330    4.9280   27.5430 C.2   106  DCM106      0.0835
      7  O2        55.0010    2.1820   25.3630 O.2   106  DCM106     -0.1925
      8  N4        54.8350    2.2680   29.9450 N.pl3 106  DCM106     -0.0921
      9  C1'       55.1860    4.8130   25.0830 C.3   106  DCM106      0.2090
     10  C2'       54.2220    5.9500   24.7620 C.3   106  DCM106      0.0874
     11  C3'       55.0940    6.9070   23.9700 C.3   106  DCM106      0.1857
     12  C4'       56.4550    6.7330   24.6410 C.3   106  DCM106      0.1773
     13  O4'       56.5070    5.3470   25.0400 O.3   106  DCM106     -0.3339
     14  O3'       55.1190    6.4280   22.6230 O.3   106  DCM106     -0.2203
     15  C5'       56.6220    7.5570   25.8930 C.3   106  DCM106      0.1829
     16  O5'       56.5460    8.9370   25.5840 O.3   106  DCM106     -0.2926
     17  P         56.0070    9.9720   26.6620 P.3   106  DCM106      0.3942
     18  O1P       57.1840   10.5700   27.3590 O.3   106  DCM106     -0.1425
     19  O2P       55.0390   10.8480   25.9520 O.3   106  DCM106     -0.1425
@<TRIPOS>BOND
     1    14    11    1
     2    11    12    1
     3    11    10    1
     4    12    13    1
     5    12    15    1
     6    10     9    1
     7    13     9    1
     8     9     1    1
     9     7     2    2
    10    16    15    1
    11    16    17    1
    12    19    17    1
    13     1     2   am
    14     1     6    1
    15     2     3    2
    16    17    18    1
    17     6     5    2
    18     3     4    2
    19     5     4    1
    20     4     8    1
