@<TRIPOS>MOLECULE
2d7i_UDP_A_1.pdb
 25 26 0 0 0
SMALL
GASTEIGER

@<TRIPOS>ATOM
      1  N1        15.6630   45.6030   23.4450 N.am  705  UDP705     -0.1766
      2  C2        16.3670   45.6210   24.6440 C.1   705  UDP705      0.2845
      3  N3        16.9650   46.7810   25.0640 N.2   705  UDP705     -0.2452
      4  C4        16.8760   47.9290   24.3060 C.1   705  UDP705      0.2182
      5  C5        16.1810   47.9230   23.0980 C.2   705  UDP705      0.1242
      6  C6        15.6560   46.7130   22.6310 C.2   705  UDP705      0.0929
      7  O2        16.4610   44.6170   25.3530 O.2   705  UDP705     -0.1918
      8  O4        17.4230   48.9460   24.7160 O.2   705  UDP705     -0.2085
      9  C1'       15.0610   44.3290   23.0190 C.3   705  UDP705      0.2401
     10  C2'       13.6880   44.4210   22.3820 C.3   705  UDP705      0.2319
     11  O2'       12.6680   44.2930   23.3500 O.3   705  UDP705     -0.2157
     12  C3'       13.7220   43.2690   21.3870 C.3   705  UDP705      0.2158
     13  C4'       15.1880   43.1330   21.0110 C.3   705  UDP705      0.1799
     14  O4'       15.9100   43.7850   22.0360 O.3   705  UDP705     -0.3320
     15  O3'       13.3300   42.0520   21.9950 O.3   705  UDP705     -0.2175
     16  C5'       15.5610   43.7310   19.6490 C.3   705  UDP705      0.1813
     17  O5'       15.2690   45.1140   19.5820 O.3   705  UDP705     -0.3111
     18  PA        14.1270   45.6710   18.5860 P.3   705  UDP705      0.2231
     19  O1A       13.0450   44.6750   18.4040 O.2   705  UDP705     -0.5169
     20  O2A       13.6300   46.9670   19.0930 O.3   705  UDP705     -0.4370
     21  O3A       14.9190   45.8200   17.2040 O.3   705  UDP705     -0.2261
     22  PB        14.2430   45.6090   15.7650 P.3   705  UDP705      0.5373
     23  O1B       13.8610   44.1900   15.5260 O.3   705  UDP705     -0.1143
     24  O2B       13.0130   46.4150   15.6150 O.3   705  UDP705     -0.1143
     25  O3B       15.2810   46.0750   14.8110 O.2   705  UDP705     -0.2221
@<TRIPOS>BOND
     1    25    22    2
     2    23    22    1
     3    24    22    1
     4    22    21    1
     5    21    18    1
     6    19    18    2
     7    18    20    1
     8    18    17    1
     9    17    16    1
    10    16    13    1
    11    13    12    1
    12    13    14    1
    13    12    15    1
    14    12    10    1
    15    14     9    1
    16    10     9    1
    17    10    11    1
    18     6     5    2
    19     6     1    1
    20     9     1    1
    21     5     4    1
    22     1     2   am
    23     4     8    2
    24     4     3    2
    25     2     3    2
    26     2     7    2
