@<TRIPOS>MOLECULE
2d7i_NGA_A_1.pdb
 15 15 0 0 0
SMALL
GASTEIGER

@<TRIPOS>ATOM
      1  C1        17.6140   44.0680   13.4020 C.3   702  NGA702      0.2917
      2  C2        17.2570   42.9150   14.3440 C.3   702  NGA702      0.1871
      3  C3        17.2410   43.4190   15.7890 C.3   702  NGA702      0.2095
      4  C4        18.6090   44.0200   16.1190 C.3   702  NGA702      0.2136
      5  C5        18.9430   45.1120   15.0980 C.3   702  NGA702      0.1835
      6  C6        20.3500   45.6430   15.3770 C.3   702  NGA702      0.2142
      7  C7        15.8790   41.1940   13.2740 C.2   702  NGA702      0.2421
      8  C8        14.4590   40.7190   12.9660 C.3   702  NGA702      0.0964
      9  N2        15.9630   42.3240   13.9760 N.am  702  NGA702     -0.1991
     10  O1        17.6540   43.5780   12.0590 O.3   702  NGA702     -0.1879
     11  O3        16.9680   42.3300   16.6730 O.3   702  NGA702     -0.2183
     12  O4        19.6100   43.0010   16.0540 O.3   702  NGA702     -0.2176
     13  O5        18.9070   44.5840   13.7620 O.3   702  NGA702     -0.3242
     14  O6        20.4340   46.1390   16.7160 O.3   702  NGA702     -0.2176
     15  O7        16.8520   40.5400   12.9040 O.2   702  NGA702     -0.2733
@<TRIPOS>BOND
     1    10     1    1
     2    15     7    2
     3     8     7    1
     4     7     9   am
     5     1    13    1
     6     1     2    1
     7    13     5    1
     8     9     2    1
     9     2     3    1
    10     5     6    1
    11     5     4    1
    12     6    14    1
    13     3     4    1
    14     3    11    1
    15    12     4    1
