@<TRIPOS>MOLECULE
2d7r_UDP_A_1.pdb
 25 26 0 0 0
SMALL
GASTEIGER

@<TRIPOS>ATOM
      1  N1        15.7070   45.3220   23.5210 N.am  705  UDP705     -0.1766
      2  C2        16.4100   45.3420   24.7200 C.1   705  UDP705      0.2845
      3  N3        16.9940   46.5060   25.1450 N.2   705  UDP705     -0.2452
      4  C4        16.8900   47.6580   24.3950 C.1   705  UDP705      0.2182
      5  C5        16.1940   47.6520   23.1840 C.2   705  UDP705      0.1242
      6  C6        15.6840   46.4360   22.7130 C.2   705  UDP705      0.0929
      7  O2        16.5170   44.3360   25.4220 O.2   705  UDP705     -0.1918
      8  O4        17.4230   48.6800   24.8110 O.2   705  UDP705     -0.2085
      9  C1'       15.1190   44.0430   23.0870 C.3   705  UDP705      0.2401
     10  C2'       13.7460   44.1190   22.4500 C.3   705  UDP705      0.2319
     11  O2'       12.7280   43.9760   23.4180 O.3   705  UDP705     -0.2157
     12  C3'       13.7940   42.9750   21.4490 C.3   705  UDP705      0.2158
     13  C4'       15.2630   42.8600   21.0740 C.3   705  UDP705      0.1799
     14  O4'       15.9770   43.5150   22.1020 O.3   705  UDP705     -0.3320
     15  O3'       13.4200   41.7490   22.0490 O.3   705  UDP705     -0.2175
     16  C5'       15.6290   43.4700   19.7130 C.3   705  UDP705      0.1813
     17  O5'       15.3210   44.8480   19.6550 O.3   705  UDP705     -0.3111
     18  PA        14.1730   45.3930   18.6590 P.3   705  UDP705      0.2231
     19  O1A       13.1010   44.3870   18.4720 O.2   705  UDP705     -0.5169
     20  O2A       13.6580   46.6810   19.1770 O.3   705  UDP705     -0.4370
     21  O3A       14.9620   45.5590   17.2800 O.3   705  UDP705     -0.2261
     22  PB        14.2860   45.3470   15.8400 P.3   705  UDP705      0.5373
     23  O1B       13.9230   43.9260   15.5910 O.3   705  UDP705     -0.1143
     24  O2B       13.0480   46.1380   15.6950 O.3   705  UDP705     -0.1143
     25  O3B       15.3180   45.8310   14.8890 O.2   705  UDP705     -0.2221
@<TRIPOS>BOND
     1    25    22    2
     2    23    22    1
     3    24    22    1
     4    22    21    1
     5    21    18    1
     6    19    18    2
     7    18    20    1
     8    18    17    1
     9    17    16    1
    10    16    13    1
    11    13    12    1
    12    13    14    1
    13    12    15    1
    14    12    10    1
    15    14     9    1
    16    10     9    1
    17    10    11    1
    18     6     5    2
    19     6     1    1
    20     9     1    1
    21     5     4    1
    22     1     2   am
    23     4     8    2
    24     4     3    2
    25     2     3    2
    26     2     7    2
