@<TRIPOS>MOLECULE
2d7r_TNR_A_1.pdb
 21 21 0 0 0
SMALL
GASTEIGER

@<TRIPOS>ATOM
      1  OXT        9.0040   42.9150   -7.0870 O.co2 707  TNR707     -0.2440
      2  C          8.2090   41.9790   -7.2080 C.2   707  TNR707      0.3844
      3  O          8.5180   41.0270   -7.9340 O.co2 707  TNR707     -0.2440
      4  CA         6.8380   42.0090   -6.4660 C.3   707  TNR707      0.2237
      5  N          6.9450   42.5380   -5.0940 N.3   707  TNR707     -0.1181
      6  CB         5.8020   42.8440   -7.2470 C.3   707  TNR707      0.1753
      7  O1         6.2450   44.1860   -7.4750 O.3   707  TNR707     -0.3270
      8  C1         5.9400   44.8090   -8.7400 C.3   707  TNR707      0.2586
      9  C2         7.2160   45.4710   -9.3400 C.3   707  TNR707      0.1842
     10  N2         8.2440   44.4460   -9.4740 N.am  707  TNR707     -0.1992
     11  C7         9.1360   44.4270  -10.4760 C.2   707  TNR707      0.2420
     12  C8        10.1270   43.2900  -10.4480 C.3   707  TNR707      0.0964
     13  O7         9.1410   45.2810  -11.3530 O.2   707  TNR707     -0.2733
     14  C3         7.6620   46.6410   -8.4390 C.3   707  TNR707      0.2094
     15  O3         8.8230   47.2680   -8.9840 O.3   707  TNR707     -0.2183
     16  C4         6.5220   47.6560   -8.3340 C.3   707  TNR707      0.2136
     17  O4         6.2310   48.1410   -9.6590 O.3   707  TNR707     -0.2176
     18  C5         5.2930   46.9530   -7.7540 C.3   707  TNR707      0.1834
     19  O5         4.8840   45.8050   -8.5600 O.3   707  TNR707     -0.3262
     20  C6         4.1420   47.9290   -7.6310 C.3   707  TNR707      0.2142
     21  O6         4.4060   48.7440   -6.4840 O.3   707  TNR707     -0.2176
@<TRIPOS>BOND
     1    13    11    2
     2    11    12    1
     3    11    10   am
     4    17    16    1
     5    10     9    1
     6     9     8    1
     7     9    14    1
     8    15    14    1
     9     8    19    1
    10     8     7    1
    11    19    18    1
    12    14    16    1
    13    16    18    1
    14     3     2   ar
    15    18    20    1
    16    20    21    1
    17     7     6    1
    18     6     4    1
    19     2     1   ar
    20     2     4    1
    21     4     5    1
