@<TRIPOS>MOLECULE
2d7r_NGA_A_1.pdb
 15 15 0 0 0
SMALL
GASTEIGER

@<TRIPOS>ATOM
      1  C1        17.9090   43.8230   13.4470 C.3   702  NGA702      0.2917
      2  C2        17.4840   42.6820   14.3800 C.3   702  NGA702      0.1871
      3  C3        17.4220   43.2060   15.8150 C.3   702  NGA702      0.2095
      4  C4        18.7760   43.7940   16.2170 C.3   702  NGA702      0.2136
      5  C5        19.1790   44.8560   15.1890 C.3   702  NGA702      0.1835
      6  C6        20.5790   45.3720   15.5180 C.3   702  NGA702      0.2142
      7  C7        15.9960   40.9630   13.4210 C.2   702  NGA702      0.2421
      8  C8        14.5500   40.6270   13.0780 C.3   702  NGA702      0.0964
      9  N2        16.1740   42.1610   13.9710 N.am  702  NGA702     -0.1991
     10  O1        18.0020   43.3450   12.1020 O.3   702  NGA702     -0.1879
     11  O3        17.0800   42.1510   16.7190 O.3   702  NGA702     -0.2183
     12  O4        19.7560   42.7530   16.2610 O.3   702  NGA702     -0.2176
     13  O5        19.1950   44.3110   13.8590 O.3   702  NGA702     -0.3242
     14  O6        20.5830   45.9470   16.8260 O.3   702  NGA702     -0.2176
     15  O7        16.8990   40.1460   13.2000 O.2   702  NGA702     -0.2733
@<TRIPOS>BOND
     1    10     1    1
     2     8     7    1
     3    15     7    2
     4     7     9   am
     5     1    13    1
     6     1     2    1
     7    13     5    1
     8     9     2    1
     9     2     3    1
    10     5     6    1
    11     5     4    1
    12     6    14    1
    13     3     4    1
    14     3    11    1
    15     4    12    1
