@<TRIPOS>MOLECULE
2d7y_PLP_A_1.pdb
 15 15 0 0 0
SMALL
GASTEIGER

@<TRIPOS>ATOM
      1  N1        26.8220    5.2150  -14.7270 N.ar  413  PLP413     -0.2452
      2  C2        26.4320    6.3650  -15.3910 C.ar  413  PLP413      0.0978
      3  C2A       27.3900    6.8450  -16.4840 C.3   413  PLP413      0.0555
      4  C3        25.2290    6.9680  -15.0200 C.ar  413  PLP413      0.2049
      5  O3        24.8910    8.0980  -15.7030 O.3   413  PLP413     -0.2857
      6  C4        24.4000    6.4610  -14.0140 C.ar  413  PLP413      0.0182
      7  C4A       23.0590    7.1660  -13.6490 C.3   413  PLP413      0.0342
      8  C5        24.8110    5.2630  -13.3280 C.ar  413  PLP413      0.0261
      9  C6        26.0170    4.7050  -13.7310 C.ar  413  PLP413      0.0965
     10  C5A       24.0700    4.5470  -12.2190 C.3   413  PLP413      0.1815
     11  O4P       23.6540    5.3450  -11.1430 O.3   413  PLP413     -0.2653
     12  P         22.5220    4.9110  -10.1800 P.3   413  PLP413      0.5329
     13  O1P       22.1420    5.8380   -9.0870 O.3   413  PLP413     -0.1145
     14  O2P       22.1630    3.4500  -10.1680 O.2   413  PLP413     -0.2224
     15  O3P       23.6270    4.5260   -9.2630 O.3   413  PLP413     -0.1145
@<TRIPOS>BOND
     1     3     2    1
     2     5     4    1
     3     2     4   ar
     4     2     1   ar
     5     4     6   ar
     6     1     9   ar
     7     6     7    1
     8     6     8   ar
     9     9     8   ar
    10     8    10    1
    11    10    11    1
    12    11    12    1
    13    12    14    2
    14    12    15    1
    15    12    13    1
