@<TRIPOS>MOLECULE
2d7z_PLP_A_1.pdb
 15 15 0 0 0
SMALL
GASTEIGER

@<TRIPOS>ATOM
      1  N1        26.8990    4.6780  -15.0370 N.ar  413  PLP413     -0.2452
      2  C2        26.3950    5.7170  -15.7910 C.ar  413  PLP413      0.0978
      3  C2A       27.2160    6.0930  -17.0160 C.3   413  PLP413      0.0555
      4  C3        25.2070    6.3180  -15.3810 C.ar  413  PLP413      0.2049
      5  O3        24.7560    7.3490  -16.1740 O.3   413  PLP413     -0.2857
      6  C4        24.4960    5.9150  -14.2370 C.ar  413  PLP413      0.0182
      7  C4A       23.1610    6.6300  -13.8450 C.3   413  PLP413      0.0342
      8  C5        25.0290    4.8260  -13.4530 C.ar  413  PLP413      0.0261
      9  C6        26.2170    4.2700  -13.9120 C.ar  413  PLP413      0.0965
     10  C5A       24.4580    4.1930  -12.1830 C.3   413  PLP413      0.1815
     11  O4P       23.5500    4.9260  -11.3970 O.3   413  PLP413     -0.2653
     12  P         22.9370    4.3200  -10.1100 P.3   413  PLP413      0.5329
     13  O1P       22.0680    5.4210   -9.6320 O.3   413  PLP413     -0.1145
     14  O2P       24.0590    4.0600   -9.1630 O.3   413  PLP413     -0.1145
     15  O3P       22.1830    3.1170  -10.4390 O.2   413  PLP413     -0.2224
@<TRIPOS>BOND
     1     3     2    1
     2     5     4    1
     3     2     4   ar
     4     2     1   ar
     5     4     6   ar
     6     1     9   ar
     7     6     7    1
     8     6     8   ar
     9     9     8   ar
    10     8    10    1
    11    10    11    1
    12    11    12    1
    13    15    12    2
    14    12    13    1
    15    12    14    1
