@<TRIPOS>MOLECULE
2d81_RB3_A_1.pdb
 19 18 0 0 0
SMALL
GASTEIGER

@<TRIPOS>ATOM
      1  O1M       18.7200  -11.6310   25.1480 O.co2 451  RB3451     -0.2455
      2  C1A       19.1530  -10.4860   24.8930 C.2   451  RB3451      0.3685
      3  O1A       20.1850   -9.9690   25.3740 O.co2 451  RB3451     -0.2455
      4  C2A       18.3460   -9.6440   23.9020 C.3   451  RB3451      0.1575
      5  C3A       17.9200   -8.3110   24.5210 C.3   451  RB3451      0.1802
      6  C4A       17.1010   -7.5340   23.4880 C.3   451  RB3451      0.0479
      7  O3A       17.1110   -8.5660   25.6810 O.3   451  RB3451     -0.4516
      8  C1B       17.3450   -7.6770   26.6850 C.2   451  RB3451      0.3206
      9  O1B       17.8150   -6.5660   26.4450 O.2   451  RB3451     -0.2500
     10  C2B       17.0110   -8.0980   28.1180 C.3   451  RB3451      0.1530
     11  C3B       16.9500   -6.9220   29.0980 C.3   451  RB3451      0.1801
     12  C4B       15.8240   -5.9510   28.7360 C.3   451  RB3451      0.0479
     13  O3B       16.7030   -7.4290   30.4190 O.3   451  RB3451     -0.4516
     14  C1C       17.8460   -7.8050   31.0540 C.2   451  RB3451      0.3195
     15  O1C       18.7760   -8.3010   30.4190 O.2   451  RB3451     -0.2500
     16  C2C       17.9520   -7.6160   32.5690 C.3   451  RB3451      0.1423
     17  C3C       18.1710   -8.9550   33.2760 C.3   451  RB3451      0.1632
     18  C4C       18.2450   -8.7570   34.7910 C.3   451  RB3451      0.0361
     19  O3C       17.1090   -9.8520   32.9420 O.3   451  RB3451     -0.2225
@<TRIPOS>BOND
     1     6     5    1
     2     4     5    1
     3     4     2    1
     4     5     7    1
     5     2     1   ar
     6     2     3   ar
     7     7     8    1
     8     9     8    2
     9     8    10    1
    10    10    11    1
    11    12    11    1
    12    11    13    1
    13    13    14    1
    14    15    14    2
    15    14    16    1
    16    16    17    1
    17    19    17    1
    18    17    18    1
