@<TRIPOS>MOLECULE
2d82_TTR_A_1.pdb
 30 32 0 0 0
SMALL
GASTEIGER

@<TRIPOS>ATOM
      1  CM        -2.7710   13.1910   -1.3750 C.3   201  TTR201      0.0122
      2  CA        -1.8870   14.0230   -2.3390 C.3   201  TTR201     -0.0419
      3  CB        -2.1520   15.5460   -2.1760 C.3   201  TTR201     -0.0246
      4  CG        -3.6280   15.8250   -2.1510 C.ar  201  TTR201     -0.0109
      5  CD1       -4.5440   14.9220   -1.7860 C.ar  201  TTR201      0.0958
      6  CD2       -4.3560   17.0410   -2.4830 C.ar  201  TTR201      0.0042
      7  NE1       -5.8050   15.4800   -1.8730 N.ar  201  TTR201     -0.2770
      8  CJ1       -6.9420   14.8480   -1.5850 C.2   201  TTR201      0.2293
      9  OJ1       -7.4070   14.0270   -2.3790 O.2   201  TTR201     -0.2726
     10  CN1       -7.5660   15.0000   -0.1940 C.3   201  TTR201      0.0152
     11  CE2       -5.7390   16.7970   -2.2960 C.ar  201  TTR201      0.0573
     12  CE3       -3.9600   18.3170   -2.9220 C.ar  201  TTR201     -0.0523
     13  CZ2       -6.6940   17.7890   -2.5280 C.ar  201  TTR201     -0.0372
     14  CZ3       -4.9200   19.3130   -3.1670 C.ar  201  TTR201     -0.0611
     15  CH2       -6.2840   19.0460   -2.9770 C.ar  201  TTR201     -0.0598
     16  CL        -4.2420   13.6350   -1.4020 C.2   201  TTR201      0.1801
     17  OL        -5.1390   12.8510   -1.0820 O.2   201  TTR201     -0.2905
     18  HM1       -2.7100   12.1510   -1.6590 H     201  TTR201      0.0346
     19  HM2       -2.3870   13.3000   -0.3710 H     201  TTR201      0.0346
     20  HA1       -2.1050   13.7330   -3.3570 H     201  TTR201      0.0273
     21  HA2       -0.8470   13.8200   -2.1290 H     201  TTR201      0.0273
     22  HB1       -1.7040   16.0740   -3.0040 H     201  TTR201      0.0314
     23  HB2       -1.7090   15.8870   -1.2520 H     201  TTR201      0.0314
     24  HN1       -7.9570   14.0470    0.1300 H     201  TTR201      0.0325
     25  HN2       -8.3660   15.7240   -0.2350 H     201  TTR201      0.0325
     26  HN3       -6.8130   15.3360    0.5040 H     201  TTR201      0.0325
     27  HE3       -2.9130   18.5330   -3.0720 H     201  TTR201      0.0624
     28  HZ2       -7.7440   17.5720   -2.4080 H     201  TTR201      0.0638
     29  HZ3       -4.6070   20.2900   -3.5040 H     201  TTR201      0.0618
     30  HH2       -7.0160   19.8130   -3.1690 H     201  TTR201      0.0618
@<TRIPOS>BOND
     1    29    14    1
     2    20     2    1
     3    30    15    1
     4    14    15   ar
     5    14    12   ar
     6    27    12    1
     7    22     3    1
     8    15    13   ar
     9    12     6   ar
    10    13    28    1
    11    13    11   ar
    12     6    11   ar
    13     6     4   ar
    14     9     8    2
    15     2     3    1
    16     2    21    1
    17     2     1    1
    18    11     7   ar
    19     3     4    1
    20     3    23    1
    21     4     5   ar
    22     7     5   ar
    23     7     8   am
    24     5    16    1
    25    18     1    1
    26     8    10    1
    27    16     1    1
    28    16    17    2
    29     1    19    1
    30    25    10    1
    31    10    24    1
    32    10    26    1
