@<TRIPOS>MOLECULE
2d8a_NAD_A_1.pdb
 44 48 0 0 0
SMALL
GASTEIGER

@<TRIPOS>ATOM
      1  PA        19.5020   34.7900   18.8970 P.3   401  NAD401      0.2189
      2  O1A       20.0880   34.7940   20.2280 O.3   401  NAD401     -0.4371
      3  O2A       18.1820   34.1560   18.8920 O.2   401  NAD401     -0.5170
      4  O5B       19.1610   36.2380   18.2550 O.3   401  NAD401     -0.3112
      5  C5B       20.0080   37.4070   18.3590 C.3   401  NAD401      0.1813
      6  C4B       19.3990   38.5260   19.1990 C.3   401  NAD401      0.1821
      7  O4B       18.6880   39.5100   18.3800 O.3   401  NAD401     -0.3135
      8  C3B       18.3640   38.1700   20.3160 C.3   401  NAD401      0.2184
      9  O3B       18.9270   38.3120   21.6260 O.3   401  NAD401     -0.2174
     10  C2B       17.1820   39.1290   19.9880 C.3   401  NAD401      0.2570
     11  O2B       16.5250   39.6220   21.1890 O.3   401  NAD401     -0.2130
     12  C1B       17.8900   40.2340   19.2530 C.3   401  NAD401      0.3186
     13  N9A       16.9690   41.1260   18.5180 N.pl3 401  NAD401     -0.1439
     14  C8A       15.6920   40.8840   18.0250 C.3   401  NAD401      0.3377
     15  N7A       15.1290   41.9540   17.3940 N.2   401  NAD401     -0.2095
     16  C5A       16.1240   42.9350   17.5010 C.2   401  NAD401      0.2526
     17  C6A       16.1770   44.3130   17.0460 C.2   401  NAD401      0.4393
     18  N6A       15.1780   44.9060   16.3900 N.pl3 401  NAD401      0.2180
     19  N1A       17.3430   45.0190   17.3250 N.2   401  NAD401      0.0021
     20  C2A       18.3820   44.4000   18.0070 C.3   401  NAD401      0.5254
     21  N3A       18.4250   43.1530   18.4630 N.2   401  NAD401     -0.0055
     22  C4A       17.2660   42.4540   18.1850 C.2   401  NAD401      0.3518
     23  O3        20.4710   34.0240   17.9350 O.3   401  NAD401     -0.2703
     24  PN        22.0610   33.9180   17.6150 P.3   401  NAD401      0.2189
     25  O1N       22.4090   32.4950   17.8500 O.2   401  NAD401     -0.5170
     26  O2N       22.8010   34.8510   18.4710 O.3   401  NAD401     -0.4371
     27  O5D       22.0060   34.1880   16.0590 O.3   401  NAD401     -0.3112
     28  C5D       22.0550   35.5370   15.5730 C.3   401  NAD401      0.1813
     29  C4D       21.8470   35.4880   14.0820 C.3   401  NAD401      0.1799
     30  O4D       22.9690   34.8900   13.3510 O.3   401  NAD401     -0.3327
     31  C3D       20.5740   34.7160   13.6740 C.3   401  NAD401      0.2158
     32  O3D       19.7710   35.3460   12.6650 O.3   401  NAD401     -0.2175
     33  C2D       21.1920   33.3690   13.2570 C.3   401  NAD401      0.2309
     34  O2D       20.2520   32.6030   12.4740 O.3   401  NAD401     -0.2158
     35  C1D       22.4100   33.8900   12.5290 C.3   401  NAD401      0.2263
     36  N1N       23.4480   32.8940   12.1570 N.pl3 401  NAD401     -0.2787
     37  C2N       23.9290   33.1100   10.8790 C.3   401  NAD401      0.1244
     38  C3N       24.9050   32.2470   10.4080 C.2   401  NAD401      0.0544
     39  C7N       25.4950   32.4270    9.0070 C.2   401  NAD401      0.2818
     40  O7N       26.3500   31.6450    8.6080 O.2   401  NAD401     -0.2670
     41  N7N       25.0630   33.4460    8.2420 N.am  401  NAD401     -0.0839
     42  C4N       25.4180   31.1510   11.2300 C.2   401  NAD401      0.0033
     43  C5N       24.8330   31.0410   12.5370 C.2   401  NAD401      0.0157
     44  C6N       23.8540   31.8650   13.0640 C.2   401  NAD401      0.0633
@<TRIPOS>BOND
     1    41    39   am
     2    40    39    2
     3    39    38    1
     4    38    37    1
     5    38    42    2
     6    37    36    1
     7    42    43    1
     8    36    35    1
     9    36    44    1
    10    34    33    1
    11    35    33    1
    12    35    30    1
    13    43    44    2
    14    32    31    1
    15    33    31    1
    16    30    29    1
    17    31    29    1
    18    29    28    1
    19    28    27    1
    20    27    24    1
    21    18    17    1
    22    17    19    2
    23    17    16    1
    24    19    20    1
    25    15    16    2
    26    15    14    1
    27    16    22    1
    28    24    25    2
    29    24    23    1
    30    24    26    1
    31    23     1    1
    32    20    21    1
    33    14    13    1
    34    22    21    2
    35    22    13    1
    36     4     5    1
    37     4     1    1
    38     5     6    1
    39     7     6    1
    40     7    12    1
    41    13    12    1
    42     3     1    2
    43     1     2    1
    44     6     8    1
    45    12    10    1
    46    10     8    1
    47    10    11    1
    48     8     9    1
