@<TRIPOS>MOLECULE
2d8l_UCD_A_1.pdb
 26 27 0 0 0
SMALL
GASTEIGER

@<TRIPOS>ATOM
      1  CAA       21.5270   28.5670   -9.2160 C.3   1001  UCD1001     0.0964
      2  CAP       21.9930   28.1210   -7.8180 C.2   1001  UCD1001     0.2420
      3  OAB       21.7240   26.9980   -7.3980 O.2   1001  UCD1001    -0.2733
      4  N2        22.5090   29.1180   -7.0850 N.am  1001  UCD1001    -0.1993
      5  C2        22.9500   28.9310   -5.7000 C.3   1001  UCD1001     0.1839
      6  C1        24.4120   29.3110   -5.4710 C.3   1001  UCD1001     0.2916
      7  O1        25.2720   28.7240   -6.4390 O.3   1001  UCD1001    -0.1879
      8  O5        24.7950   28.8620   -4.1270 O.3   1001  UCD1001    -0.3242
      9  C5        23.9730   29.4030   -3.0870 C.3   1001  UCD1001     0.1834
     10  C6        24.4890   29.3010   -1.6600 C.3   1001  UCD1001     0.2142
     11  O6        23.9400   30.3710   -0.8910 O.3   1001  UCD1001    -0.2176
     12  C4        22.4950   29.2440   -3.2560 C.3   1001  UCD1001     0.2104
     13  O4        21.9120   27.9450   -2.9910 O.3   1001  UCD1001    -0.2178
     14  C3        22.0380   29.6380   -4.6880 C.3   1001  UCD1001     0.1755
     15  O3        20.6910   29.1020   -4.8220 O.3   1001  UCD1001    -0.3264
     16  CAX       19.8220   30.1720   -5.2690 C.3   1001  UCD1001     0.2698
     17  OAM       19.6600   31.0520   -4.1210 O.3   1001  UCD1001    -0.3193
     18  CAR       18.6180   30.8890   -3.2290 C.3   1001  UCD1001     0.2227
     19  CAQ       18.6650   31.7710   -1.9560 C.2   1001  UCD1001     0.3915
     20  OAE       19.4630   32.7370   -2.0460 O.co2 1001  UCD1001    -0.2430
     21  OAC       18.1980   31.3130   -0.8990 O.co2 1001  UCD1001    -0.2430
     22  CAJ       17.9400   29.6560   -3.1300 C.3   1001  UCD1001     0.0771
     23  CAS       17.9890   28.7140   -4.3660 C.3   1001  UCD1001     0.1902
     24  OAF       18.9290   27.6840   -4.0290 O.3   1001  UCD1001    -0.2201
     25  CAU       18.4980   29.4610   -5.6060 C.3   1001  UCD1001     0.2380
     26  OAH       17.5600   30.3420   -6.2070 O.3   1001  UCD1001    -0.2150
@<TRIPOS>BOND
     1     1     2    1
     2     2     3    2
     3     2     4   am
     4     4     5    1
     5     7     6    1
     6    26    25    1
     7     5     6    1
     8     5    14    1
     9    25    16    1
    10    25    23    1
    11     6     8    1
    12    16    15    1
    13    16    17    1
    14    15    14    1
    15    14    12    1
    16    23    24    1
    17    23    22    1
    18     8     9    1
    19    17    18    1
    20    12     9    1
    21    12    13    1
    22    18    22    1
    23    18    19    1
    24     9    10    1
    25    20    19   ar
    26    19    21   ar
    27    10    11    1
