@<TRIPOS>MOLECULE
2daa_DCS_A_1.pdb
 22 23 0 0 0
SMALL
GASTEIGER

@<TRIPOS>ATOM
      1  N1        22.5110   34.8990   15.6140 N.ar  285  DCS285     -0.2452
      2  C2        23.5830   34.1380   15.3220 C.ar  285  DCS285      0.0978
      3  C2A       24.1860   33.3680   16.4690 C.3   285  DCS285      0.0555
      4  C3        24.1350   34.0690   14.0390 C.ar  285  DCS285      0.2067
      5  O3        25.3010   33.3510   13.8710 O.3   285  DCS285     -0.2856
      6  C4        23.5090   34.7570   12.9660 C.ar  285  DCS285      0.0421
      7  C4A       24.0530   34.7580   11.5410 C.3   285  DCS285      0.1555
      8  C5        22.3530   35.4890   13.2680 C.ar  285  DCS285      0.0280
      9  C6        21.9180   35.5620   14.6000 C.ar  285  DCS285      0.0965
     10  C5A       21.5960   36.2100   12.1950 C.3   285  DCS285      0.1816
     11  O4P       22.3430   37.3700   11.8580 O.3   285  DCS285     -0.2653
     12  P         22.0880   38.0160   10.4680 P.3   285  DCS285      0.5329
     13  O1P       22.7630   39.3320   10.4500 O.3   285  DCS285     -0.1145
     14  O2P       22.6610   37.1190    9.4270 O.2   285  DCS285     -0.2224
     15  O3P       20.6160   38.1890   10.2720 O.3   285  DCS285     -0.1145
     16  N         25.2380   33.9770   11.3590 N.2   285  DCS285     -0.2549
     17  CA        25.7200   33.5650   10.1830 C.2   285  DCS285      0.1865
     18  C         26.9320   32.7320    9.9780 C.1   285  DCS285      0.2059
     19  O         27.6570   32.3600   10.8860 O.2   285  DCS285     -0.2178
     20  ND        27.0270   32.4520    8.6850 N.2   285  DCS285     -0.0035
     21  OG        25.8810   32.8740    7.9700 O.2   285  DCS285     -0.3615
     22  CB        25.1720   33.7990    8.7820 C.3   285  DCS285      0.2962
@<TRIPOS>BOND
     1    21    20    1
     2    21    22    1
     3    20    18    2
     4    22    17    1
     5    14    12    2
     6    18    17    1
     7    18    19    2
     8    17    16    2
     9    15    12    1
    10    13    12    1
    11    12    11    1
    12    16     7    1
    13     7     6    1
    14    11    10    1
    15    10     8    1
    16     6     8   ar
    17     6     4   ar
    18     8     9   ar
    19     5     4    1
    20     4     2   ar
    21     9     1   ar
    22     2     1   ar
    23     2     3    1
