@<TRIPOS>MOLECULE
2dab_PLP_A_1.pdb
 15 15 0 0 0
SMALL
GASTEIGER

@<TRIPOS>ATOM
      1  N1        42.9350   18.4540   11.2890 N.ar  285  PLP285     -0.2452
      2  C2        42.6630   18.1350   12.5950 C.ar  285  PLP285      0.0978
      3  C2A       41.4080   17.3590   12.9350 C.3   285  PLP285      0.0555
      4  C3        43.5590   18.4560   13.6060 C.ar  285  PLP285      0.2049
      5  O3        43.2430   18.1210   14.9160 O.3   285  PLP285     -0.2857
      6  C4        44.7580   19.1060   13.3030 C.ar  285  PLP285      0.0182
      7  C4A       45.6540   19.4680   14.3320 C.3   285  PLP285      0.0342
      8  C5        45.0400   19.4010   11.9590 C.ar  285  PLP285      0.0261
      9  C6        44.1200   19.0880   10.9750 C.ar  285  PLP285      0.0965
     10  C5A       46.4170   19.9510   11.5430 C.3   285  PLP285      0.1815
     11  O4P       46.4420   21.3430   11.4150 O.3   285  PLP285     -0.2653
     12  P         47.7890   22.0620   11.4650 P.3   285  PLP285      0.5329
     13  O1P       48.7070   21.4180   12.4270 O.3   285  PLP285     -0.1145
     14  O2P       47.2190   23.4030   11.9620 O.3   285  PLP285     -0.1145
     15  O3P       48.2400   22.2950   10.0820 O.2   285  PLP285     -0.2224
@<TRIPOS>BOND
     1    15    12    2
     2     9     1   ar
     3     9     8   ar
     4     1     2   ar
     5    11    12    1
     6    11    10    1
     7    12    14    1
     8    12    13    1
     9    10     8    1
    10     8     6   ar
    11     2     3    1
    12     2     4   ar
    13     6     4   ar
    14     6     7    1
    15     4     5    1
