@<TRIPOS>MOLECULE
2dap_API_A_1.pdb
 13 12 0 0 0
SMALL
GASTEIGER

@<TRIPOS>ATOM
      1  C1       -18.7750   53.3450   11.6100 C.2   902  API902      0.3860
      2  C2       -18.5500   51.8420   11.9720 C.3   902  API902      0.2160
      3  C3       -17.3780   51.8070   12.9550 C.2   902  API902     -0.0007
      4  C4       -16.9110   50.7960   13.8000 C.2   902  API902     -0.0266
      5  C5       -15.8930   50.9890   14.7630 C.3   902  API902      0.0563
      6  C6       -14.4340   50.9210   14.6100 C.3   902  API902      0.1986
      7  C7       -13.9790   52.0980   13.8390 C.2   902  API902      0.3822
      8  O1       -18.6500   54.2950   12.2710 O.co2 902  API902     -0.2437
      9  O2       -19.0980   53.4670   10.4590 O.co2 902  API902     -0.2437
     10  O3       -13.5560   52.0790   12.7770 O.co2 902  API902     -0.2440
     11  O4       -14.0960   53.1630   14.3850 O.co2 902  API902     -0.2440
     12  N2       -18.2480   51.1160   10.7080 N.3   902  API902     -0.1159
     13  N6       -14.1920   49.7530   13.7870 N.3   902  API902     -0.1205
@<TRIPOS>BOND
     1     9     1   ar
     2    12     2    1
     3     1     2    1
     4     1     8   ar
     5     2     3    1
     6    10     7   ar
     7     3     4    2
     8    13     6    1
     9     4     5    1
    10     7    11   ar
    11     7     6    1
    12     6     5    1
