@<TRIPOS>MOLECULE
2db3_ANP_A_1.pdb
 31 33 0 0 0
SMALL
GASTEIGER

@<TRIPOS>ATOM
      1  PG        40.9060   73.1420   44.9960 P.3   2901  ANP2901     0.4884
      2  O1G       41.2540   71.7320   44.5460 O.3   2901  ANP2901    -0.1240
      3  O2G       40.9310   73.2680   46.4830 O.3   2901  ANP2901    -0.1240
      4  O3G       39.7440   73.7860   44.3140 O.2   2901  ANP2901    -0.2331
      5  PB        42.5820   74.6920   43.0090 P.3   2901  ANP2901     0.4669
      6  O1B       41.3380   74.9650   42.2490 O.2   2901  ANP2901    -0.2351
      7  O2B       43.5310   73.8500   42.2560 O.3   2901  ANP2901    -0.1253
      8  N3B       42.0840   74.1790   44.4420 N.3   2901  ANP2901    -0.0163
      9  PA        42.7300   77.6620   42.8550 P.3   2901  ANP2901     0.2220
     10  O1A       42.2720   77.8320   41.4410 O.2   2901  ANP2901    -0.5170
     11  O2A       41.6720   77.9540   43.8730 O.3   2901  ANP2901    -0.4370
     12  O3A       43.2300   76.1800   43.0170 O.3   2901  ANP2901    -0.2360
     13  O5'       44.1250   78.4040   42.8960 O.3   2901  ANP2901    -0.3111
     14  C5'       44.7620   78.3590   44.1960 C.3   2901  ANP2901     0.1813
     15  C4'       45.1330   79.8080   44.5760 C.3   2901  ANP2901     0.1821
     16  O4'       46.3680   80.1280   43.9720 O.3   2901  ANP2901    -0.3135
     17  C3'       44.3280   80.9190   44.0620 C.3   2901  ANP2901     0.2184
     18  O3'       44.5070   81.9770   44.9800 O.3   2901  ANP2901    -0.2174
     19  C2'       45.0260   81.4570   42.8040 C.3   2901  ANP2901     0.2570
     20  O2'       45.0280   82.8410   42.6690 O.3   2901  ANP2901    -0.2130
     21  C1'       46.4330   81.1180   42.9520 C.3   2901  ANP2901     0.3186
     22  N9        47.1880   80.7800   41.6530 N.pl3 2901  ANP2901    -0.1439
     23  C8        46.7100   80.1350   40.5670 C.3   2901  ANP2901     0.3377
     24  N7        47.6440   80.0200   39.6110 N.2   2901  ANP2901    -0.2095
     25  C5        48.7230   80.6000   40.1110 C.2   2901  ANP2901     0.2526
     26  C6        49.9930   80.7290   39.4800 C.2   2901  ANP2901     0.4393
     27  N6        50.1570   80.2280   38.2340 N.pl3 2901  ANP2901     0.2180
     28  N1        51.0080   81.3670   40.1600 N.2   2901  ANP2901     0.0021
     29  C2        50.7070   81.8320   41.4040 C.3   2901  ANP2901     0.5254
     30  N3        49.4950   81.7110   42.0120 N.2   2901  ANP2901    -0.0055
     31  C4        48.4690   81.0850   41.3930 C.2   2901  ANP2901     0.3518
@<TRIPOS>BOND
     1    27    26    1
     2    26    25    1
     3    26    28    2
     4    24    25    2
     5    24    23    1
     6    25    31    1
     7    28    29    1
     8    23    22    1
     9    31    22    1
    10    31    30    2
    11    29    30    1
    12    10     9    2
    13    22    21    1
    14     6     5    2
    15     7     5    1
    16    20    19    1
    17    19    21    1
    18    19    17    1
    19     9    13    1
    20     9    12    1
    21     9    11    1
    22    13    14    1
    23    21    16    1
    24     5    12    1
    25     5     8    1
    26    16    15    1
    27    17    15    1
    28    17    18    1
    29    14    15    1
    30     4     1    2
    31     8     1    1
    32     2     1    1
    33     1     3    1
