@<TRIPOS>MOLECULE
2dbl_S5H_L_1.pdb
 30 33 0 0 0
SMALL
GASTEIGER

@<TRIPOS>ATOM
      1  C1       -19.6090   43.2120  -15.0920 C.3   212  S5H212      0.0037
      2  C2       -18.2840   42.9280  -15.8780 C.3   212  S5H212      0.0436
      3  C3       -17.0210   43.6270  -15.3230 C.3   212  S5H212      0.1688
      4  O3       -15.8150   43.1030  -15.9000 O.3   212  S5H212     -0.4523
      5  C4       -17.0020   43.4450  -13.7690 C.3   212  S5H212      0.0436
      6  C5       -18.1920   44.1920  -13.1820 C.3   212  S5H212      0.0036
      7  C6       -18.0910   44.3490  -11.6990 C.3   212  S5H212      0.0001
      8  C7       -19.2540   45.1550  -11.1500 C.3   212  S5H212      0.0000
      9  C8       -20.6460   44.6780  -11.6080 C.3   212  S5H212      0.0000
     10  C9       -20.6780   44.4100  -13.1300 C.3   212  S5H212      0.0000
     11  C10      -19.5160   43.4610  -13.5270 C.3   212  S5H212      0.0002
     12  C11      -22.0670   43.9550  -13.5650 C.3   212  S5H212      0.0000
     13  C12      -23.2140   44.8570  -13.0210 C.3   212  S5H212      0.0004
     14  C13      -23.0010   45.2830  -11.5450 C.3   212  S5H212      0.0065
     15  C14      -21.6360   45.7790  -11.3530 C.3   212  S5H212      0.0004
     16  C15      -21.6730   46.4880  -10.0120 C.3   212  S5H212      0.0004
     17  C16      -23.1430   46.9640   -9.8590 C.3   212  S5H212      0.0073
     18  C17      -23.9250   46.3880  -11.0620 C.3   212  S5H212      0.0576
     19  C18      -23.1810   44.0340  -10.6790 C.3   212  S5H212      0.0004
     20  C19      -19.6290   42.1340  -12.7500 C.3   212  S5H212      0.0000
     21  C20      -25.3060   45.9000  -10.7100 C.2   212  S5H212      0.1507
     22  O20      -25.5100   45.1730   -9.7510 O.2   212  S5H212     -0.2961
     23  C21      -26.4650   46.2830  -11.5540 C.3   212  S5H212      0.0722
     24  CH1      -15.7850   42.3040  -16.8680 C.2   212  S5H212      0.3174
     25  OH1      -16.1250   42.6330  -18.0320 O.2   212  S5H212     -0.2501
     26  CH2      -15.2480   40.8890  -16.6710 C.3   212  S5H212      0.1213
     27  CH3      -13.7450   40.8590  -16.6750 C.3   212  S5H212      0.1257
     28  CH4      -13.1960   41.4700  -15.4050 C.2   212  S5H212      0.3654
     29  OH4      -13.9720   41.4280  -14.3970 O.co2 212  S5H212     -0.2456
     30  OH5      -12.0220   41.9830  -15.4060 O.co2 212  S5H212     -0.2456
@<TRIPOS>BOND
     1    25    24    2
     2    24    26    1
     3    24     4    1
     4    27    26    1
     5    27    28    1
     6     4     3    1
     7     2     3    1
     8     2     1    1
     9    30    28   ar
    10    28    29   ar
    11     3     5    1
    12     1    11    1
    13     5     6    1
    14    12    10    1
    15    12    13    1
    16    11     6    1
    17    11    10    1
    18    11    20    1
    19     6     7    1
    20    10     9    1
    21    13    14    1
    22     7     8    1
    23     9    15    1
    24     9     8    1
    25    23    21    1
    26    14    15    1
    27    14    18    1
    28    14    19    1
    29    15    16    1
    30    18    21    1
    31    18    17    1
    32    21    22    2
    33    16    17    1
