@<TRIPOS>MOLECULE
2dbq_NAP_A_1.pdb
 48 52 0 0 0
SMALL
GASTEIGER

@<TRIPOS>ATOM
      1  PA        40.7340   69.8010   90.1490 P.3   401  NAP401      0.2189
      2  O1A       41.6700   69.7730   89.0040 O.2   401  NAP401     -0.5170
      3  O2A       39.3510   70.3270   90.0990 O.3   401  NAP401     -0.4371
      4  O5B       40.4140   68.2220   90.1890 O.3   401  NAP401     -0.3112
      5  C5B       39.2530   67.6930   90.8390 C.3   401  NAP401      0.1813
      6  C4B       38.7590   66.4260   90.1330 C.3   401  NAP401      0.1820
      7  O4B       37.6480   65.8890   90.8750 O.3   401  NAP401     -0.3136
      8  C3B       38.2290   66.7550   88.7340 C.3   401  NAP401      0.2157
      9  O3B       38.5190   65.6800   87.8370 O.3   401  NAP401     -0.2175
     10  C2B       36.7230   66.8490   88.9790 C.3   401  NAP401      0.2314
     11  O2B       36.0040   66.5810   87.7710 O.3   401  NAP401     -0.2630
     12  C1B       36.5890   65.6610   89.9310 C.3   401  NAP401      0.3158
     13  N9A       35.2730   65.6160   90.6100 N.pl3 401  NAP401     -0.1439
     14  C8A       34.6320   66.6380   91.1740 C.3   401  NAP401      0.3377
     15  N7A       33.4690   66.2220   91.6690 N.2   401  NAP401     -0.2095
     16  C5A       33.3650   64.9200   91.4190 C.2   401  NAP401      0.2526
     17  C6A       32.4070   63.9490   91.6840 C.2   401  NAP401      0.4393
     18  N6A       31.2700   64.2660   92.2970 N.pl3 401  NAP401      0.2180
     19  N1A       32.6340   62.6860   91.2920 N.2   401  NAP401      0.0021
     20  C2A       33.7440   62.3480   90.6590 C.3   401  NAP401      0.5254
     21  N3A       34.6740   63.2500   90.3860 N.2   401  NAP401     -0.0055
     22  C4A       34.5170   64.5310   90.7480 C.2   401  NAP401      0.3518
     23  O3        41.3540   69.8720   91.6370 O.3   401  NAP401     -0.2703
     24  PN        42.8800   69.5000   92.0060 P.3   401  NAP401      0.2189
     25  O1N       43.0310   68.2690   91.1990 O.2   401  NAP401     -0.5170
     26  O2N       43.5280   70.7960   91.7060 O.3   401  NAP401     -0.4371
     27  O5D       42.5190   69.3250   93.5660 O.3   401  NAP401     -0.3112
     28  C5D       41.4380   68.4870   93.9850 C.3   401  NAP401      0.1813
     29  C4D       41.2530   68.5950   95.4990 C.3   401  NAP401      0.1799
     30  O4D       42.4040   68.0790   96.1860 O.3   401  NAP401     -0.3327
     31  C3D       41.2050   70.0540   95.9460 C.3   401  NAP401      0.2158
     32  O3D       39.8990   70.5980   95.7360 O.3   401  NAP401     -0.2175
     33  C2D       41.4590   69.8770   97.4420 C.3   401  NAP401      0.2309
     34  O2D       40.2600   69.5230   98.1350 O.3   401  NAP401     -0.2158
     35  C1D       42.4560   68.7150   97.4760 C.3   401  NAP401      0.2263
     36  N1N       43.8580   69.1460   97.6880 N.pl3 401  NAP401     -0.2787
     37  C2N       44.5230   68.7410   98.8530 C.3   401  NAP401      0.1244
     38  C3N       45.8520   69.1020   99.0540 C.2   401  NAP401      0.0544
     39  C7N       46.5760   68.6750  100.3330 C.2   401  NAP401      0.2818
     40  O7N       47.4520   69.3800  100.8300 O.2   401  NAP401     -0.2670
     41  N7N       46.1570   67.5280  100.8620 N.am  401  NAP401     -0.0839
     42  C4N       46.5110   69.8660   98.0950 C.2   401  NAP401      0.0033
     43  C5N       45.8580   70.2720   96.9340 C.2   401  NAP401      0.0157
     44  C6N       44.5300   69.9130   96.7260 C.2   401  NAP401      0.0633
     45  P2B       35.7880   67.7350   86.6620 P.3   401  NAP401      0.5328
     46  O1X       36.5790   67.6030   85.2690 O.2   401  NAP401     -0.2224
     47  O2X       35.6860   69.1880   87.3510 O.3   401  NAP401     -0.1145
     48  O3X       34.3890   67.5130   86.2350 O.3   401  NAP401     -0.1145
@<TRIPOS>BOND
     1    46    45    2
     2    48    45    1
     3    45    47    1
     4    45    11    1
     5    11    10    1
     6     9     8    1
     7     8    10    1
     8     8     6    1
     9    10    12    1
    10     2     1    2
    11    12    13    1
    12    12     7    1
    13     3     1    1
    14     6     5    1
    15     6     7    1
    16     1     4    1
    17     1    23    1
    18     4     5    1
    19    21    20    1
    20    21    22    2
    21    13    22    1
    22    13    14    1
    23    20    19    1
    24    22    16    1
    25    14    15    1
    26    25    24    2
    27    19    17    2
    28    16    15    2
    29    16    17    1
    30    23    24    1
    31    17    18    1
    32    26    24    1
    33    24    27    1
    34    27    28    1
    35    28    29    1
    36    29    31    1
    37    29    30    1
    38    32    31    1
    39    31    33    1
    40    30    35    1
    41    44    43    2
    42    44    36    1
    43    43    42    1
    44    33    35    1
    45    33    34    1
    46    35    36    1
    47    36    37    1
    48    42    38    2
    49    37    38    1
    50    38    39    1
    51    39    40    2
    52    39    41   am
