@<TRIPOS>MOLECULE
2dbr_NAP_A_1.pdb
 48 52 0 0 0
SMALL
GASTEIGER

@<TRIPOS>ATOM
      1  PA        -4.2260    5.8190   -5.1830 P.3   401  NAP401      0.2189
      2  O1A       -5.1450    5.0030   -6.0080 O.2   401  NAP401     -0.5170
      3  O2A       -4.6450    7.1870   -4.8080 O.3   401  NAP401     -0.4371
      4  O5B       -2.7980    5.9080   -5.9210 O.3   401  NAP401     -0.3112
      5  C5B       -2.4350    5.0340   -6.9940 C.3   401  NAP401      0.1813
      6  C4B       -1.7600    5.8000   -8.1370 C.3   401  NAP401      0.1820
      7  O4B       -1.0440    4.8750   -8.9780 O.3   401  NAP401     -0.3136
      8  C3B       -2.7790    6.5030   -9.0410 C.3   401  NAP401      0.2157
      9  O3B       -2.2140    7.7090   -9.5620 O.3   401  NAP401     -0.2175
     10  C2B       -2.9330    5.4790  -10.1650 C.3   401  NAP401      0.2314
     11  O2B       -3.3970    6.1090  -11.3620 O.3   401  NAP401     -0.2630
     12  C1B       -1.4530    5.1360  -10.3300 C.3   401  NAP401      0.3158
     13  N9A       -1.2350    3.9470  -11.1860 N.pl3 401  NAP401     -0.1439
     14  C8A       -1.8720    2.7800  -11.0940 C.3   401  NAP401      0.3377
     15  N7A       -1.3810    1.9280  -11.9920 N.2   401  NAP401     -0.2095
     16  C5A       -0.4270    2.5590  -12.6670 C.2   401  NAP401      0.2526
     17  C6A        0.4310    2.2030  -13.7030 C.2   401  NAP401      0.4393
     18  N6A        0.3750    0.9840  -14.2300 N.pl3 401  NAP401      0.2180
     19  N1A        1.3080    3.1080  -14.1670 N.2   401  NAP401      0.0021
     20  C2A        1.3680    4.3260  -13.6610 C.3   401  NAP401      0.5254
     21  N3A        0.5680    4.6970  -12.6740 N.2   401  NAP401     -0.0055
     22  C4A       -0.3320    3.8460  -12.1570 C.2   401  NAP401      0.3518
     23  O3        -3.9590    4.9870   -3.8330 O.3   401  NAP401     -0.2703
     24  PN        -2.7320    5.2910   -2.8370 P.3   401  NAP401      0.2189
     25  O1N       -3.1760    5.0900   -1.4410 O.3   401  NAP401     -0.4371
     26  O2N       -2.0690    6.5660   -3.1860 O.2   401  NAP401     -0.5170
     27  O5D       -1.7610    4.0620   -3.2030 O.3   401  NAP401     -0.3112
     28  C5D       -0.5830    3.7950   -2.4420 C.3   401  NAP401      0.1813
     29  C4D       -0.1840    2.3250   -2.5680 C.3   401  NAP401      0.1799
     30  O4D        1.0600    2.0760   -1.8880 O.3   401  NAP401     -0.3327
     31  C3D       -1.2310    1.4190   -1.9190 C.3   401  NAP401      0.2158
     32  O3D       -2.1800    0.9750   -2.8930 O.3   401  NAP401     -0.2175
     33  C2D       -0.3660    0.2370   -1.4860 C.3   401  NAP401      0.2309
     34  O2D       -0.0610   -0.6260   -2.5860 O.3   401  NAP401     -0.2158
     35  C1D        0.9000    0.9490   -1.0080 C.3   401  NAP401      0.2263
     36  N1N        0.8390    1.4420    0.3900 N.pl3 401  NAP401     -0.2787
     37  C2N        1.8540    1.0510    1.2760 C.3   401  NAP401      0.1244
     38  C3N        1.8210    1.4730    2.6030 C.2   401  NAP401      0.0544
     39  C7N        2.8910    0.9870    3.5830 C.2   401  NAP401      0.2818
     40  O7N        2.6110    0.7300    4.7540 O.2   401  NAP401     -0.2670
     41  N7N        4.1000    0.8160    3.0550 N.am  401  NAP401     -0.0839
     42  C4N        0.7780    2.2850    3.0390 C.2   401  NAP401      0.0033
     43  C5N       -0.2320    2.6820    2.1650 C.2   401  NAP401      0.0157
     44  C6N       -0.2050    2.2650    0.8380 C.2   401  NAP401      0.0633
     45  P2B       -4.9720    6.3410  -11.6150 P.3   401  NAP401      0.5328
     46  O1X       -5.2280    6.1040  -13.1870 O.2   401  NAP401     -0.2224
     47  O2X       -5.7340    5.1510  -10.8390 O.3   401  NAP401     -0.1145
     48  O3X       -5.4150    7.6810  -11.1710 O.3   401  NAP401     -0.1145
@<TRIPOS>BOND
     1    18    17    1
     2    19    17    2
     3    19    20    1
     4    17    16    1
     5    20    21    1
     6    46    45    2
     7    21    22    2
     8    16    22    1
     9    16    15    2
    10    22    13    1
    11    15    14    1
    12    45    11    1
    13    45    48    1
    14    45    47    1
    15    11    10    1
    16    13    14    1
    17    13    12    1
    18    12    10    1
    19    12     7    1
    20    10     8    1
    21     9     8    1
    22     8     6    1
    23     7     6    1
    24     6     5    1
    25     5     4    1
    26     2     1    2
    27     4     1    1
    28     1     3    1
    29     1    23    1
    30    23    24    1
    31    27    24    1
    32    27    28    1
    33    26    24    2
    34    32    31    1
    35    24    25    1
    36    34    33    1
    37    29    28    1
    38    29    31    1
    39    29    30    1
    40    31    33    1
    41    30    35    1
    42    33    35    1
    43    35    36    1
    44    36    44    1
    45    36    37    1
    46    44    43    2
    47    37    38    1
    48    43    42    1
    49    38    42    2
    50    38    39    1
    51    41    39   am
    52    39    40    2
