@<TRIPOS>MOLECULE
2dbv_NDP_O_1.pdb
 48 52 0 0 0
SMALL
GASTEIGER

@<TRIPOS>ATOM
      1  PA       -21.7670    8.2280   40.2180 P.3   336  NDP336      0.2189
      2  O1A      -22.0230    7.0310   41.0720 O.3   336  NDP336     -0.4371
      3  O2A      -20.4040    8.8180   40.1450 O.2   336  NDP336     -0.5170
      4  O5B      -22.8990    9.3190   40.5550 O.3   336  NDP336     -0.3112
      5  C5B      -24.1030    8.8930   41.1950 C.3   336  NDP336      0.1813
      6  C4B      -24.2880    9.7450   42.4230 C.3   336  NDP336      0.1820
      7  O4B      -25.6270    9.6440   42.9250 O.3   336  NDP336     -0.3136
      8  C3B      -23.3150    9.3820   43.5350 C.3   336  NDP336      0.2157
      9  O3B      -22.5300   10.4960   43.9700 O.3   336  NDP336     -0.2175
     10  C2B      -24.2700    9.0880   44.6610 C.3   336  NDP336      0.2314
     11  O2B      -23.7470    9.4880   45.9230 O.3   336  NDP336     -0.2630
     12  C1B      -25.4130    9.9720   44.2770 C.3   336  NDP336      0.3158
     13  N9A      -26.5650    9.5880   45.0570 N.pl3 336  NDP336     -0.1439
     14  C8A      -27.0950    8.3530   45.0780 C.3   336  NDP336      0.3377
     15  N7A      -28.2890    8.3870   45.6700 N.2   336  NDP336     -0.2095
     16  C5A      -28.4180    9.6610   46.0310 C.2   336  NDP336      0.2526
     17  C6A      -29.5280   10.1840   46.6870 C.2   336  NDP336      0.4393
     18  N6A      -30.5930    9.4150   46.9090 N.pl3 336  NDP336      0.2180
     19  N1A      -29.4810   11.5010   47.0060 N.2   336  NDP336      0.0021
     20  C2A      -28.4100   12.2450   46.7190 C.3   336  NDP336      0.5254
     21  N3A      -27.3550   11.7510   46.0610 N.2   336  NDP336     -0.0055
     22  C4A      -27.3420   10.4480   45.6940 C.2   336  NDP336      0.3518
     23  O3       -22.1360    7.9420   38.6860 O.3   336  NDP336     -0.2703
     24  PN       -22.3580    8.7900   37.3550 P.3   336  NDP336      0.2189
     25  O1N      -21.5390    8.3400   36.2240 O.2   336  NDP336     -0.5170
     26  O2N      -22.2570   10.2170   37.7570 O.3   336  NDP336     -0.4371
     27  O5D      -23.8040    8.3730   36.8350 O.3   336  NDP336     -0.3112
     28  C5D      -25.0060    8.8850   37.3910 C.3   336  NDP336      0.1813
     29  C4D      -26.0280    8.8600   36.2960 C.3   336  NDP336      0.1799
     30  O4D      -25.5860    9.5240   35.1020 O.3   336  NDP336     -0.3327
     31  C3D      -26.3970    7.4820   35.8440 C.3   336  NDP336      0.2158
     32  O3D      -27.7720    7.6370   35.4400 O.3   336  NDP336     -0.2175
     33  C2D      -25.4660    7.2250   34.6490 C.3   336  NDP336      0.2309
     34  O2D      -25.8720    6.1760   33.7320 O.3   336  NDP336     -0.2158
     35  C1D      -25.5310    8.6050   34.0210 C.3   336  NDP336      0.2263
     36  N1N      -24.4200    8.9140   33.0950 N.pl3 336  NDP336     -0.2787
     37  C2N      -23.0560    8.6600   33.3870 C.3   336  NDP336      0.1244
     38  C3N      -22.0570    9.0080   32.4560 C.2   336  NDP336      0.0544
     39  C7N      -20.5440    8.7670   32.6660 C.2   336  NDP336      0.2818
     40  O7N      -19.7970    8.5420   31.7220 O.2   336  NDP336     -0.2670
     41  N7N      -20.1050    8.5880   33.8900 N.am  336  NDP336     -0.0839
     42  C4N      -22.4250    9.6590   31.2870 C.2   336  NDP336      0.0033
     43  C5N      -23.7690    9.8860   31.0050 C.2   336  NDP336      0.0157
     44  C6N      -24.7840    9.4940   31.8810 C.2   336  NDP336      0.0633
     45  P2B      -22.8570    8.4190   46.6980 P.3   336  NDP336      0.5328
     46  O1X      -23.5890    6.9650   46.7400 O.3   336  NDP336     -0.1145
     47  O2X      -21.6210    8.1250   45.9400 O.2   336  NDP336     -0.2224
     48  O3X      -22.8160    9.0580   48.1710 O.3   336  NDP336     -0.1145
@<TRIPOS>BOND
     1    43    42    1
     2    43    44    2
     3    42    38    2
     4    40    39    2
     5    44    36    1
     6    38    39    1
     7    38    37    1
     8    39    41   am
     9    36    37    1
    10    36    35    1
    11    34    33    1
    12    35    33    1
    13    35    30    1
    14    33    31    1
    15    30    29    1
    16    32    31    1
    17    31    29    1
    18    25    24    2
    19    29    28    1
    20    27    24    1
    21    27    28    1
    22    24    26    1
    23    24    23    1
    24    23     1    1
    25     3     1    2
    26     1     4    1
    27     1     2    1
    28     4     5    1
    29     5     6    1
    30     6     7    1
    31     6     8    1
    32     7    12    1
    33     8     9    1
    34     8    10    1
    35    12    10    1
    36    12    13    1
    37    10    11    1
    38    13    14    1
    39    13    22    1
    40    14    15    1
    41    15    16    2
    42    22    16    1
    43    22    21    2
    44    11    45    1
    45    47    45    2
    46    16    17    1
    47    21    20    1
    48    17    18    1
    49    17    19    2
    50    45    46    1
    51    45    48    1
    52    20    19    1
