@<TRIPOS>MOLECULE
2dbx_GLU_B_1.pdb
 10 9 0 0 0
SMALL
GASTEIGER

@<TRIPOS>ATOM
      1  N         13.4340  -36.1050  -24.6610 N.3   601  GLU601     -0.1208
      2  CA        14.4440  -35.0520  -24.3590 C.3   601  GLU601      0.1949
      3  C         13.9370  -34.0860  -23.2950 C.2   601  GLU601      0.3819
      4  O         12.7010  -33.9370  -23.1680 O.co2 601  GLU601     -0.2441
      5  CB        14.8040  -34.2780  -25.6330 C.3   601  GLU601      0.0424
      6  CG        15.7160  -35.0430  -26.5860 C.3   601  GLU601      0.1161
      7  CD        16.1600  -34.2190  -27.7830 C.2   601  GLU601      0.3649
      8  OE1       16.2400  -32.9770  -27.6670 O.co2 601  GLU601     -0.2457
      9  OE2       16.4450  -34.8180  -28.8420 O.co2 601  GLU601     -0.2457
     10  OXT       14.7900  -33.4900  -22.6030 O.co2 601  GLU601     -0.2441
@<TRIPOS>BOND
     1     9     7   ar
     2     7     8   ar
     3     7     6    1
     4     6     5    1
     5     5     2    1
     6     1     2    1
     7     2     3    1
     8     3     4   ar
     9     3    10   ar
