@<TRIPOS>MOLECULE
2dby_GDP_A_1.pdb
 28 30 0 0 0
SMALL
GASTEIGER

@<TRIPOS>ATOM
      1  PB        21.2470   31.4300   23.5570 P.3   501  GDP501      0.5373
      2  O1B       22.0180   30.1350   23.7700 O.3   501  GDP501     -0.1143
      3  O2B       20.6740   32.0170   24.9570 O.3   501  GDP501     -0.1143
      4  O3B       21.8000   32.4290   22.5430 O.2   501  GDP501     -0.2221
      5  O3A       19.8790   30.8980   22.8300 O.3   501  GDP501     -0.2261
      6  PA        19.4150   31.0140   21.2880 P.3   501  GDP501      0.2231
      7  O1A       19.3160   32.4250   20.8970 O.3   501  GDP501     -0.4370
      8  O2A       20.4690   30.2560   20.3370 O.2   501  GDP501     -0.5169
      9  O5'       17.9580   30.3310   21.1470 O.3   501  GDP501     -0.3111
     10  C5'       18.0510   28.9380   21.4670 C.3   501  GDP501      0.1813
     11  C4'       16.9400   28.1760   20.7010 C.3   501  GDP501      0.1799
     12  O4'       15.5820   28.6440   21.0670 O.3   501  GDP501     -0.3326
     13  C3'       16.9820   28.3430   19.1880 C.3   501  GDP501      0.2158
     14  O3'       16.8910   27.3150   18.2030 O.3   501  GDP501     -0.2175
     15  C2'       16.0960   29.5960   18.9640 C.3   501  GDP501      0.2310
     16  O2'       15.5530   29.4830   17.6270 O.3   501  GDP501     -0.2158
     17  C1'       14.9250   29.2520   19.8730 C.3   501  GDP501      0.2293
     18  N9        14.1630   30.4500   20.3320 N.pl3 501  GDP501     -0.2354
     19  C8        14.6850   31.6020   20.8900 C.3   501  GDP501      0.2246
     20  N7        13.7300   32.4410   21.1860 N.2   501  GDP501     -0.2322
     21  C5        12.5350   31.8920   20.8400 C.2   501  GDP501      0.2182
     22  C6        11.1680   32.3230   20.9260 C.1   501  GDP501      0.2372
     23  O6        10.9010   33.4070   21.3900 O.2   501  GDP501     -0.2069
     24  N1        10.1690   31.4840   20.4700 N.2   501  GDP501     -0.2485
     25  C2        10.4840   30.2460   19.9410 C.1   501  GDP501      0.2531
     26  N2         9.4750   29.4300   19.4970 N.pl3 501  GDP501     -0.0226
     27  N3        11.7550   29.8290   19.8550 N.2   501  GDP501     -0.3074
     28  C4        12.7960   30.6080   20.2860 C.2   501  GDP501      0.2300
@<TRIPOS>BOND
     1    16    15    1
     2    14    13    1
     3    15    13    1
     4    15    17    1
     5    13    11    1
     6    26    25    1
     7    27    25    2
     8    27    28    2
     9    17    18    1
    10    17    12    1
    11    25    24    2
    12    28    18    1
    13    28    21    1
    14    18    19    1
    15     8     6    2
    16    24    22    2
    17    11    12    1
    18    11    10    1
    19    21    22    1
    20    21    20    2
    21    19    20    1
    22     7     6    1
    23    22    23    2
    24     9     6    1
    25     9    10    1
    26     6     5    1
    27     4     1    2
    28     5     1    1
    29     1     2    1
    30     1     3    1
