@<TRIPOS>MOLECULE
2dbz_NAP_A_1.pdb
 48 52 0 0 0
SMALL
GASTEIGER

@<TRIPOS>ATOM
      1  PA        31.3810   -1.2780   -8.0170 P.3   401  NAP401      0.2189
      2  O1A       29.9420   -1.0110   -8.2300 O.3   401  NAP401     -0.4371
      3  O2A       32.3240   -0.8610   -9.0790 O.2   401  NAP401     -0.5170
      4  O5B       31.5120   -2.8540   -7.6930 O.3   401  NAP401     -0.3112
      5  C5B       32.7300   -3.5850   -7.8570 C.3   401  NAP401      0.1813
      6  C4B       32.4860   -5.0010   -8.3900 C.3   401  NAP401      0.1820
      7  O4B       31.7840   -5.8740   -7.4870 O.3   401  NAP401     -0.3136
      8  C3B       31.6980   -5.0260   -9.7040 C.3   401  NAP401      0.2157
      9  O3B       32.5330   -5.5640  -10.7320 O.3   401  NAP401     -0.2175
     10  C2B       30.5470   -5.9860   -9.3980 C.3   401  NAP401      0.2314
     11  O2B       30.1980   -6.7440  -10.5630 O.3   401  NAP401     -0.2630
     12  C1B       31.2220   -6.8740   -8.3530 C.3   401  NAP401      0.3158
     13  N9A       30.2620   -7.7520   -7.6390 N.pl3 401  NAP401     -0.1439
     14  C8A       29.1150   -7.3870   -7.0650 C.3   401  NAP401      0.3377
     15  N7A       28.5200   -8.4470   -6.5200 N.2   401  NAP401     -0.2095
     16  C5A       29.2930   -9.5020   -6.7450 C.2   401  NAP401      0.2526
     17  C6A       29.2010  -10.8640   -6.4540 C.2   401  NAP401      0.4393
     18  N6A       28.1610  -11.3460   -5.7820 N.pl3 401  NAP401      0.2180
     19  N1A       30.1770  -11.6830   -6.8650 N.2   401  NAP401      0.0021
     20  C2A       31.2220  -11.2300   -7.5390 C.3   401  NAP401      0.5254
     21  N3A       31.3390   -9.9460   -7.8340 N.2   401  NAP401     -0.0055
     22  C4A       30.4020   -9.0640   -7.4560 C.2   401  NAP401      0.3518
     23  O3        31.7610   -0.5410   -6.6320 O.3   401  NAP401     -0.2703
     24  PN        33.1940    0.1220   -6.2940 P.3   401  NAP401      0.2189
     25  O1N       33.1110    1.5840   -6.5300 O.3   401  NAP401     -0.4371
     26  O2N       34.3150   -0.6150   -6.9110 O.2   401  NAP401     -0.5170
     27  O5D       33.2530   -0.1400   -4.7060 O.3   401  NAP401     -0.3112
     28  C5D       32.9800   -1.4500   -4.2010 C.3   401  NAP401      0.1813
     29  C4D       32.7870   -1.4140   -2.6850 C.3   401  NAP401      0.1799
     30  O4D       33.9840   -1.0210   -1.9990 O.3   401  NAP401     -0.3327
     31  C3D       31.7930   -0.3410   -2.2480 C.3   401  NAP401      0.2158
     32  O3D       30.4560   -0.7680   -2.5150 O.3   401  NAP401     -0.2175
     33  C2D       32.0500   -0.3590   -0.7430 C.3   401  NAP401      0.2309
     34  O2D       31.3630   -1.4480   -0.1200 O.3   401  NAP401     -0.2158
     35  C1D       33.5610   -0.6060   -0.6850 C.3   401  NAP401      0.2263
     36  N1N       34.3180    0.6280   -0.3780 N.pl3 401  NAP401     -0.2787
     37  C2N       35.1690    0.6410    0.7350 C.3   401  NAP401      0.1244
     38  C3N       35.9340    1.7720    0.9980 C.2   401  NAP401      0.0544
     39  C7N       36.8240    1.8180    2.2400 C.2   401  NAP401      0.2818
     40  O7N       37.1490    2.8960    2.7380 O.2   401  NAP401     -0.2670
     41  N7N       37.1650    0.6330    2.7380 N.am  401  NAP401     -0.0839
     42  C4N       35.8520    2.8710    0.1500 C.2   401  NAP401      0.0033
     43  C5N       35.0130    2.8630   -0.9600 C.2   401  NAP401      0.0157
     44  C6N       34.2360    1.7410   -1.2260 C.2   401  NAP401      0.0633
     45  P2B       28.9150   -6.3500  -11.4590 P.3   401  NAP401      0.5328
     46  O1X       29.2890   -5.0610  -12.3500 O.3   401  NAP401     -0.1145
     47  O2X       28.7270   -7.5660  -12.4970 O.2   401  NAP401     -0.2224
     48  O3X       27.6920   -6.1400  -10.6530 O.3   401  NAP401     -0.1145
@<TRIPOS>BOND
     1    47    45    2
     2    46    45    1
     3    45    48    1
     4    45    11    1
     5     9     8    1
     6    11    10    1
     7     8    10    1
     8     8     6    1
     9    10    12    1
    10     3     1    2
    11     6     5    1
    12     6     7    1
    13    12    13    1
    14    12     7    1
    15     2     1    1
    16     1     4    1
    17     1    23    1
    18     5     4    1
    19    21    20    1
    20    21    22    2
    21    13    22    1
    22    13    14    1
    23    20    19    1
    24    22    16    1
    25    14    15    1
    26    26    24    2
    27    19    17    2
    28    16    15    2
    29    16    17    1
    30    23    24    1
    31    25    24    1
    32    17    18    1
    33    24    27    1
    34    27    28    1
    35    28    29    1
    36    29    31    1
    37    29    30    1
    38    32    31    1
    39    31    33    1
    40    30    35    1
    41    44    43    2
    42    44    36    1
    43    43    42    1
    44    33    35    1
    45    33    34    1
    46    35    36    1
    47    36    37    1
    48    42    38    2
    49    37    38    1
    50    38    39    1
    51    39    40    2
    52    39    41   am
