@<TRIPOS>MOLECULE
2dc1_NAD_A_1.pdb
 44 48 0 0 0
SMALL
GASTEIGER

@<TRIPOS>ATOM
      1  PA        15.7370   20.7190   48.0490 P.3   242  NAD242      0.2189
      2  O1A       16.9360   20.2140   48.6810 O.3   242  NAD242     -0.4371
      3  O2A       14.4250   20.0660   48.4780 O.2   242  NAD242     -0.5170
      4  O5B       15.6590   22.2800   48.1750 O.3   242  NAD242     -0.3112
      5  C5B       14.5860   23.0120   47.6460 C.3   242  NAD242      0.1813
      6  C4B       14.5210   24.3410   48.4120 C.3   242  NAD242      0.1821
      7  O4B       13.5270   25.0770   47.7640 O.3   242  NAD242     -0.3135
      8  C3B       13.9650   24.0030   49.8430 C.3   242  NAD242      0.2184
      9  O3B       14.7790   24.6510   50.7790 O.3   242  NAD242     -0.2174
     10  C2B       12.5490   24.6080   49.8600 C.3   242  NAD242      0.2570
     11  O2B       12.2100   25.3440   51.0680 O.3   242  NAD242     -0.2130
     12  C1B       12.6080   25.6370   48.7300 C.3   242  NAD242      0.3186
     13  N9A       11.3100   25.9710   48.0440 N.pl3 242  NAD242     -0.1439
     14  C8A       10.4440   25.1550   47.3950 C.3   242  NAD242      0.3377
     15  N7A        9.5020   25.9040   46.8530 N.2   242  NAD242     -0.2095
     16  C5A        9.7050   27.1700   47.1620 C.2   242  NAD242      0.2526
     17  C6A        9.0110   28.2760   46.8710 C.2   242  NAD242      0.4393
     18  N6A        7.8860   28.2190   46.1480 N.pl3 242  NAD242      0.2180
     19  N1A        9.5200   29.4230   47.2960 N.2   242  NAD242      0.0021
     20  C2A       10.6620   29.4850   48.0420 C.3   242  NAD242      0.5254
     21  N3A       11.4110   28.3750   48.3060 N.2   242  NAD242     -0.0055
     22  C4A       10.8770   27.2240   47.8940 C.2   242  NAD242      0.3518
     23  O3        15.7310   20.3090   46.4860 O.3   242  NAD242     -0.2703
     24  PN        17.1080   20.3570   45.5570 P.3   242  NAD242      0.2189
     25  O1N       17.7150   19.0170   45.4260 O.2   242  NAD242     -0.5170
     26  O2N       17.7860   21.6570   45.7020 O.3   242  NAD242     -0.4371
     27  O5D       16.3060   20.7890   44.2600 O.3   242  NAD242     -0.3112
     28  C5D       15.4470   20.0840   43.6590 C.3   242  NAD242      0.1813
     29  C4D       14.7240   21.0410   42.7600 C.3   242  NAD242      0.1799
     30  O4D       15.3850   21.1140   41.4800 O.3   242  NAD242     -0.3327
     31  C3D       13.5160   20.1250   42.6850 C.3   242  NAD242      0.2158
     32  O3D       12.3160   20.7970   42.5620 O.3   242  NAD242     -0.2175
     33  C2D       13.7130   19.3610   41.4460 C.3   242  NAD242      0.2309
     34  O2D       12.4380   19.4880   40.8660 O.3   242  NAD242     -0.2158
     35  C1D       14.7780   20.1260   40.6410 C.3   242  NAD242      0.2263
     36  N1N       15.7130   19.1740   40.0150 N.pl3 242  NAD242     -0.2787
     37  C2N       15.7650   19.1150   38.6460 C.3   242  NAD242      0.1244
     38  C3N       16.6200   18.2650   37.9380 C.2   242  NAD242      0.0544
     39  C7N       16.6700   18.2850   36.4390 C.2   242  NAD242      0.2818
     40  O7N       17.5410   17.3100   35.8250 O.2   242  NAD242     -0.2670
     41  N7N       15.9150   19.1380   35.6960 N.am  242  NAD242     -0.0839
     42  C4N       17.4330   17.3600   38.6820 C.2   242  NAD242      0.0033
     43  C5N       17.3870   17.4190   40.0460 C.2   242  NAD242      0.0157
     44  C6N       16.5270   18.3160   40.7330 C.2   242  NAD242      0.0633
@<TRIPOS>BOND
     1    41    39   am
     2    40    39    2
     3    39    38    1
     4    38    37    1
     5    38    42    2
     6    37    36    1
     7    42    43    1
     8    36    35    1
     9    36    44    1
    10    43    44    2
    11    35    33    1
    12    35    30    1
    13    34    33    1
    14    33    31    1
    15    30    29    1
    16    32    31    1
    17    31    29    1
    18    29    28    1
    19    28    27    1
    20    27    24    1
    21    25    24    2
    22    24    26    1
    23    24    23    1
    24    18    17    1
    25    23     1    1
    26    15    16    2
    27    15    14    1
    28    17    16    1
    29    17    19    2
    30    16    22    1
    31    19    20    1
    32    14    13    1
    33     5     4    1
    34     5     6    1
    35     7     6    1
    36     7    12    1
    37    22    13    1
    38    22    21    2
    39    20    21    1
    40    13    12    1
    41     1     4    1
    42     1     3    2
    43     1     2    1
    44     6     8    1
    45    12    10    1
    46     8    10    1
    47     8     9    1
    48    10    11    1
