@<TRIPOS>MOLECULE
2dc1_CIT_A_1.pdb
 13 12 0 0 0
SMALL
GASTEIGER

@<TRIPOS>ATOM
      1  C1        13.6860   13.8260   40.3800 C.2   1585  CIT1585     0.3680
      2  O1        12.7990   13.1500   39.7270 O.co2 1585  CIT1585    -0.2455
      3  O2        13.2460   14.3450   41.4430 O.co2 1585  CIT1585    -0.2455
      4  C2        15.1810   14.2380   40.0910 C.3   1585  CIT1585     0.1560
      5  C3        16.0870   13.6770   38.9540 C.3   1585  CIT1585     0.2402
      6  O7        15.4680   12.3270   38.6950 O.3   1585  CIT1585    -0.2129
      7  C4        15.8090   14.6110   37.8120 C.3   1585  CIT1585     0.1560
      8  C5        14.3000   14.5320   37.5480 C.2   1585  CIT1585     0.3680
      9  O3        13.8380   13.4440   37.0670 O.co2 1585  CIT1585    -0.2455
     10  O4        13.5440   15.4590   37.9380 O.co2 1585  CIT1585    -0.2455
     11  C6        17.6810   13.7150   39.1580 C.2   1585  CIT1585     0.3927
     12  O5        18.4470   12.7760   38.8250 O.co2 1585  CIT1585    -0.2429
     13  O6        18.4340   14.5780   39.7310 O.co2 1585  CIT1585    -0.2429
@<TRIPOS>BOND
     1     9     8   ar
     2     8     7    1
     3     8    10   ar
     4     7     5    1
     5     6     5    1
     6    12    11   ar
     7     5    11    1
     8     5     4    1
     9    11    13   ar
    10     2     1   ar
    11     4     1    1
    12     1     3   ar
