@<TRIPOS>MOLECULE
2dc3_HEM_A_1.pdb
 43 50 0 0 0
SMALL
GASTEIGER

@<TRIPOS>ATOM
      1 FE         15.6440   -2.6350   23.3070 Fe    191  HEM191      0.0000
      2  CHA       15.1900   -2.2540   19.9750 C.2   191  HEM191      0.0000
      3  CHB       14.0630    0.3770   23.8250 C.2   191  HEM191      0.0000
      4  CHC       16.1250   -2.9170   26.6630 C.2   191  HEM191      0.0000
      5  CHD       17.0500   -5.7000   22.8520 C.2   191  HEM191      0.0000
      6  NA        14.8160   -1.2020   22.1110 N.2   191  HEM191      0.0000
      7  C1A       14.7100   -1.2580   20.7620 C.2   191  HEM191      0.0000
      8  C2A       14.0250   -0.0640   20.2590 C.2   191  HEM191      0.0000
      9  C3A       13.6920    0.6590   21.3380 C.2   191  HEM191      0.0000
     10  C4A       14.1960   -0.0330   22.5290 C.2   191  HEM191      0.0000
     11  CMA       12.9330    1.9800   21.4060 C.3   191  HEM191      0.0000
     12  CAA       13.6830    0.2210   18.7860 C.3   191  HEM191      0.0000
     13  CBA       12.2750   -0.2070   18.4230 C.3   191  HEM191      0.0000
     14  CGA       12.1420   -1.6900   18.3630 C.2   191  HEM191      0.0000
     15  O1A       11.4300   -2.2890   19.2010 O.co2 191  HEM191      0.0000
     16  O2A       12.8270   -2.2170   17.4680 O.co2 191  HEM191      0.0000
     17  NB        15.2360   -1.4670   24.9200 N.ar  191  HEM191      0.0000
     18  C1B       14.5450   -0.2530   24.9270 C.ar  191  HEM191      0.0000
     19  C2B       14.3890    0.1970   26.2960 C.ar  191  HEM191      0.0000
     20  C3B       14.9780   -0.7400   27.0910 C.ar  191  HEM191      0.0000
     21  C4B       15.5030   -1.7740   26.2400 C.ar  191  HEM191      0.0000
     22  CMB       13.6490    1.4800   26.7210 C.3   191  HEM191      0.0000
     23  CAB       15.1100   -0.7650   28.6120 C.2   191  HEM191      0.0000
     24  CBB       15.1950    0.3530   29.3490 C.2   191  HEM191      0.0000
     25  NC        16.4540   -4.0580   24.5290 N.2   191  HEM191      0.0000
     26  C1C       16.5510   -3.9920   25.8910 C.2   191  HEM191      0.0000
     27  C2C       17.2090   -5.1970   26.3780 C.2   191  HEM191      0.0000
     28  C3C       17.4850   -5.9680   25.3010 C.2   191  HEM191      0.0000
     29  C4C       17.0140   -5.2500   24.1170 C.2   191  HEM191      0.0000
     30  CMC       17.4530   -5.5060   27.8670 C.3   191  HEM191      0.0000
     31  CAC       18.2110   -7.3170   25.2870 C.2   191  HEM191      0.0000
     32  CBC       19.1900   -7.5830   26.1490 C.2   191  HEM191      0.0000
     33  ND        16.0140   -3.8070   21.7170 N.ar  191  HEM191      0.0000
     34  C1D       16.6430   -5.0650   21.7430 C.ar  191  HEM191      0.0000
     35  C2D       16.8350   -5.5270   20.4030 C.ar  191  HEM191      0.0000
     36  C3D       16.2360   -4.4640   19.5310 C.ar  191  HEM191      0.0000
     37  C4D       15.7980   -3.4080   20.4150 C.ar  191  HEM191      0.0000
     38  CMD       17.4580   -6.8200   19.9290 C.3   191  HEM191      0.0000
     39  CAD       16.3220   -4.5230   18.0170 C.3   191  HEM191      0.0000
     40  CBD       17.6920   -3.9810   17.6420 C.3   191  HEM191      0.0000
     41  CGD       17.9720   -3.8490   16.1680 C.2   191  HEM191      0.0000
     42  O1D       19.1060   -3.4600   15.8020 O.co2 191  HEM191      0.0000
     43  O2D       17.0470   -4.0660   15.3500 O.co2 191  HEM191      0.0000
@<TRIPOS>BOND
     1    43    41   ar
     2    42    41   ar
     3    41    40    1
     4    16    14   ar
     5    40    39    1
     6    39    36    1
     7    14    13    1
     8    14    15   ar
     9    13    12    1
    10    12     8    1
    11    36    35   ar
    12    36    37   ar
    13    38    35    1
    14     2    37    2
    15     2     7    1
    16     8     7    1
    17     8     9    2
    18    35    34   ar
    19    37    33   ar
    20     7     6    2
    21     9    11    1
    22     9    10    1
    23    33    34   ar
    24    33     1    1
    25    34     5    2
    26     6    10    1
    27     6     1    1
    28    10     3    2
    29     5    29    1
    30     1    25    1
    31     1    17    1
    32     3    18    1
    33    29    25    2
    34    29    28    1
    35    25    26    1
    36    17    18   ar
    37    17    21   ar
    38    18    19   ar
    39    31    28    1
    40    31    32    2
    41    28    27    2
    42    26    27    1
    43    26     4    2
    44    21     4    1
    45    21    20   ar
    46    19    22    1
    47    19    20   ar
    48    27    30    1
    49    20    23    1
    50    23    24    2
