@<TRIPOS>MOLECULE
2dc6_73V_A_1.pdb
 34 35 0 0 0
SMALL
GASTEIGER

@<TRIPOS>ATOM
      1  C19        7.6050   19.4210   -4.6190 C.3   730  73V730      0.0019
      2  C18        7.3030   18.8100   -5.9990 C.3   730  73V730      0.0234
      3  C17        8.0540   19.4930   -7.1790 C.3   730  73V730      0.1151
      4  N3         9.5330   19.5390   -6.9170 N.am  730  73V730     -0.2053
      5  C10       18.9970   15.1050   -0.9910 C.ar  730  73V730      0.0213
      6  C15       20.1640   14.5940   -1.6880 C.ar  730  73V730     -0.0007
      7  C14       21.4470   15.2140   -1.5150 C.ar  730  73V730     -0.0002
      8  C13       21.5790   16.3540   -0.6430 C.ar  730  73V730     -0.0000
      9  C12       20.4240   16.8700    0.0540 C.ar  730  73V730     -0.0002
     10  C11       19.1390   16.2470   -0.1200 C.ar  730  73V730     -0.0007
     11  C9        17.6280   14.4520   -1.1710 C.3   730  73V730      0.2351
     12  O1        11.9950   17.3360   -6.9400 O.3   730  73V730     -0.2127
     13  C3        12.7210   18.3720   -7.6200 C.3   730  73V730      0.2381
     14  C4        14.1930   18.4250   -7.1300 C.2   730  73V730      0.2727
     15  O4        15.0710   18.7660   -7.9290 O.2   730  73V730     -0.2706
     16  C2        11.9470   19.6870   -7.3800 C.3   730  73V730      0.1292
     17  C16       10.4910   19.6590   -7.8700 C.2   730  73V730      0.2445
     18  O2        10.2770   19.7460   -9.0860 O.2   730  73V730     -0.2732
     19  N1        14.4470   18.0960   -5.8370 N.am  730  73V730     -0.1957
     20  C5        15.7850   17.6600   -5.3060 C.3   730  73V730      0.1712
     21  C6        15.6490   16.1310   -4.8570 C.2   730  73V730      0.2458
     22  O5        14.6590   15.8560   -4.1480 O.2   730  73V730     -0.2730
     23  C20       16.2190   18.6030   -4.0920 C.3   730  73V730      0.0289
     24  C22       16.3600   20.1020   -4.4920 C.3   730  73V730      0.0022
     25  C21       17.6080   18.1890   -3.4860 C.3   730  73V730      0.0023
     26  C23       15.3890   21.0490   -3.7970 C.3   730  73V730      0.0001
     27  N2        16.5470   15.0940   -5.1900 N.am  730  73V730     -0.2700
     28  C7        16.3780   13.6780   -4.7350 C.3   730  73V730      0.1747
     29  C8        16.7570   13.3730   -3.2340 C.2   730  73V730      0.3355
     30  O7        17.2190   14.5140   -2.5600 O.3   730  73V730     -0.4424
     31  O6        16.6450   12.2390   -2.7540 O.2   730  73V730     -0.2483
     32  C26       17.2290   12.9330   -5.7720 C.3   730  73V730      0.0331
     33  C25       18.3870   13.8900   -6.1030 C.3   730  73V730      0.0238
     34  C24       17.7660   15.2870   -6.0280 C.3   730  73V730      0.0940
@<TRIPOS>BOND
     1    18    17    2
     2    15    14    2
     3    17    16    1
     4    17     4   am
     5    13    16    1
     6    13    14    1
     7    13    12    1
     8     3     4    1
     9     3     2    1
    10    14    19   am
    11    33    34    1
    12    33    32    1
    13    34    27    1
    14     2     1    1
    15    19    20    1
    16    32    28    1
    17    20    21    1
    18    20    23    1
    19    27    21   am
    20    27    28    1
    21    21    22    2
    22    28    29    1
    23    24    23    1
    24    24    26    1
    25    23    25    1
    26    29    31    2
    27    29    30    1
    28    30    11    1
    29     6     7   ar
    30     6     5   ar
    31     7     8   ar
    32    11     5    1
    33     5    10   ar
    34     8     9   ar
    35    10     9   ar
