@<TRIPOS>MOLECULE
2dc7_042_A_1.pdb
 26 25 0 0 0
SMALL
GASTEIGER

@<TRIPOS>ATOM
      1  C10       15.4460   18.8730   -4.9870 C.3   420  042420      0.2086
      2  C11       15.6490   20.3660   -4.7030 C.3   420  042420      0.0513
      3  C3        11.8560   19.6680   -7.3030 C.3   420  042420      0.1313
      4  C2        12.7300   18.4410   -7.6300 C.3   420  042420      0.2587
      5  O1        12.0890   17.2790   -7.0930 O.3   420  042420     -0.2105
      6  C4        10.4420   19.6050   -7.8650 C.2   420  042420      0.2450
      7  O4        10.2750   19.6130   -9.0880 O.2   420  042420     -0.2732
      8  N1         9.4390   19.5470   -6.9800 N.am  420  042420     -0.1950
      9  C5         8.2370   18.6780   -7.1990 C.3   420  042420      0.2028
     10  C6         7.1510   19.4240   -8.0360 C.2   420  042420      0.2643
     11  O5         7.3090   20.5840   -8.4310 O.2   420  042420     -0.2714
     12  C12        7.6970   18.2120   -5.7930 C.3   420  042420      0.1808
     13  O8         7.5800   19.3090   -4.8870 O.3   420  042420     -0.2208
     14  C13        8.5920   17.1950   -5.0590 C.3   420  042420      0.0379
     15  N2         6.0370   18.7240   -8.3030 N.am  420  042420     -0.1941
     16  C7         4.9930   19.1440   -9.2740 C.3   420  042420      0.1977
     17  C8         3.8290   19.6870   -8.4040 C.2   420  042420      0.3842
     18  O7         3.6900   19.4360   -7.2160 O.co2 420  042420     -0.2437
     19  C14        4.6160   17.9040  -10.1850 C.3   420  042420      0.0311
     20  C16        5.8600   17.1860  -10.8110 C.3   420  042420      0.0023
     21  C15        3.6930   18.3110  -11.3640 C.3   420  042420      0.0023
     22  C17        6.3130   15.8910  -10.1030 C.3   420  042420      0.0001
     23  O6         2.9690   20.4980   -9.0850 O.co2 420  042420     -0.2437
     24  C9        14.1580   18.5800   -7.0570 C.2   420  042420      0.3482
     25  O2        15.1420   18.5900   -7.7920 O.2   420  042420     -0.2473
     26  O3        14.1710   18.6940   -5.6650 O.3   420  042420     -0.4468
@<TRIPOS>BOND
     1    21    19    1
     2    20    19    1
     3    20    22    1
     4    19    16    1
     5    16    17    1
     6    16    15    1
     7     7     6    2
     8    23    17   ar
     9    11    10    2
    10    17    18   ar
    11    15    10   am
    12    10     9    1
    13     6     3    1
    14     6     8   am
    15    25    24    2
    16     4     3    1
    17     4     5    1
    18     4    24    1
    19     9     8    1
    20     9    12    1
    21    24    26    1
    22    12    14    1
    23    12    13    1
    24    26     1    1
    25     1     2    1
