@<TRIPOS>MOLECULE
2dc8_59A_A_1.pdb
 19 18 0 0 0
SMALL
GASTEIGER

@<TRIPOS>ATOM
      1  C2        12.6720   18.3590   -7.7640 C.3   590  59A590      0.2587
      2  O1        12.1020   17.1030   -7.3840 O.3   590  59A590     -0.2105
      3  C3        11.6710   19.4810   -7.4040 C.3   590  59A590      0.1313
      4  C4        10.3060   19.3380   -8.0740 C.2   590  59A590      0.2450
      5  O4        10.1920   19.5840   -9.2710 O.2   590  59A590     -0.2732
      6  N1         9.3160   18.8930   -7.2740 N.am  590  59A590     -0.1955
      7  C5         7.8700   18.5870   -7.6280 C.3   590  59A590      0.1977
      8  C6         7.1660   19.8530   -8.2230 C.2   590  59A590      0.3842
      9  O5         7.5440   21.0010   -8.0850 O.co2 590  59A590     -0.2437
     10  C10        7.1360   18.0590   -6.3340 C.3   590  59A590      0.0311
     11  C12        7.2840   19.0090   -5.0960 C.3   590  59A590      0.0023
     12  C11        7.6680   16.6680   -5.9070 C.3   590  59A590      0.0023
     13  C13        5.9700   19.3220   -4.3500 C.3   590  59A590      0.0001
     14  OA         6.0370   19.5470   -8.9220 O.co2 590  59A590     -0.2437
     15  C7        14.0500   18.5530   -7.0790 C.2   590  59A590      0.3482
     16  O2        15.0810   18.6400   -7.7350 O.2   590  59A590     -0.2473
     17  O3        13.9580   18.6100   -5.6870 O.3   590  59A590     -0.4468
     18  C8        15.1800   18.7870   -4.9100 C.3   590  59A590      0.2086
     19  C9        15.4510   20.2910   -4.7360 C.3   590  59A590      0.0513
@<TRIPOS>BOND
     1     5     4    2
     2    14     8   ar
     3     8     9   ar
     4     8     7    1
     5     4     3    1
     6     4     6   am
     7     1     3    1
     8     1     2    1
     9     1    15    1
    10    16    15    2
    11     7     6    1
    12     7    10    1
    13    15    17    1
    14    10    12    1
    15    10    11    1
    16    17    18    1
    17    11    13    1
    18    18    19    1
