@<TRIPOS>MOLECULE
2dc9_74M_A_1.pdb
 28 28 0 0 0
SMALL
GASTEIGER

@<TRIPOS>ATOM
      1  C2        12.7340   18.4180   -7.5370 C.3   740  74M740      0.2081
      2  O1        12.0790   17.4030   -7.1390 O.3   740  74M740     -0.2183
      3  C3        11.8380   19.6380   -7.2800 C.3   740  74M740      0.1238
      4  C4        10.4510   19.5630   -7.9040 C.2   740  74M740      0.2445
      5  O4        10.3380   19.7490   -9.1150 O.2   740  74M740     -0.2732
      6  N1         9.4520   19.2810   -7.0470 N.am  740  74M740     -0.1978
      7  C5         8.1090   18.6560   -7.3500 C.3   740  74M740      0.1712
      8  C6         7.3200   19.5670   -8.3870 C.2   740  74M740      0.2458
      9  O5         7.5190   20.7950   -8.3360 O.2   740  74M740     -0.2730
     10  C14        7.2820   18.4790   -6.0150 C.3   740  74M740      0.0289
     11  C16        7.5220   19.5980   -4.9600 C.3   740  74M740      0.0022
     12  C15        7.5990   17.1160   -5.3400 C.3   740  74M740      0.0023
     13  C17        6.2630   20.1230   -4.2440 C.3   740  74M740      0.0001
     14  N2         6.4110   19.0720   -9.3080 N.am  740  74M740     -0.2700
     15  C7         5.1950   19.7980   -9.7860 C.3   740  74M740      0.1747
     16  C8         4.0140   20.0290   -8.7820 C.2   740  74M740      0.3353
     17  O6         2.9870   20.6300   -9.1530 O.2   740  74M740     -0.2483
     18  C20        4.8080   18.9990  -11.0470 C.3   740  74M740      0.0331
     19  C19        5.3650   17.5810  -10.8590 C.3   740  74M740      0.0238
     20  C18        6.5690   17.7310   -9.9230 C.3   740  74M740      0.0940
     21  O7         4.2980   19.4930   -7.4980 O.3   740  74M740     -0.4433
     22  C9         3.0900   19.8320   -6.7540 C.3   740  74M740      0.2557
     23  N3        14.3840   17.8450   -5.8130 N.3   740  74M740     -0.1871
     24  C11       15.5520   18.0510   -4.9320 C.3   740  74M740      0.0914
     25  C12       15.3590   19.2970   -4.0540 C.3   740  74M740      0.0189
     26  C13       16.2400   20.4740   -4.4980 C.3   740  74M740      0.0015
     27  C10       14.1120   18.6280   -6.8560 C.3   740  74M740      0.2565
     28  O2        14.8860   18.6680   -7.8240 O.3   740  74M740     -0.2008
@<TRIPOS>BOND
     1    18    19    1
     2    18    15    1
     3    19    20    1
     4    20    14    1
     5    15    14    1
     6    15    16    1
     7    14     8   am
     8    17    16    2
     9     5     4    2
    10    16    21    1
    11     8     9    2
    12     8     7    1
    13     4     3    1
    14     4     6   am
    15    28    27    1
    16     1     3    1
    17     1     2    1
    18     1    27    1
    19    21    22    1
    20     7     6    1
    21     7    10    1
    22    27    23    1
    23    10    12    1
    24    10    11    1
    25    23    24    1
    26    11    13    1
    27    24    25    1
    28    26    25    1
