@<TRIPOS>MOLECULE
2dca_75V_A_1.pdb
 24 23 0 0 0
SMALL
GASTEIGER

@<TRIPOS>ATOM
      1  C9        14.1340   18.6150   -6.8870 C.2   750  75V750      0.3482
      2  O2        15.1390   18.5220   -7.6290 O.2   750  75V750     -0.2473
      3  O3        14.1470   18.8860   -5.5150 O.3   750  75V750     -0.4468
      4  C10       15.4110   19.0890   -4.8210 C.3   750  75V750      0.2086
      5  C11       15.5910   20.5690   -4.4560 C.3   750  75V750      0.0513
      6  C4        10.4060   19.4780   -7.8660 C.2   750  75V750      0.2449
      7  C3        11.8060   19.6680   -7.2870 C.3   750  75V750      0.1312
      8  C2        12.7130   18.4270   -7.4510 C.3   750  75V750      0.2587
      9  O1        12.0550   17.3220   -6.8170 O.3   750  75V750     -0.2105
     10  O4        10.2180   19.6700   -9.0690 O.2   750  75V750     -0.2732
     11  N1         9.4500   19.0480   -7.0070 N.am  750  75V750     -0.1977
     12  C5         8.1600   18.3640   -7.4340 C.3   750  75V750      0.1726
     13  C6         7.3020   19.3410   -8.3380 C.2   750  75V750      0.2617
     14  O5         7.6620   20.4910   -8.5890 O.2   750  75V750     -0.2715
     15  C12        7.3720   17.9670   -6.1210 C.3   750  75V750      0.0290
     16  C14        7.0090   19.1960   -5.2080 C.3   750  75V750      0.0022
     17  C13        8.1980   16.9830   -5.2380 C.3   750  75V750      0.0023
     18  C15        5.6620   19.0990   -4.4710 C.3   750  75V750      0.0001
     19  N2         6.1550   18.8360   -8.8230 N.am  750  75V750     -0.1942
     20  C7         5.2270   19.5940   -9.6890 C.3   750  75V750      0.1979
     21  C8         3.9290   19.9620   -8.9410 C.2   750  75V750      0.3842
     22  O6         2.9890   20.5960   -9.4200 O.co2 750  75V750     -0.2437
     23  C16        4.9750   18.7130  -10.9260 C.3   750  75V750      0.0356
     24  O7         3.9280   19.5030   -7.6650 O.co2 750  75V750     -0.2437
@<TRIPOS>BOND
     1    23    20    1
     2    20    21    1
     3    20    19    1
     4    22    21   ar
     5    10     6    2
     6    21    24   ar
     7    19    13   am
     8    14    13    2
     9    13    12    1
    10     6     7    1
    11     6    11   am
    12     2     1    2
    13     8     7    1
    14     8     1    1
    15     8     9    1
    16    12    11    1
    17    12    15    1
    18     1     3    1
    19    15    17    1
    20    15    16    1
    21     3     4    1
    22    16    18    1
    23     4     5    1
