@<TRIPOS>MOLECULE
2dcb_76V_A_1.pdb
 27 26 0 0 0
SMALL
GASTEIGER

@<TRIPOS>ATOM
      1  C10       15.3620   19.0790   -4.9420 C.3   760  76V760      0.2086
      2  C11       15.5910   20.5390   -4.5740 C.3   760  76V760      0.0513
      3  C9        14.1500   18.7090   -7.0500 C.2   760  76V760      0.3482
      4  O2        15.1580   18.6120   -7.7400 O.2   760  76V760     -0.2473
      5  O3        14.1110   18.9750   -5.6800 O.3   760  76V760     -0.4468
      6  C3        11.7910   19.6960   -7.2660 C.3   760  76V760      0.1312
      7  C2        12.7440   18.5480   -7.6610 C.3   760  76V760      0.2587
      8  O1        12.1430   17.3110   -7.2370 O.3   760  76V760     -0.2105
      9  C4        10.3930   19.6080   -7.8610 C.2   760  76V760      0.2449
     10  O4        10.2480   19.6470   -9.0910 O.2   760  76V760     -0.2732
     11  N1         9.3750   19.4960   -6.9960 N.am  760  76V760     -0.1977
     12  C5         8.2070   18.5880   -7.2380 C.3   760  76V760      0.1726
     13  C6         7.1540   19.3780   -8.0900 C.2   760  76V760      0.2617
     14  O5         7.3480   20.5480   -8.4340 O.2   760  76V760     -0.2715
     15  C12        7.6410   18.1000   -5.8400 C.3   760  76V760      0.0290
     16  C14        7.1430   19.2630   -4.9140 C.3   760  76V760      0.0022
     17  C13        8.7130   17.3040   -5.0310 C.3   760  76V760      0.0023
     18  C15        5.6770   19.1630   -4.4610 C.3   760  76V760      0.0001
     19  N2         6.0370   18.7090   -8.4270 N.am  760  76V760     -0.1942
     20  C7         5.0320   19.2420   -9.3840 C.3   760  76V760      0.1977
     21  C8         3.8440   19.7360   -8.5160 C.2   760  76V760      0.3842
     22  O7         3.8230   19.6520   -7.2990 O.co2 760  76V760     -0.2437
     23  C16        4.6840   18.0960  -10.4300 C.3   760  76V760      0.0311
     24  C18        5.9260   17.6350  -11.2510 C.3   760  76V760      0.0023
     25  C17        3.6320   18.5320  -11.4790 C.3   760  76V760      0.0023
     26  C19        6.1290   16.1070  -11.3460 C.3   760  76V760      0.0001
     27  O6         2.8260   20.2850   -9.2240 O.co2 760  76V760     -0.2437
@<TRIPOS>BOND
     1    25    23    1
     2    26    24    1
     3    24    23    1
     4    23    20    1
     5    20    21    1
     6    20    19    1
     7    27    21   ar
     8    10     9    2
     9    21    22   ar
    10    14    13    2
    11    19    13   am
    12    13    12    1
    13     9     6    1
    14     9    11   am
    15     4     3    2
    16     7     6    1
    17     7     8    1
    18     7     3    1
    19    12    11    1
    20    12    15    1
    21     3     5    1
    22    15    17    1
    23    15    16    1
    24     5     1    1
    25     1     2    1
    26    16    18    1
