@<TRIPOS>MOLECULE
2dcc_77B_A_1.pdb
 38 40 0 0 0
SMALL
GASTEIGER

@<TRIPOS>ATOM
      1  C14       21.6720   15.3090   -1.3240 C.ar  770  77B770     -0.0002
      2  C13       21.6550   16.5340   -0.5630 C.ar  770  77B770     -0.0000
      3  C12       20.4040   17.0690   -0.0760 C.ar  770  77B770     -0.0002
      4  C11       19.1690   16.3820   -0.3480 C.ar  770  77B770     -0.0007
      5  C10       19.1800   15.1560   -1.1110 C.ar  770  77B770      0.0213
      6  C15       20.4360   14.6180   -1.6000 C.ar  770  77B770     -0.0007
      7  C20        6.5670   17.1500  -10.6770 C.ar  770  77B770     -0.0003
      8  C19        6.8750   18.3210   -9.8860 C.ar  770  77B770     -0.0026
      9  C18        7.6800   18.2060   -8.6860 C.ar  770  77B770     -0.0006
     10  C17        8.0120   19.4550   -7.8400 C.3   770  77B770      0.1415
     11  N3         9.3820   19.4760   -7.2560 N.am  770  77B770     -0.2005
     12  C16       10.5300   19.6170   -7.9480 C.2   770  77B770      0.2448
     13  C2        11.8430   19.5890   -7.1340 C.3   770  77B770      0.1292
     14  O1        11.9240   17.2410   -6.9310 O.3   770  77B770     -0.2127
     15  C3        12.6240   18.3350   -7.5450 C.3   770  77B770      0.2381
     16  C4        14.1040   18.3430   -7.1130 C.2   770  77B770      0.2727
     17  O4        14.9760   18.8490   -7.8220 O.2   770  77B770     -0.2706
     18  O2        10.5750   19.7440   -9.1750 O.2   770  77B770     -0.2732
     19  C23        8.1740   16.8990   -8.2870 C.ar  770  77B770     -0.0026
     20  C22        7.8660   15.7290   -9.0810 C.ar  770  77B770     -0.0003
     21  C21        7.0650   15.8590  -10.2710 C.ar  770  77B770     -0.0000
     22  N1        14.3300   17.7500   -5.9290 N.am  770  77B770     -0.1957
     23  C5        15.5630   17.6080   -5.3200 C.3   770  77B770      0.1712
     24  C6        15.5600   16.0840   -4.8310 C.2   770  77B770      0.2458
     25  O5        14.6280   15.7820   -4.0790 O.2   770  77B770     -0.2730
     26  C24       15.9130   18.5810   -4.0860 C.3   770  77B770      0.0289
     27  C26       15.9060   20.0890   -4.5350 C.3   770  77B770      0.0022
     28  C25       17.3460   18.2890   -3.4990 C.3   770  77B770      0.0023
     29  C27       16.2050   21.1350   -3.4670 C.3   770  77B770      0.0001
     30  N2        16.5050   15.0900   -5.1910 N.am  770  77B770     -0.2700
     31  C7        16.4900   13.6230   -4.7300 C.3   770  77B770      0.1747
     32  C8        16.6810   13.4900   -3.3760 C.2   770  77B770      0.3355
     33  O7        17.5600   14.4290   -2.8250 O.3   770  77B770     -0.4424
     34  C9        17.8780   14.4330   -1.4020 C.3   770  77B770      0.2351
     35  O6        16.0900   12.5890   -2.7560 O.2   770  77B770     -0.2483
     36  C30       17.4940   12.9940   -5.7360 C.3   770  77B770      0.0331
     37  C29       18.4240   14.0970   -6.2510 C.3   770  77B770      0.0238
     38  C28       17.6520   15.4020   -6.1030 C.3   770  77B770      0.0940
@<TRIPOS>BOND
     1     7    21   ar
     2     7     8   ar
     3    21    20   ar
     4     8     9   ar
     5    18    12    2
     6    20    19   ar
     7     9    19   ar
     8     9    10    1
     9    12    11   am
    10    12    13    1
    11    10    11    1
    12    17    16    2
    13    15    13    1
    14    15    16    1
    15    15    14    1
    16    16    22   am
    17    37    38    1
    18    37    36    1
    19    38    30    1
    20    22    23    1
    21    36    31    1
    22    23    24    1
    23    23    26    1
    24    30    24   am
    25    30    31    1
    26    24    25    2
    27    31    32    1
    28    27    26    1
    29    27    29    1
    30    26    28    1
    31    32    33    1
    32    32    35    2
    33    33    34    1
    34     6     1   ar
    35     6     5   ar
    36    34     5    1
    37     1     2   ar
    38     5     4   ar
    39     2     3   ar
    40     4     3   ar
