@<TRIPOS>MOLECULE
2dcd_78A_A_1.pdb
 31 32 0 0 0
SMALL
GASTEIGER

@<TRIPOS>ATOM
      1  N3        14.1550   17.8150   -5.9020 N.am  780  78A780     -0.1984
      2  C10       15.4870   17.5560   -5.3130 C.3   780  78A780      0.1415
      3  C11       15.9980   18.6910   -4.4270 C.ar  780  78A780     -0.0006
      4  C16       15.0870   19.6270   -3.8590 C.ar  780  78A780     -0.0026
      5  C15       15.5630   20.6760   -3.0390 C.ar  780  78A780     -0.0003
      6  C14       16.9490   20.7930   -2.7840 C.ar  780  78A780     -0.0000
      7  C13       17.8660   19.8700   -3.3430 C.ar  780  78A780     -0.0003
      8  C12       17.3870   18.8200   -4.1630 C.ar  780  78A780     -0.0026
      9  C2        12.5340   18.1760   -7.7090 C.3   780  78A780      0.2381
     10  O1        11.7770   17.1430   -7.0610 O.3   780  78A780     -0.2127
     11  C3        11.7650   19.5010   -7.5340 C.3   780  78A780      0.1292
     12  C4        10.3410   19.4740   -8.0880 C.2   780  78A780      0.2449
     13  O4        10.1500   19.6730   -9.2900 O.2   780  78A780     -0.2732
     14  N1         9.3660   19.2210   -7.2130 N.am  780  78A780     -0.1978
     15  C5         8.1320   18.4270   -7.5430 C.3   780  78A780      0.1712
     16  C6         7.1210   19.3530   -8.3370 C.2   780  78A780      0.2458
     17  O5         7.0730   20.5530   -8.0120 O.2   780  78A780     -0.2730
     18  C17        7.4740   17.8360   -6.2240 C.3   780  78A780      0.0289
     19  C19        7.2510   18.8890   -5.0830 C.3   780  78A780      0.0022
     20  C18        8.3170   16.6680   -5.6230 C.3   780  78A780      0.0023
     21  C20        5.8450   18.8950   -4.4750 C.3   780  78A780      0.0001
     22  N2         6.2420   18.8880   -9.3000 N.am  780  78A780     -0.2699
     23  C7         5.2020   19.7040   -9.9670 C.3   780  78A780      0.1791
     24  C8         3.9270   20.0450   -9.1170 C.2   780  78A780      0.3825
     25  O6         2.9930   20.7100   -9.5460 O.co2 780  78A780     -0.2438
     26  C23        4.9220   18.8870  -11.2380 C.3   780  78A780      0.0332
     27  C22        5.1440   17.4320  -10.8270 C.3   780  78A780      0.0238
     28  C21        6.2720   17.4890   -9.7960 C.3   780  78A780      0.0940
     29  O7         3.9450   19.5390   -7.8560 O.co2 780  78A780     -0.2438
     30  C9        13.9680   18.2730   -7.1420 C.2   780  78A780      0.2727
     31  O2        14.8710   18.7510   -7.8290 O.2   780  78A780     -0.2706
@<TRIPOS>BOND
     1    26    27    1
     2    26    23    1
     3    27    28    1
     4    23    22    1
     5    23    24    1
     6    28    22    1
     7    25    24   ar
     8    22    16   am
     9    13    12    2
    10    24    29   ar
    11    16    17    2
    12    16    15    1
    13    12    11    1
    14    12    14   am
    15    31    30    2
    16     9    11    1
    17     9    30    1
    18     9    10    1
    19    15    14    1
    20    15    18    1
    21    30     1   am
    22    18    20    1
    23    18    19    1
    24     1     2    1
    25     2     3    1
    26    19    21    1
    27     3     8   ar
    28     3     4   ar
    29     8     7   ar
    30     4     5   ar
    31     7     6   ar
    32     5     6   ar
