@<TRIPOS>MOLECULE
2dcl_AMP_A_1.pdb
 23 25 0 0 0
SMALL
GASTEIGER

@<TRIPOS>ATOM
      1  P          2.4510  -48.1760  -12.5410 P.3   901  AMP901      0.5327
      2  O1P        2.4400  -48.8160  -13.9480 O.2   901  AMP901     -0.2224
      3  O2P        2.3660  -49.2560  -11.5420 O.3   901  AMP901     -0.1145
      4  O3P        1.2340  -47.2300  -12.3710 O.3   901  AMP901     -0.1145
      5  O5'        3.8100  -47.2830  -12.3240 O.3   901  AMP901     -0.2675
      6  C5'        4.1150  -46.1900  -13.1870 C.3   901  AMP901      0.1860
      7  C4'        4.6300  -44.9190  -12.4680 C.3   901  AMP901      0.1823
      8  O4'        5.6130  -44.2920  -13.3000 O.3   901  AMP901     -0.3135
      9  C3'        3.5220  -43.9010  -12.2520 C.3   901  AMP901      0.2184
     10  O3'        3.2630  -43.7060  -10.8830 O.3   901  AMP901     -0.2174
     11  C2'        3.9740  -42.6240  -12.9700 C.3   901  AMP901      0.2570
     12  O2'        4.1970  -41.5440  -12.0930 O.3   901  AMP901     -0.2130
     13  C1'        5.2390  -42.9730  -13.7360 C.3   901  AMP901      0.3186
     14  N9         5.0140  -43.0290  -15.2330 N.pl3 901  AMP901     -0.1439
     15  C8         4.9470  -44.1680  -16.0020 C.3   901  AMP901      0.3377
     16  N7         4.7310  -43.8510  -17.2970 N.2   901  AMP901     -0.2095
     17  C5         4.6540  -42.5120  -17.3850 C.2   901  AMP901      0.2526
     18  C6         4.4440  -41.6890  -18.5030 C.2   901  AMP901      0.4393
     19  N6         4.2760  -42.2220  -19.7160 N.pl3 901  AMP901      0.2180
     20  N1         4.4160  -40.2970  -18.2840 N.2   901  AMP901      0.0021
     21  C2         4.5920  -39.7450  -17.0150 C.3   901  AMP901      0.5254
     22  N3         4.8000  -40.5800  -15.9100 N.2   901  AMP901     -0.0055
     23  C4         4.8320  -41.9540  -16.1040 C.2   901  AMP901      0.3518
@<TRIPOS>BOND
     1    19    18    1
     2    18    20    2
     3    18    17    1
     4    20    21    1
     5    17    16    2
     6    17    23    1
     7    16    15    1
     8    21    22    1
     9    23    22    2
    10    23    14    1
    11    15    14    1
    12    14    13    1
    13     2     1    2
    14    13     8    1
    15    13    11    1
    16     8     7    1
    17     6     7    1
    18     6     5    1
    19    11     9    1
    20    11    12    1
    21     1     4    1
    22     1     5    1
    23     1     3    1
    24     7     9    1
    25     9    10    1
