@<TRIPOS>MOLECULE
2dcm_GA0_A_1.pdb
 17 17 0 0 0
SMALL
GASTEIGER

@<TRIPOS>ATOM
      1  N1        -9.8950   48.5040   64.6570 N.3   801  GA0801     -0.1210
      2  CA1       -9.2570   47.7390   65.7010 C.3   801  GA0801      0.1956
      3  C1        -8.7700   46.4400   65.1000 C.2   801  GA0801      0.2612
      4  O1        -9.5610   45.6570   64.5480 O.2   801  GA0801     -0.2717
      5  N2        -7.4610   46.1970   65.1900 N.am  801  GA0801     -0.1966
      6  CA2       -6.8910   44.9690   64.6260 C.3   801  GA0801      0.1713
      7  CB2       -5.4870   45.2240   63.9900 C.3   801  GA0801      0.0333
      8  C2        -6.8080   43.9000   65.7100 C.2   801  GA0801      0.2458
      9  O2        -6.5270   44.2290   66.8910 O.2   801  GA0801     -0.2730
     10  N3        -7.0580   42.5910   65.3200 N.am  801  GA0801     -0.2715
     11  CD3       -7.4070   42.1070   63.9380 C.3   801  GA0801      0.0939
     12  CA3       -7.0150   41.4310   66.2540 C.3   801  GA0801      0.1552
     13  CB3       -7.2990   40.2290   65.3060 C.3   801  GA0801      0.0311
     14  CG3       -8.1580   40.8150   64.2170 C.3   801  GA0801      0.0237
     15  C3        -5.6230   41.3170   67.0060 C.2   801  GA0801      0.2788
     16  O3        -5.6360   41.1060   68.2430 O.2   801  GA0801     -0.2699
     17  NN        -4.5870   41.4570   66.3780 N.am  801  GA0801     -0.0863
@<TRIPOS>BOND
     1    11    14    1
     2    11    10    1
     3     7     6    1
     4    14    13    1
     5     4     3    2
     6     6     5    1
     7     6     8    1
     8     1     2    1
     9     3     5   am
    10     3     2    1
    11    13    12    1
    12    10     8   am
    13    10    12    1
    14     8     9    2
    15    12    15    1
    16    17    15   am
    17    15    16    2
