@<TRIPOS>MOLECULE
2dcn_CKP_A_1.pdb
 17 17 0 0 0
SMALL
GASTEIGER

@<TRIPOS>ATOM
      1  O3P       17.2740  -19.7380   23.3820 O.3   2001  CKP2001    -0.1145
      2  P         17.1800  -19.1320   21.9890 P.3   2001  CKP2001     0.5327
      3  O1P       16.9090  -20.1100   20.8850 O.2   2001  CKP2001    -0.2224
      4  O2P       18.2570  -18.1340   21.6370 O.3   2001  CKP2001    -0.1145
      5  O1        15.7680  -18.3620   22.1360 O.3   2001  CKP2001    -0.2675
      6  C1        15.4550  -17.2380   21.3350 C.3   2001  CKP2001     0.1859
      7  C2        13.9670  -16.9940   21.3460 C.3   2001  CKP2001     0.1813
      8  O2        11.1910  -16.4170   22.3950 O.3   2001  CKP2001    -0.1802
      9  C3        13.7760  -15.5890   20.8020 C.3   2001  CKP2001     0.2172
     10  O3        12.9310  -15.6270   19.6530 O.3   2001  CKP2001    -0.2175
     11  C4        13.1850  -14.9190   22.0270 C.3   2001  CKP2001     0.2493
     12  O4        12.4570  -13.7230   21.8370 O.3   2001  CKP2001    -0.2143
     13  C5        12.4760  -15.9840   22.8620 C.3   2001  CKP2001     0.3436
     14  O5        13.3900  -17.0640   22.6840 O.3   2001  CKP2001    -0.3194
     15  C6        12.3120  -15.3750   24.2470 C.2   2001  CKP2001     0.4205
     16  O6B       11.1450  -15.0970   24.6080 O.co2 2001  CKP2001    -0.2400
     17  O6A       13.3070  -15.1060   24.9650 O.co2 2001  CKP2001    -0.2400
@<TRIPOS>BOND
     1    10     9    1
     2     9     7    1
     3     9    11    1
     4     3     2    2
     5     6     7    1
     6     6     5    1
     7     7    14    1
     8     4     2    1
     9    12    11    1
    10     2     5    1
    11     2     1    1
    12    11    13    1
    13     8    13    1
    14    14    13    1
    15    13    15    1
    16    15    16   ar
    17    15    17   ar
