@<TRIPOS>MOLECULE
2dcn_ADP_A_1.pdb
 27 29 0 0 0
SMALL
GASTEIGER

@<TRIPOS>ATOM
      1  PB        20.7900  -21.9280   24.5190 P.3   3001  ADP3001     0.5373
      2  O1B       21.0490  -22.8990   25.6510 O.3   3001  ADP3001    -0.1143
      3  O2B       19.3950  -22.0140   23.9330 O.2   3001  ADP3001    -0.2221
      4  O3B       21.1900  -20.4770   24.7040 O.3   3001  ADP3001    -0.1143
      5  PA        23.3900  -22.4350   23.4110 P.3   3001  ADP3001     0.2231
      6  O1A       23.9860  -23.6550   24.0830 O.3   3001  ADP3001    -0.4370
      7  O2A       23.8770  -21.0580   23.7800 O.2   3001  ADP3001    -0.5169
      8  O3A       21.7860  -22.5030   23.3920 O.3   3001  ADP3001    -0.2261
      9  O5'       23.6310  -22.6650   21.8390 O.3   3001  ADP3001    -0.3111
     10  C5'       23.0930  -23.8310   21.2500 C.3   3001  ADP3001     0.1813
     11  C4'       24.0310  -24.3210   20.1690 C.3   3001  ADP3001     0.1821
     12  O4'       24.2590  -23.3010   19.1790 O.3   3001  ADP3001    -0.3135
     13  C3'       25.3980  -24.7370   20.6950 C.3   3001  ADP3001     0.2184
     14  O3'       25.4150  -26.1040   21.1300 O.3   3001  ADP3001    -0.2174
     15  C2'       26.2820  -24.4940   19.4930 C.3   3001  ADP3001     0.2570
     16  O2'       26.2420  -25.6310   18.6240 O.3   3001  ADP3001    -0.2130
     17  C1'       25.6300  -23.3290   18.7670 C.3   3001  ADP3001     0.3186
     18  N9        26.3050  -22.0730   19.1700 N.pl3 3001  ADP3001    -0.1439
     19  C8        25.8800  -21.2060   20.1160 C.3   3001  ADP3001     0.3377
     20  N7        26.7370  -20.1630   20.2320 N.2   3001  ADP3001    -0.2095
     21  C5        27.7360  -20.3540   19.3430 C.2   3001  ADP3001     0.2526
     22  C6        28.9690  -19.6260   18.9340 C.2   3001  ADP3001     0.4393
     23  N6        29.3160  -18.4540   19.5340 N.pl3 3001  ADP3001     0.2180
     24  N1        29.7370  -20.1710   17.9560 N.2   3001  ADP3001     0.0021
     25  C2        29.4160  -21.3380   17.3580 C.3   3001  ADP3001     0.5254
     26  N3        28.3200  -22.0520   17.6590 N.2   3001  ADP3001    -0.0055
     27  C4        27.4540  -21.6150   18.6390 C.2   3001  ADP3001     0.3518
@<TRIPOS>BOND
     1    25    26    1
     2    25    24    1
     3    26    27    2
     4    24    22    2
     5    16    15    1
     6    27    18    1
     7    27    21    1
     8    17    18    1
     9    17    12    1
    10    17    15    1
    11    22    21    1
    12    22    23    1
    13    18    19    1
    14    12    11    1
    15    21    20    2
    16    15    13    1
    17    19    20    1
    18    11    13    1
    19    11    10    1
    20    13    14    1
    21    10     9    1
    22     9     5    1
    23     8     5    1
    24     8     1    1
    25     5     7    2
    26     5     6    1
    27     3     1    2
    28     1     4    1
    29     1     2    1
