@<TRIPOS>MOLECULE
2dcu_GDP_A_1.pdb
 28 30 0 0 0
SMALL
GASTEIGER

@<TRIPOS>ATOM
      1  PB        38.4350   47.9010   -7.7560 P.3   2001  GDP2001     0.5373
      2  O1B       39.6900   47.6990   -8.4040 O.2   2001  GDP2001    -0.2221
      3  O2B       37.3990   46.6770   -8.1900 O.3   2001  GDP2001    -0.1143
      4  O3B       38.8300   47.9750   -6.2590 O.3   2001  GDP2001    -0.1143
      5  O3A       38.0170   49.1620   -8.3790 O.3   2001  GDP2001    -0.2261
      6  PA        38.1820   50.5980   -7.8730 P.3   2001  GDP2001     0.2231
      7  O1A       37.5570   51.2740   -6.7080 O.3   2001  GDP2001    -0.4370
      8  O2A       39.7540   50.8570   -7.8050 O.2   2001  GDP2001    -0.5169
      9  O5'       37.6800   51.1130   -9.3390 O.3   2001  GDP2001    -0.3111
     10  C5'       38.3850   52.2800   -9.2880 C.3   2001  GDP2001     0.1813
     11  C4'       38.4720   53.0280  -10.5150 C.3   2001  GDP2001     0.1799
     12  O4'       37.1910   53.0780  -11.2160 O.3   2001  GDP2001    -0.3326
     13  C3'       38.7800   54.2830   -9.8800 C.3   2001  GDP2001     0.2158
     14  O3'       39.6080   55.1800  -10.6230 O.3   2001  GDP2001    -0.2175
     15  C2'       37.3590   54.7680   -9.5640 C.3   2001  GDP2001     0.2310
     16  O2'       37.2490   56.0750   -9.0730 O.3   2001  GDP2001    -0.2158
     17  C1'       36.6770   54.4120  -10.9230 C.3   2001  GDP2001     0.2293
     18  N9        35.2310   54.3510  -10.7790 N.pl3 2001  GDP2001    -0.2354
     19  C8        34.4820   53.6010   -9.8820 C.3   2001  GDP2001     0.2246
     20  N7        33.1940   53.8150  -10.0530 N.2   2001  GDP2001    -0.2322
     21  C5        33.0880   54.7100  -11.0820 C.2   2001  GDP2001     0.2182
     22  C6        31.9540   55.3290  -11.6920 C.1   2001  GDP2001     0.2372
     23  O6        30.7990   55.1310  -11.3950 O.2   2001  GDP2001    -0.2069
     24  N1        32.2390   56.2200  -12.7340 N.2   2001  GDP2001    -0.2485
     25  C2        33.5250   56.4890  -13.1170 C.1   2001  GDP2001     0.2531
     26  N2        33.7670   57.3730  -14.1370 N.pl3 2001  GDP2001    -0.0226
     27  N3        34.5550   55.9170  -12.5330 N.2   2001  GDP2001    -0.3074
     28  C4        34.3690   55.0440  -11.5150 C.2   2001  GDP2001     0.2300
@<TRIPOS>BOND
     1    26    25    1
     2    25    24    2
     3    25    27    2
     4    24    22    2
     5    27    28    2
     6    22    23    2
     7    22    21    1
     8    28    21    1
     9    28    18    1
    10    12    17    1
    11    12    11    1
    12    21    20    2
    13    17    18    1
    14    17    15    1
    15    18    19    1
    16    14    13    1
    17    11    13    1
    18    11    10    1
    19    20    19    1
    20    13    15    1
    21    15    16    1
    22     9    10    1
    23     9     6    1
    24     2     1    2
    25     5     6    1
    26     5     1    1
    27     3     1    1
    28     6     8    2
    29     6     7    1
    30     1     4    1
