@<TRIPOS>MOLECULE
2dd4_FRU_B_1.pdb
 12 12 0 0 0
SMALL
GASTEIGER

@<TRIPOS>ATOM
      1  C1        89.7580  119.3740   25.9310 C.3   3002  FRU3002     0.2434
      2  C2        90.5540  120.6640   26.3560 C.3   3002  FRU3002     0.2807
      3  C3        91.6390  120.4250   27.3930 C.3   3002  FRU3002     0.2409
      4  C4        91.9090  121.8240   27.9760 C.3   3002  FRU3002     0.2168
      5  C5        90.5080  122.4200   27.9000 C.3   3002  FRU3002     0.1836
      6  C6        90.5670  123.7860   27.1720 C.3   3002  FRU3002     0.2142
      7  O1        89.2790  118.6140   27.0680 O.3   3002  FRU3002    -0.2148
      8  O2        90.9340  121.2540   25.1280 O.3   3002  FRU3002    -0.1896
      9  O3        92.8870  119.7460   27.2780 O.3   3002  FRU3002    -0.2149
     10  O4        92.4250  121.7250   29.3000 O.3   3002  FRU3002    -0.2175
     11  O5        89.6750  121.4000   27.2030 O.3   3002  FRU3002    -0.3253
     12  O6        89.4210  123.9040   26.4130 O.3   3002  FRU3002    -0.2176
@<TRIPOS>BOND
     1     8     2    1
     2     1     2    1
     3     1     7    1
     4     2    11    1
     5     2     3    1
     6    12     6    1
     7     6     5    1
     8    11     5    1
     9     9     3    1
    10     3     4    1
    11     5     4    1
    12     4    10    1
