@<TRIPOS>MOLECULE
2ddf_INN_A_1.pdb
 29 28 0 0 0
SMALL
GASTEIGER

@<TRIPOS>ATOM
      1  C0         5.9850    9.4640   24.1220 C.3     3  INN3        0.0603
      2  C          6.7270   10.7850   24.2030 C.2     3  INN3        0.0873
      3  O          7.8230   10.8830   23.6990 O.2     3  INN3       -0.5395
      4  N          6.0920   11.7800   24.8010 N.am    3  INN3       -0.2030
      5  O4         6.6690   13.0290   24.9480 O.3     3  INN3       -0.4026
      6  C4         5.9330    7.1070   24.7930 C.2     3  INN3        0.2417
      7  O1         4.7530    7.0060   25.0140 O.2     3  INN3       -0.2733
      8  CA         6.6540    8.4200   25.0290 C.3     3  INN3        0.0845
      9  CB         6.5220    8.8400   26.4960 C.3     3  INN3        0.0095
     10  C1         7.2290    7.8710   27.4360 C.3     3  INN3        0.0005
     11  C2         6.9540    8.2940   28.8890 C.3     3  INN3        0.0000
     12  C3         8.7250    7.8040   27.1640 C.3     3  INN3        0.0000
     13  N1         6.6900    6.1150   24.3260 N.am    3  INN3       -0.1978
     14  C5         6.0960    4.8380   23.9740 C.3     3  INN3        0.1726
     15  C6         6.2860    4.5320   22.4680 C.3     3  INN3        0.0270
     16  C7         7.7630    4.5700   22.0520 C.3     3  INN3        0.0022
     17  C8         5.5240    5.5360   21.5980 C.3     3  INN3        0.0022
     18  C9         5.8050    3.1130   22.1060 C.3     3  INN3        0.0022
     19  C10        6.5750    3.7070   24.8370 C.2     3  INN3        0.2616
     20  O2         7.7780    3.6270   25.0580 O.2     3  INN3       -0.2715
     21  N2         5.6560    2.8510   25.2970 N.am    3  INN3       -0.1963
     22  C11        6.0000    1.6660   26.0770 C.3     3  INN3        0.1728
     23  C13        5.7250    0.4590   25.2010 C.2     3  INN3        0.2613
     24  O3         4.7490    0.4090   24.4670 O.2     3  INN3       -0.2715
     25  C12        5.2280    1.4980   27.3760 C.3     3  INN3        0.0334
     26  N4         5.3400   -1.2050   22.2540 N.3     3  INN3       -0.1294
     27  C15        6.6190   -1.4500   22.9170 C.3     3  INN3        0.1327
     28  C14        6.3620   -1.7420   24.3930 C.3     3  INN3        0.1356
     29  N3         6.5750   -0.5610   25.2380 N.am    3  INN3       -0.2024
@<TRIPOS>BOND
     1    17    15    1
     2    16    15    1
     3    18    15    1
     4    26    27    1
     5    15    14    1
     6    27    28    1
     7     3     2    2
     8    14    13    1
     9    14    19    1
    10     1     2    1
    11     1     8    1
    12     2     4   am
    13    13     6   am
    14    28    29    1
    15    24    23    2
    16     6     7    2
    17     6     8    1
    18     4     5    1
    19    19    20    2
    20    19    21   am
    21     8     9    1
    22    23    29   am
    23    23    22    1
    24    21    22    1
    25    22    25    1
    26     9    10    1
    27    12    10    1
    28    10    11    1
