@<TRIPOS>MOLECULE
2ddh_HXD_A_1.pdb
 15 14 0 0 0
SMALL
GASTEIGER

@<TRIPOS>ATOM
      1  C11       28.2190    6.9930   63.0200 C.3   900  HXD900      0.0000
      2  C10       28.3160    6.0790   61.8000 C.3   900  HXD900      0.0000
      3  C12       28.9910    6.3760   64.1900 C.3   900  HXD900      0.0000
      4  C9        27.0100    6.0420   60.9990 C.3   900  HXD900      0.0000
      5  C8        25.8680    5.3540   61.7530 C.3   900  HXD900      0.0000
      6  C7        25.8550    3.8220   61.6840 C.3   900  HXD900      0.0000
      7  C6        26.8860    3.1080   62.5630 C.3   900  HXD900      0.0001
      8  C5        27.0380    1.6340   62.1720 C.3   900  HXD900      0.0026
      9  C4        27.5230    1.4980   60.7220 C.3   900  HXD900      0.0335
     10  C3        28.0260    0.1210   60.2840 C.3   900  HXD900      0.1633
     11  O8        28.0010    0.0590   58.8520 O.3   900  HXD900     -0.2225
     12  C2        29.4640   -0.0650   60.7730 C.3   900  HXD900      0.1468
     13  C1        30.1230   -1.3030   60.1640 C.2   900  HXD900      0.3674
     14  O1        30.4750   -2.2060   60.9520 O.co2 900  HXD900     -0.2456
     15  O         30.2580   -1.3220   58.9210 O.co2 900  HXD900     -0.2456
@<TRIPOS>BOND
     1    11    10    1
     2    15    13   ar
     3    13    12    1
     4    13    14   ar
     5    10     9    1
     6    10    12    1
     7     9     8    1
     8     4     5    1
     9     4     2    1
    10     6     5    1
    11     6     7    1
    12     2     1    1
    13     8     7    1
    14     1     3    1
