@<TRIPOS>MOLECULE
2ddo_ATP_A_1.pdb
 31 33 0 0 0
SMALL
GASTEIGER

@<TRIPOS>ATOM
      1  PG        -6.7470    8.5830   46.2380 P.3   285  ATP285      0.5373
      2  O1G       -5.6860    9.0910   45.3220 O.2   285  ATP285     -0.2221
      3  O2G       -6.4380    8.4310   47.6640 O.3   285  ATP285     -0.1143
      4  O3G       -7.3460    7.3960   45.5730 O.3   285  ATP285     -0.1143
      5  PB        -8.0820   11.1950   45.3940 P.3   285  ATP285      0.2277
      6  O1B       -8.5410   11.1220   43.9730 O.2   285  ATP285     -0.5168
      7  O2B       -8.7950   12.0790   46.3360 O.3   285  ATP285     -0.4368
      8  O3B       -7.9660    9.6630   46.0330 O.3   285  ATP285     -0.2258
      9  PA        -5.7280   12.7320   45.6370 P.3   285  ATP285      0.2189
     10  O1A       -4.9440   12.8970   44.4100 O.2   285  ATP285     -0.5170
     11  O2A       -6.6670   13.8330   46.0690 O.3   285  ATP285     -0.4371
     12  O3A       -6.4910   11.3570   45.5380 O.3   285  ATP285     -0.2700
     13  O5'       -4.8270   12.5080   46.9180 O.3   285  ATP285     -0.3112
     14  C5'       -5.2860   12.4010   48.2540 C.3   285  ATP285      0.1813
     15  C4'       -4.7750   13.6150   49.0610 C.3   285  ATP285      0.1821
     16  O4'       -3.7730   14.4550   48.4740 O.3   285  ATP285     -0.3135
     17  C3'       -5.9860   14.6470   49.1950 C.3   285  ATP285      0.2184
     18  O3'       -6.9660   14.2930   49.6610 O.3   285  ATP285     -0.2174
     19  C2'       -5.1980   15.7270   49.8890 C.3   285  ATP285      0.2570
     20  O2'       -4.8700   15.3810   51.2380 O.3   285  ATP285     -0.2130
     21  C1'       -3.9700   15.8410   48.9390 C.3   285  ATP285      0.3186
     22  N9        -4.1880   16.6890   47.6890 N.pl3 285  ATP285     -0.1439
     23  C8        -4.2330   16.2890   46.3600 C.3   285  ATP285      0.3377
     24  N7        -4.4320   17.2320   45.4980 N.2   285  ATP285     -0.2095
     25  C5        -4.5490   18.3470   46.2750 C.2   285  ATP285      0.2526
     26  C6        -4.7560   19.6840   45.9450 C.2   285  ATP285      0.4393
     27  N6        -4.9040   20.0430   44.6710 N.pl3 285  ATP285      0.2180
     28  N1        -4.8180   20.5940   46.9710 N.2   285  ATP285      0.0021
     29  C2        -4.6620   20.1990   48.2480 C.3   285  ATP285      0.5254
     30  N3        -4.4530   18.9410   48.6570 N.2   285  ATP285     -0.0055
     31  C4        -4.3910   18.0540   47.6160 C.2   285  ATP285      0.3518
@<TRIPOS>BOND
     1     6     5    2
     2    10     9    2
     3    27    26    1
     4     2     1    2
     5     5    12    1
     6     5     8    1
     7     5     7    1
     8    24    25    2
     9    24    23    1
    10    12     9    1
    11     4     1    1
    12     9    11    1
    13     9    13    1
    14    26    25    1
    15    26    28    2
    16     8     1    1
    17     1     3    1
    18    25    31    1
    19    23    22    1
    20    13    14    1
    21    28    29    1
    22    31    22    1
    23    31    30    2
    24    22    21    1
    25    29    30    1
    26    14    15    1
    27    16    21    1
    28    16    15    1
    29    21    19    1
    30    15    17    1
    31    17    18    1
    32    17    19    1
    33    19    20    1
