@<TRIPOS>MOLECULE
2ddq_HRB_L_1.pdb
 25 26 0 0 0
SMALL
GASTEIGER

@<TRIPOS>ATOM
      1  CP5       46.4900   -1.0810    5.7860 C.3   502  HRB502      0.0000
      2  CP4       47.5570   -1.8020    4.9590 C.3   502  HRB502      0.0000
      3  CP3       48.3320   -0.8030    4.1010 C.3   502  HRB502      0.0001
      4  CP2       49.4710   -1.4940    3.3470 C.3   502  HRB502      0.0025
      5  CP1       50.2570   -0.4790    2.5160 C.3   502  HRB502      0.0310
      6  C5        51.4130   -1.1510    1.7680 C.3   502  HRB502      0.1326
      7  O1        50.9410   -2.1240    0.8140 O.3   502  HRB502     -0.3296
      8  C2        51.2330   -1.6170   -0.5030 C.3   502  HRB502      0.2703
      9  O2        50.1960   -0.7310   -0.9450 O.3   502  HRB502     -0.1899
     10  C3        52.5450   -0.8590   -0.2900 C.3   502  HRB502      0.0828
     11  C4        52.1370   -0.0750    0.9560 C.3   502  HRB502      0.0919
     12  NE2       53.3020    0.4920    1.6640 N.3   502  HRB502     -0.2460
     13  CD2       54.2950   -0.1820    2.2270 C.3   502  HRB502      0.1153
     14  CE1       53.5490    1.8010    1.7370 C.3   502  HRB502      0.2005
     15  ND1       54.7200    1.9290    2.3510 N.2   502  HRB502     -0.2594
     16  CG        55.1850    0.7150    2.6460 C.2   502  HRB502      0.0516
     17  CB        56.5360    0.4200    3.3050 C.3   502  HRB502      0.0756
     18  CA        57.6700    1.1770    2.6060 C.3   502  HRB502      0.2033
     19  C         58.9570    1.0750    3.4290 C.2   502  HRB502      0.3846
     20  O         59.1810    1.9980    4.2400 O.co2 502  HRB502     -0.2437
     21  OXT       59.6950    0.0830    3.2220 O.co2 502  HRB502     -0.2437
     22  N         57.8880    0.6420    1.2550 N.am  502  HRB502     -0.1952
     23  CA1       57.9880    1.4300    0.1830 C.2   502  HRB502      0.2423
     24  CA2       58.2260    0.6940   -1.1360 C.3   502  HRB502      0.0964
     25  OA1       57.9030    2.6560    0.2140 O.2   502  HRB502     -0.2733
@<TRIPOS>BOND
     1    24    23    1
     2     9     8    1
     3     8    10    1
     4     8     7    1
     5    10    11    1
     6    23    25    2
     7    23    22   am
     8     7     6    1
     9    11    12    1
    10    11     6    1
    11    22    18    1
    12    12    14    1
    13    12    13    1
    14    14    15    1
    15     6     5    1
    16    13    16    1
    17    15    16    2
    18     5     4    1
    19    18    17    1
    20    18    19    1
    21    16    17    1
    22    21    19   ar
    23     4     3    1
    24    19    20   ar
    25     3     2    1
    26     2     1    1
