@<TRIPOS>MOLECULE
2ddw_PXL_A_1.pdb
 12 12 0 0 0
SMALL
GASTEIGER

@<TRIPOS>ATOM
      1  OP4       -2.3580    8.3340   41.3800 O.3   1003  PXL1003    -0.2151
      2  C5A       -2.8820    7.2110   40.6690 C.3   1003  PXL1003     0.2103
      3  C5        -1.9510    6.8330   39.5090 C.ar  1003  PXL1003     0.0360
      4  C6        -0.6150    6.3770   39.8070 C.ar  1003  PXL1003     0.0970
      5  N1         0.2560    6.0250   38.7430 N.ar  1003  PXL1003    -0.2452
      6  C2        -0.1820    6.0430   37.3910 C.ar  1003  PXL1003     0.0982
      7  C3        -1.5320    6.4640   37.0560 C.ar  1003  PXL1003     0.2120
      8  C4        -2.4210    6.9030   38.1500 C.ar  1003  PXL1003     0.0823
      9  C4A       -3.8700    7.4350   37.9040 C.2   1003  PXL1003     0.2372
     10  O4A       -4.2840    7.5120   36.6970 O.2   1003  PXL1003    -0.2830
     11  O3        -1.9450    6.4880   35.7290 O.3   1003  PXL1003    -0.2852
     12  C2A        0.8100    5.6470   36.2980 C.3   1003  PXL1003     0.0555
@<TRIPOS>BOND
     1    11     7    1
     2    12     6    1
     3    10     9    2
     4     7     6   ar
     5     7     8   ar
     6     6     5   ar
     7     9     8    1
     8     8     3   ar
     9     5     4   ar
    10     3     4   ar
    11     3     2    1
    12     2     1    1
