@<TRIPOS>MOLECULE
2ddy_MDW_A_1.pdb
 48 50 0 0 0
SMALL
GASTEIGER

@<TRIPOS>ATOM
      1  C3         6.5110    2.9410   11.3690 C.ar  178  MDW178     -0.0130
      2  C2         5.6950    4.0530   11.5920 C.ar  178  MDW178      0.1587
      3  O1         5.6480    4.5910   12.8420 O.3   178  MDW178     -0.5033
      4  C7         4.9020    4.5790   10.5660 C.ar  178  MDW178      0.1616
      5  O12        4.0370    5.6360   10.8330 O.3   178  MDW178     -0.4914
      6  C13        2.7770    5.7960   10.1340 C.3   178  MDW178      0.0790
      7  C6         4.9910    4.0110    9.2910 C.ar  178  MDW178     -0.0109
      8  C5         5.8100    2.9000    9.0560 C.ar  178  MDW178     -0.0129
      9  C8         5.8020    2.2740    7.6710 C.3   178  MDW178      0.1350
     10  C14        4.4270    1.7130    7.3960 C.2   178  MDW178      0.2588
     11  O15        3.9510    0.7320    8.0250 O.2   178  MDW178     -0.2716
     12  N16        3.7130    2.3910    6.4630 N.am  178  MDW178     -0.1959
     13  O17        2.4140    2.0010    6.1800 O.3   178  MDW178     -0.2951
     14  C4         6.5510    2.3430   10.1080 C.ar  178  MDW178     -0.0372
     15  C10        7.3930    1.1000    9.8850 C.3   178  MDW178     -0.0127
     16  C11        7.0260    0.3290    8.6080 C.3   178  MDW178      0.0257
     17  N9         6.8660    1.2520    7.4610 N.3   178  MDW178     -0.1599
     18  S18        8.2680    1.7130    6.6820 S.O2  178  MDW178      0.0618
     19  O40        8.1250    3.1110    6.2100 O.2   178  MDW178     -0.1528
     20  O41        9.4720    1.3660    7.4880 O.2   178  MDW178     -0.1528
     21  C19        8.1550    0.7100    5.2440 C.ar  178  MDW178      0.1057
     22  C20        7.1980    0.9940    4.2640 C.ar  178  MDW178     -0.0319
     23  C21        7.1860    0.2470    3.0840 C.ar  178  MDW178     -0.0181
     24  C22        8.1360   -0.7590    2.8890 C.ar  178  MDW178      0.1202
     25  O25        8.1900   -1.4330    1.6910 O.3   178  MDW178     -0.4951
     26  C26        9.3830   -1.2560    0.9030 C.3   178  MDW178      0.0788
     27  C23        9.0750   -1.0480    3.8840 C.ar  178  MDW178     -0.0181
     28  C24        9.0820   -0.3150    5.0660 C.ar  178  MDW178     -0.0319
     29  H28        7.0940    2.5290   12.1800 H     178  MDW178      0.0658
     30  H27        4.9860    4.1060   13.3460 H     178  MDW178      0.2923
     31  H35        2.9550    6.0090    9.0800 H     178  MDW178      0.0660
     32  H36        2.2270    6.6280   10.5760 H     178  MDW178      0.0660
     33  H37        2.1850    4.8850   10.2320 H     178  MDW178      0.0660
     34  H29        4.4070    4.4170    8.4780 H     178  MDW178      0.0659
     35  H30        5.9180    3.0760    6.9500 H     178  MDW178      0.0626
     36  H38        4.0340    3.2220    5.9880 H     178  MDW178      0.1823
     37  H39        2.5040    1.9490    5.2000 H     178  MDW178      0.2414
     38  H31        7.2810    0.4330   10.7390 H     178  MDW178      0.0326
     39  H32        8.4390    1.4040    9.8420 H     178  MDW178      0.0326
     40  H33        6.0890   -0.2010    8.7710 H     178  MDW178      0.0447
     41  H34        7.7920   -0.4090    8.3750 H     178  MDW178      0.0447
     42  H48        6.4840    1.7930    4.4060 H     178  MDW178      0.0638
     43  H42        6.4650    0.4710    2.3100 H     178  MDW178      0.0655
     44  H45        9.3380   -1.8830    0.0120 H     178  MDW178      0.0660
     45  H46       10.2570   -1.5200    1.4910 H     178  MDW178      0.0660
     46  H47        9.4600   -0.2070    0.6140 H     178  MDW178      0.0660
     47  H43        9.8130   -1.8220    3.7340 H     178  MDW178      0.0655
     48  H44        9.8150   -0.5300    5.8290 H     178  MDW178      0.0638
@<TRIPOS>BOND
     1    44    26    1
     2    46    26    1
     3    26    45    1
     4    26    25    1
     5    25    24    1
     6    43    23    1
     7    24    23   ar
     8    24    27   ar
     9    23    22   ar
    10    47    27    1
    11    27    28   ar
    12    22    42    1
    13    22    21   ar
    14    28    21   ar
    15    28    48    1
    16    37    13    1
    17    21    18    1
    18    36    12    1
    19    13    12    1
    20    19    18    2
    21    12    10   am
    22    18    17    1
    23    18    20    2
    24    35     9    1
    25    10     9    1
    26    10    11    2
    27    17     9    1
    28    17    16    1
    29     9     8    1
    30    41    16    1
    31    34     7    1
    32    16    40    1
    33    16    15    1
    34     8     7   ar
    35     8    14   ar
    36    31     6    1
    37     7     4   ar
    38    39    15    1
    39    15    14    1
    40    15    38    1
    41    14     1   ar
    42     6    33    1
    43     6    32    1
    44     6     5    1
    45     4     5    1
    46     4     2   ar
    47     1     2   ar
    48     1    29    1
    49     2     3    1
    50     3    30    1
