@<TRIPOS>MOLECULE
2de3_OBP_A_1.pdb
 16 17 0 0 0
SMALL
GASTEIGER

@<TRIPOS>ATOM
      1  CX1      123.3250   11.0970   18.4900 C.ar  1366  OBP1366     0.0014
      2  CX2      122.8970   11.8880   17.4260 C.ar  1366  OBP1366     0.0200
      3  CX3      122.8580   11.3470   16.1420 C.ar  1366  OBP1366     0.1035
      4  CX4      123.2580   10.0300   15.9360 C.ar  1366  OBP1366     0.0181
      5  CX5      123.6860    9.2460   17.0030 C.ar  1366  OBP1366     0.0013
      6  CX6      123.7200    9.7790   18.2880 C.ar  1366  OBP1366     0.0001
      7  CX7      122.5390   13.2120   17.6680 C.ar  1366  OBP1366     0.0402
      8  CX8      121.2280   13.5130   18.0320 C.ar  1366  OBP1366     0.0032
      9  CX9      120.8460   14.8260   18.2960 C.ar  1366  OBP1366     0.0002
     10  CXA      121.7830   15.8500   18.1940 C.ar  1366  OBP1366     0.0033
     11  CXB      123.0960   15.5610   17.8290 C.ar  1366  OBP1366     0.0420
     12  CXC      123.4700   14.2460   17.5660 C.ar  1366  OBP1366     0.1957
     13  OH       124.7550   13.9820   17.2040 O.3   1366  OBP1366    -0.2866
     14  SX1      122.2670   12.2760   14.7800 S.3   1366  OBP1366     0.0045
     15  OX1      123.2040   13.3150   14.4830 O.3   1366  OBP1366    -0.0734
     16  OX2      122.1150   11.3880   13.5800 O.3   1366  OBP1366    -0.0734
@<TRIPOS>BOND
     1    16    14    1
     2    15    14    1
     3    14     3    1
     4     4     3   ar
     5     4     5   ar
     6     3     2   ar
     7     5     6   ar
     8    13    12    1
     9     2     7    1
    10     2     1   ar
    11    12     7   ar
    12    12    11   ar
    13     7     8   ar
    14    11    10   ar
    15     8     9   ar
    16    10     9   ar
    17     6     1   ar
