@<TRIPOS>MOLECULE
2de4_BPS_A_1.pdb
 15 16 0 0 0
SMALL
GASTEIGER

@<TRIPOS>ATOM
      1  CX1      -31.1990   26.2030   18.3150 C.ar  1366  BPS1366     0.0013
      2  CX2      -31.5570   27.0090   17.2370 C.ar  1366  BPS1366     0.0169
      3  CX3      -31.5480   26.4860   15.9430 C.ar  1366  BPS1366     0.1034
      4  CX4      -31.1700   25.1600   15.7420 C.ar  1366  BPS1366     0.0181
      5  CX5      -30.8080   24.3600   16.8200 C.ar  1366  BPS1366     0.0013
      6  CX6      -30.8230   24.8770   18.1130 C.ar  1366  BPS1366     0.0001
      7  CX7      -31.8740   28.3440   17.4880 C.ar  1366  BPS1366     0.0012
      8  CX8      -33.1720   28.6950   17.8550 C.ar  1366  BPS1366     0.0000
      9  CX9      -33.4910   30.0250   18.1120 C.ar  1366  BPS1366     0.0000
     10  CXA      -32.5090   31.0080   18.0000 C.ar  1366  BPS1366     0.0000
     11  CXB      -31.2120   30.6600   17.6340 C.ar  1366  BPS1366     0.0000
     12  CXC      -30.8940   29.3280   17.3800 C.ar  1366  BPS1366     0.0000
     13  SX1      -32.0170   27.4540   14.5590 S.3   1366  BPS1366     0.0045
     14  OX1      -31.0350   28.4640   14.3140 O.3   1366  BPS1366    -0.0734
     15  OX2      -32.1260   26.5980   13.3300 O.3   1366  BPS1366    -0.0734
@<TRIPOS>BOND
     1    15    13    1
     2    14    13    1
     3    13     3    1
     4     4     3   ar
     5     4     5   ar
     6     3     2   ar
     7     5     6   ar
     8     2     7    1
     9     2     1   ar
    10    12     7   ar
    11    12    11   ar
    12     7     8   ar
    13    11    10   ar
    14     8     9   ar
    15    10     9   ar
    16     6     1   ar
