@<TRIPOS>MOLECULE
2de7_9CA_B_1.pdb
 13 15 0 0 0
SMALL
GASTEIGER

@<TRIPOS>ATOM
      1  C9A       -2.4640    2.4840   -5.9080 C.2   2001  9CA2001     0.1097
      2  C1        -1.1000    2.5960   -5.6540 C.3   2001  9CA2001     0.0843
      3  C2        -0.3080    3.4160   -6.4530 C.2   2001  9CA2001    -0.0229
      4  C3        -0.8780    4.1240   -7.5070 C.2   2001  9CA2001    -0.0255
      5  C4        -2.2410    4.0120   -7.7640 C.3   2001  9CA2001     0.0543
      6  C4A       -3.0310    3.1910   -6.9640 C.2   2001  9CA2001     0.0104
      7  C4B       -4.3860    2.8870   -6.9620 C.ar  2001  9CA2001     0.0281
      8  C5        -5.4510    3.2860   -7.7660 C.ar  2001  9CA2001     0.0023
      9  C6        -6.7300    2.8040   -7.5060 C.ar  2001  9CA2001     0.0002
     10  C7        -6.9420    1.9280   -6.4450 C.ar  2001  9CA2001     0.0026
     11  C8        -5.8750    1.5290   -5.6450 C.ar  2001  9CA2001     0.0320
     12  C8A       -4.5940    2.0080   -5.9040 C.ar  2001  9CA2001     0.1307
     13  N9        -3.4260    1.7920   -5.3020 N.2   2001  9CA2001    -0.4062
@<TRIPOS>BOND
     1     8     9   ar
     2     8     7   ar
     3     5     4    1
     4     5     6    1
     5     4     3    2
     6     9    10   ar
     7     6     7    2
     8     6     1    1
     9     7    12   ar
    10     3     2    1
    11    10    11   ar
    12     1     2    1
    13     1    13    2
    14    12    11   ar
    15    12    13    2
