@<TRIPOS>MOLECULE
2deb_COA_A_1.pdb
 31 33 0 0 0
SMALL
GASTEIGER

@<TRIPOS>ATOM
      1  N1A      -11.0130    2.9550   79.5860 N.2   2350  COA2350     0.0021
      2  C2A      -10.8150    4.3130   79.3830 C.3   2350  COA2350     0.5254
      3  N3A      -11.4470    4.9760   78.3360 N.2   2350  COA2350    -0.0055
      4  C4A      -12.2910    4.2760   77.5310 C.2   2350  COA2350     0.3518
      5  C5A      -12.5180    2.9090   77.7270 C.2   2350  COA2350     0.2526
      6  C6A      -11.8790    2.2360   78.7710 C.2   2350  COA2350     0.4393
      7  N6A      -12.1160    0.9430   79.0040 N.pl3 2350  COA2350     0.2180
      8  N7A      -13.3910    2.4830   76.7790 N.2   2350  COA2350    -0.2095
      9  C8A      -13.7030    3.5380   75.9930 C.3   2350  COA2350     0.3377
     10  N9A      -13.0350    4.6500   76.4410 N.pl3 2350  COA2350    -0.1439
     11  C1B      -13.1110    6.0140   75.8920 C.3   2350  COA2350     0.3185
     12  C2B      -12.9710    6.0850   74.3790 C.3   2350  COA2350     0.2543
     13  O2B      -11.6220    6.2430   73.9770 O.3   2350  COA2350    -0.2131
     14  C3B      -13.7850    7.3290   74.0590 C.3   2350  COA2350     0.1928
     15  O3B      -12.9480    8.4510   74.1900 O.3   2350  COA2350    -0.2673
     16  P3B      -13.1960    9.8540   73.4340 P.3   2350  COA2350     0.5327
     17  O7A      -13.3980    9.6100   71.9590 O.2   2350  COA2350    -0.2224
     18  O8A      -14.4290   10.5100   74.0150 O.3   2350  COA2350    -0.1145
     19  O9A      -11.9730   10.7220   73.6410 O.3   2350  COA2350    -0.1145
     20  C4B      -14.8660    7.3550   75.1310 C.3   2350  COA2350     0.1795
     21  O4B      -14.3800    6.5620   76.2030 O.3   2350  COA2350    -0.3136
     22  C5B      -16.1890    6.7770   74.6410 C.3   2350  COA2350     0.1812
     23  O5B      -15.9570    5.5250   74.0420 O.3   2350  COA2350    -0.3111
     24  P1A      -17.1280    4.7330   73.2700 P.3   2350  COA2350     0.2231
     25  O1A      -17.5590    5.5290   72.0600 O.2   2350  COA2350    -0.5169
     26  O2A      -16.6900    3.3450   72.8710 O.3   2350  COA2350    -0.4370
     27  O3A      -18.3290    4.6680   74.3450 O.3   2350  COA2350    -0.2261
     28  P2A      -18.3800    3.5570   75.5170 P.3   2350  COA2350     0.5373
     29  O4A      -17.0120    2.9620   75.7500 O.3   2350  COA2350    -0.1143
     30  O5A      -18.9380    4.1430   76.7930 O.3   2350  COA2350    -0.1143
     31  O6A      -19.3640    2.4230   74.9360 O.2   2350  COA2350    -0.2221
@<TRIPOS>BOND
     1    17    16    2
     2    25    24    2
     3    26    24    1
     4    24    23    1
     5    24    27    1
     6    16    19    1
     7    16    18    1
     8    16    15    1
     9    13    12    1
    10    23    22    1
    11    14    15    1
    12    14    12    1
    13    14    20    1
    14    27    28    1
    15    12    11    1
    16    22    20    1
    17    31    28    2
    18    20    21    1
    19    28    29    1
    20    28    30    1
    21    11    21    1
    22    11    10    1
    23     9    10    1
    24     9     8    1
    25    10     4    1
    26     8     5    2
    27     4     5    1
    28     4     3    2
    29     5     6    1
    30     3     2    1
    31     6     7    1
    32     6     1    2
    33     2     1    1
