@<TRIPOS>MOLECULE
2dei_GLA_A_1.pdb
 12 12 0 0 0
SMALL
GASTEIGER

@<TRIPOS>ATOM
      1  C1        33.5650   28.0570   13.6650 C.3   401  GLA401      0.3024
      2  C2        32.3530   27.3090   13.0810 C.3   401  GLA401      0.2434
      3  C3        32.7690   25.9150   12.6020 C.3   401  GLA401      0.2199
      4  C4        33.9970   25.9870   11.6660 C.3   401  GLA401      0.2144
      5  C5        35.1210   26.7670   12.3600 C.3   401  GLA401      0.1836
      6  C6        36.3160   26.9150   11.4140 C.3   401  GLA401      0.2142
      7  O1        33.9720   27.5080   14.9130 O.3   401  GLA401     -0.1869
      8  O2        31.2900   27.2240   14.0180 O.3   401  GLA401     -0.2148
      9  O3        31.6690   25.2580   11.9670 O.3   401  GLA401     -0.2174
     10  O4        33.6830   26.5640   10.4060 O.3   401  GLA401     -0.2176
     11  O5        34.6450   28.0630   12.7270 O.3   401  GLA401     -0.3236
     12  O6        36.9420   25.6460   11.2410 O.3   401  GLA401     -0.2176
@<TRIPOS>BOND
     1    10     4    1
     2    12     6    1
     3     6     5    1
     4     4     5    1
     5     4     3    1
     6     9     3    1
     7     5    11    1
     8     3     2    1
     9    11     1    1
    10     2     1    1
    11     2     8    1
    12     1     7    1
