@<TRIPOS>MOLECULE
2dei_MAP_A_1.pdb
 32 35 0 0 0
SMALL
GASTEIGER

@<TRIPOS>ATOM
      1  PG        32.9910   29.8270   19.2550 P.3   402  MAP402      0.0000
      2  O1G       34.1390   30.6940   18.7570 O.2   402  MAP402      0.0000
      3  O2G       31.6940   30.2350   18.5920 O.3   402  MAP402      0.0000
      4  O3G       33.2820   28.3520   19.2550 O.3   402  MAP402      0.0000
      5  PB        31.4330   30.2460   21.6720 P.3   402  MAP402      0.0000
      6  O1B       31.5560   30.1720   23.1680 O.2   402  MAP402      0.0000
      7  O2B       30.5020   29.3200   20.8870 O.3   402  MAP402      0.0000
      8  N3B       32.9620   30.2360   20.9550 N.3   402  MAP402      0.0000
      9  PA        29.2060   31.8960   20.7750 P.3   402  MAP402      0.0000
     10  O1A       29.0840   33.4360   20.4630 O.3   402  MAP402     -0.5000
     11  O2A       28.9660   31.0200   19.4450 O.2   402  MAP402     -0.5000
     12  O3A       30.6970   31.6690   21.4080 O.3   402  MAP402      0.0000
     13  O5'       28.1600   31.4310   21.8990 O.3   402  MAP402      0.0000
     14  C5'       28.1410   32.0740   23.1660 C.3   402  MAP402      0.0000
     15  C4'       26.6850   32.3670   23.4620 C.3   402  MAP402      0.0000
     16  O4'       25.9300   31.1580   23.6590 O.3   402  MAP402      0.0000
     17  C3'       26.5420   33.1550   24.7390 C.3   402  MAP402      0.0000
     18  O3'       26.7530   34.5430   24.4790 O.3   402  MAP402      0.0000
     19  C2'       25.1090   32.8260   25.0690 C.3   402  MAP402      0.0000
     20  O2'       24.2750   33.7020   24.3010 O.3   402  MAP402      0.0000
     21  C1'       24.9490   31.3520   24.6760 C.3   402  MAP402      0.0000
     22  N9        25.3250   30.5560   25.8660 N.pl3 402  MAP402      0.5000
     23  C8        26.2920   29.6310   25.9070 C.3   402  MAP402      0.0000
     24  N7        26.4040   29.1010   27.1370 N.2   402  MAP402      0.0000
     25  C5        25.4840   29.6890   27.9180 C.2   402  MAP402      0.0000
     26  C6        25.0760   29.5850   29.3270 C.2   402  MAP402      0.0000
     27  N6        25.7090   28.7160   30.1550 N.pl3 402  MAP402      0.5000
     28  N1        24.0630   30.3820   29.7370 N.2   402  MAP402      0.5000
     29  C2        23.4430   31.2480   28.9150 C.3   402  MAP402      0.0000
     30  N3        23.7670   31.3880   27.6110 N.2   402  MAP402      0.5000
     31  C4        24.7620   30.6470   27.0760 C.2   402  MAP402      0.0000
     32 MG         29.9440   29.2700   18.9760 Mg    402  MAP402      0.0000
@<TRIPOS>BOND
     1     3    32    1
     2     3     1    1
     3     2     1    2
     4    32     7    1
     5     4     1    1
     6     1     8    1
     7    11     9    2
     8    10     9    1
     9     9    12    1
    10     9    13    1
    11     7     5    1
    12     8     5    1
    13    12     5    1
    14     5     6    2
    15    13    14    1
    16    14    15    1
    17    15    16    1
    18    15    17    1
    19    16    21    1
    20    20    19    1
    21    18    17    1
    22    21    19    1
    23    21    22    1
    24    17    19    1
    25    22    23    1
    26    22    31    1
    27    23    24    1
    28    31    30    2
    29    31    25    1
    30    24    25    2
    31    30    29    1
    32    25    26    1
    33    29    28    1
    34    26    28    2
    35    26    27    1
