@<TRIPOS>MOLECULE
2dej_APW_A_1.pdb
 28 31 0 0 0
SMALL
GASTEIGER

@<TRIPOS>ATOM
      1 MG         29.7170   29.3860   18.7590 Mg    402  APW402      0.0000
      2  O2A       28.7490   31.1250   19.3040 O.3   402  APW402      0.0000
      3  PA        29.0720   31.9920   20.6260 P.3   402  APW402      0.0000
      4  O1A       28.8720   33.5400   20.3200 O.2   402  APW402      0.0000
      5  O3A       30.5410   31.6750   21.3240 O.3   402  APW402      0.0000
      6  PB        31.5420   30.3670   21.2650 P.3   402  APW402      0.0000
      7  O1B       32.1370   30.1590   22.6060 O.2   402  APW402      0.0000
      8  O2B       30.5610   29.3660   20.6620 O.3   402  APW402      0.0000
      9  N3B       32.7720   30.7890   20.1080 N.3   402  APW402      0.0000
     10  O5'       27.9890   31.4830   21.7000 O.3   402  APW402      0.0000
     11  C5'       27.9450   32.1090   22.9750 C.3   402  APW402      0.0000
     12  C4'       26.4960   32.4150   23.2660 C.3   402  APW402      0.0000
     13  C3'       26.3640   33.2110   24.5450 C.3   402  APW402      0.0000
     14  O3'       26.6050   34.5930   24.3000 O.3   402  APW402      0.0000
     15  C2'       24.9340   32.9140   24.9310 C.3   402  APW402      0.0000
     16  O2'       24.0340   33.7380   24.1880 O.3   402  APW402      0.0000
     17  C1'       24.7720   31.4540   24.5250 C.3   402  APW402      0.0000
     18  O4'       25.7170   31.2260   23.4680 O.3   402  APW402      0.0000
     19  N9        25.1310   30.6420   25.7090 N.pl3 402  APW402      0.5000
     20  C4        24.5670   30.7400   26.9180 C.2   402  APW402      0.0000
     21  C5        25.2490   29.7640   27.7760 C.2   402  APW402      0.0000
     22  N7        26.1680   29.1510   27.0090 N.2   402  APW402      0.0000
     23  C8        26.0880   29.6960   25.7660 C.3   402  APW402      0.0000
     24  N3        23.5790   31.4900   27.4520 N.2   402  APW402      0.5000
     25  C2        23.2290   31.3390   28.7450 C.3   402  APW402      0.0000
     26  N1        23.8060   30.4670   29.5900 N.2   402  APW402      0.5000
     27  C6        24.8050   29.6540   29.1820 C.2   402  APW402      0.0000
     28  N6        25.4000   28.7730   30.0250 N.pl3 402  APW402      0.5000
@<TRIPOS>BOND
     1     1     2    1
     2     1     8    1
     3     2     3    1
     4     9     6    1
     5     4     3    2
     6     3     5    1
     7     3    10    1
     8     8     6    1
     9     6     5    1
    10     6     7    2
    11    10    11    1
    12    11    12    1
    13    12    18    1
    14    12    13    1
    15    18    17    1
    16    16    15    1
    17    14    13    1
    18    17    15    1
    19    17    19    1
    20    13    15    1
    21    19    23    1
    22    19    20    1
    23    23    22    1
    24    20    24    2
    25    20    21    1
    26    22    21    2
    27    24    25    1
    28    21    27    1
    29    25    26    1
    30    27    26    2
    31    27    28    1
