@<TRIPOS>MOLECULE
2dej_GLA_A_1.pdb
 12 12 0 0 0
SMALL
GASTEIGER

@<TRIPOS>ATOM
      1  C1        33.3460   28.1520   13.4490 C.3   401  GLA401      0.3024
      2  C2        32.1470   27.4070   12.8580 C.3   401  GLA401      0.2434
      3  C3        32.5390   25.9950   12.3800 C.3   401  GLA401      0.2199
      4  C4        33.8020   26.0330   11.4850 C.3   401  GLA401      0.2144
      5  C5        34.8940   26.8380   12.2070 C.3   401  GLA401      0.1836
      6  C6        36.1340   27.0160   11.3410 C.3   401  GLA401      0.2142
      7  O1        33.7120   27.5290   14.6640 O.3   401  GLA401     -0.1869
      8  O2        31.0500   27.3020   13.7670 O.3   401  GLA401     -0.2148
      9  O3        31.4590   25.3470   11.7120 O.3   401  GLA401     -0.2174
     10  O4        33.4840   26.6220   10.2250 O.3   401  GLA401     -0.2176
     11  O5        34.4180   28.1320   12.5070 O.3   401  GLA401     -0.3236
     12  O6        36.7360   25.7440   11.1380 O.3   401  GLA401     -0.2176
@<TRIPOS>BOND
     1    10     4    1
     2    12     6    1
     3     6     5    1
     4     4     5    1
     5     4     3    1
     6     9     3    1
     7     5    11    1
     8     3     2    1
     9    11     1    1
    10     2     1    1
    11     2     8    1
    12     1     7    1
