@<TRIPOS>MOLECULE
2dek_SAH_A_1.pdb
 26 28 0 0 0
SMALL
GASTEIGER

@<TRIPOS>ATOM
      1  N         85.6870   39.9530   66.3470 N.3   1300  SAH1300    -0.1208
      2  CA        84.2750   39.6590   66.0610 C.3   1300  SAH1300     0.1952
      3  CB        83.5870   39.0890   67.3030 C.3   1300  SAH1300     0.0422
      4  CG        84.2510   37.8040   67.8010 C.3   1300  SAH1300     0.0597
      5  SD        83.3140   37.0470   69.1780 S.3   1300  SAH1300    -0.1375
      6  C         83.5580   40.9520   65.6700 C.2   1300  SAH1300     0.3819
      7  O         84.1490   42.0300   65.7170 O.co2 1300  SAH1300    -0.2441
      8  OXT       82.3790   40.9210   65.3210 O.co2 1300  SAH1300    -0.2441
      9  C5'       82.2600   35.8830   68.2380 C.3   1300  SAH1300     0.0899
     10  C4'       80.7830   35.9260   68.6400 C.3   1300  SAH1300     0.1630
     11  O4'       80.1750   37.1930   68.3300 O.3   1300  SAH1300    -0.3153
     12  C3'       79.9530   34.8980   67.8710 C.3   1300  SAH1300     0.2168
     13  O3'       80.0810   33.6210   68.5020 O.3   1300  SAH1300    -0.2175
     14  C2'       78.5630   35.4660   68.1470 C.3   1300  SAH1300     0.2569
     15  O2'       78.1880   35.2500   69.5100 O.3   1300  SAH1300    -0.2130
     16  C1'       78.8190   36.9560   67.9070 C.3   1300  SAH1300     0.3185
     17  N9        78.7120   37.2840   66.4660 N.pl3 1300  SAH1300    -0.1439
     18  C8        79.7230   37.5280   65.6340 C.3   1300  SAH1300     0.3377
     19  N7        79.2490   37.8620   64.4350 N.2   1300  SAH1300    -0.2095
     20  C5        77.9220   37.8260   64.5010 C.2   1300  SAH1300     0.2526
     21  C6        76.8930   38.0710   63.5990 C.2   1300  SAH1300     0.4393
     22  N6        77.1650   38.4100   62.3420 N.pl3 1300  SAH1300     0.2180
     23  N1        75.6220   37.9420   64.0080 N.2   1300  SAH1300     0.0021
     24  C2        75.3290   37.5820   65.2460 C.3   1300  SAH1300     0.5254
     25  N3        76.2830   37.3400   66.1290 N.2   1300  SAH1300    -0.0055
     26  C4        77.5780   37.4530   65.7930 C.2   1300  SAH1300     0.3518
@<TRIPOS>BOND
     1    22    21    1
     2    21    23    2
     3    21    20    1
     4    23    24    1
     5    19    20    2
     6    19    18    1
     7    20    26    1
     8    24    25    1
     9     8     6   ar
    10    18    17    1
    11     6     7   ar
    12     6     2    1
    13    26    25    2
    14    26    17    1
    15     2     1    1
    16     2     3    1
    17    17    16    1
    18     3     4    1
    19     4     5    1
    20    12    14    1
    21    12    13    1
    22    12    10    1
    23    16    14    1
    24    16    11    1
    25    14    15    1
    26     9    10    1
    27     9     5    1
    28    11    10    1
