@<TRIPOS>MOLECULE
2deq_BT5_B_1.pdb
 38 42 0 0 0
SMALL
GASTEIGER

@<TRIPOS>ATOM
      1  CBB      -18.8480  -10.8110   -7.0440 C.2   1301  BT51301     0.3210
      2  OBB      -19.5530  -11.7990   -6.4310 O.3   1301  BT51301    -0.4101
      3  OCB      -17.6340  -10.6560   -6.9130 O.2   1301  BT51301    -0.2498
      4  CAB      -19.5540   -9.9190   -7.8470 C.3   1301  BT51301     0.1098
      5  C9B      -19.8250   -8.6290   -7.4090 C.3   1301  BT51301     0.0117
      6  C8B      -20.5040   -7.7880   -8.4940 C.3   1301  BT51301     0.0015
      7  C7B      -20.7890   -6.3780   -7.9710 C.3   1301  BT51301     0.0129
      8  C2B      -21.2900   -5.4380   -9.0690 C.3   1301  BT51301     0.0729
      9  S1B      -21.4380   -3.6970   -8.5430 S.3   1301  BT51301    -0.1369
     10  C6B      -22.3780   -3.2820  -10.0530 C.3   1301  BT51301     0.0848
     11  C5B      -23.3270   -4.4800  -10.1890 C.3   1301  BT51301     0.1509
     12  N1B      -24.4950   -4.2530   -9.3260 N.2   1301  BT51301    -0.1859
     13  C3B      -24.5550   -5.1930   -8.3860 C.1   1301  BT51301     0.2386
     14  O3B      -25.4260   -5.2260   -7.5180 O.2   1301  BT51301    -0.2023
     15  N2B      -23.5720   -6.0860   -8.4720 N.2   1301  BT51301    -0.1860
     16  C4B      -22.6930   -5.7510   -9.6020 C.3   1301  BT51301     0.1500
     17  P        -18.6430  -12.8540   -5.6160 P.3   1301  BT51301     0.2722
     18  OP1      -17.5270  -13.3120   -6.4730 O.2   1301  BT51301    -0.5082
     19  OP2      -19.5850  -13.8670   -5.0890 O.3   1301  BT51301    -0.4273
     20  O5'      -18.0360  -12.0280   -4.3750 O.3   1301  BT51301    -0.3024
     21  C5'      -18.8170  -11.8300   -3.1940 C.3   1301  BT51301     0.1823
     22  C4'      -17.9150  -11.5200   -1.9980 C.3   1301  BT51301     0.1822
     23  O4'      -17.0160  -10.4350   -2.2680 O.3   1301  BT51301    -0.3135
     24  C3'      -18.7210  -11.0390   -0.7930 C.3   1301  BT51301     0.2184
     25  O3'      -19.3020  -12.1770   -0.1500 O.3   1301  BT51301    -0.2174
     26  C2'      -17.5610  -10.5190    0.0530 C.3   1301  BT51301     0.2570
     27  O2'      -16.8590  -11.6200    0.6350 O.3   1301  BT51301    -0.2130
     28  C1'      -16.6690   -9.8530   -0.9990 C.3   1301  BT51301     0.3186
     29  N9       -16.9230   -8.4010   -1.1440 N.pl3 1301  BT51301    -0.1439
     30  C8       -18.0500   -7.7470   -0.8930 C.3   1301  BT51301     0.3377
     31  N7       -17.8860   -6.4600   -1.2030 N.2   1301  BT51301    -0.2095
     32  C5       -16.6450   -6.2930   -1.6520 C.2   1301  BT51301     0.2526
     33  C6       -15.9490   -5.1870   -2.1220 C.2   1301  BT51301     0.4393
     34  N6       -16.5450   -3.9970   -2.1770 N.pl3 1301  BT51301     0.2180
     35  N1       -14.6160   -5.3010   -2.5320 N.2   1301  BT51301     0.0021
     36  C2       -13.8710   -6.5800   -2.5120 C.3   1301  BT51301     0.5254
     37  N3       -14.7020   -7.7060   -2.0260 N.2   1301  BT51301    -0.0055
     38  C4       -16.0240   -7.5350   -1.6110 C.2   1301  BT51301     0.3518
@<TRIPOS>BOND
     1    11    10    1
     2    11    16    1
     3    11    12    1
     4    10     9    1
     5    16     8    1
     6    16    15    1
     7    12    13    2
     8     8     9    1
     9     8     7    1
    10     6     7    1
    11     6     5    1
    12    15    13    2
    13    13    14    2
    14     4     5    1
    15     4     1    1
    16     1     3    2
    17     1     2    1
    18    18    17    2
    19     2    17    1
    20    17    19    1
    21    17    20    1
    22    20    21    1
    23    21    22    1
    24    35    36    1
    25    35    33    2
    26    36    37    1
    27    23    22    1
    28    23    28    1
    29    34    33    1
    30    33    32    1
    31    37    38    2
    32    22    24    1
    33    32    38    1
    34    32    31    2
    35    38    29    1
    36    31    30    1
    37    29    28    1
    38    29    30    1
    39    28    26    1
    40    24    25    1
    41    24    26    1
    42    26    27    1
