@<TRIPOS>MOLECULE
2deu_AMP_C_1.pdb
 22 24 0 0 0
SMALL
GASTEIGER

@<TRIPOS>ATOM
      1  P         65.0440   13.6260   24.7810 P.3   134  AMP134      0.3942
      2  O1P       63.5810   13.4150   24.9880 O.3   134  AMP134     -0.1425
      3  O3P       65.4320   13.2610   23.2640 O.3   134  AMP134     -0.1425
      4  O5'       65.4410   15.1800   24.9610 O.3   134  AMP134     -0.2926
      5  C5'       64.2660   15.9890   24.8850 C.3   134  AMP134      0.1831
      6  C4'       64.4580   17.4950   25.0060 C.3   134  AMP134      0.1822
      7  O4'       65.8580   17.8140   25.3270 O.3   134  AMP134     -0.3135
      8  C3'       64.1970   18.2560   23.7270 C.3   134  AMP134      0.2184
      9  O3'       62.8010   18.5460   23.6060 O.3   134  AMP134     -0.2174
     10  C2'       65.0350   19.5250   23.9010 C.3   134  AMP134      0.2570
     11  O2'       64.4070   20.5700   24.6260 O.3   134  AMP134     -0.2130
     12  C1'       66.2650   19.0120   24.6650 C.3   134  AMP134      0.3186
     13  N9        67.4170   18.6680   23.7960 N.pl3 134  AMP134     -0.1439
     14  C8        67.9930   17.4360   23.6680 C.3   134  AMP134      0.3377
     15  N7        68.9900   17.3770   22.8320 N.2   134  AMP134     -0.2095
     16  C5        69.0940   18.6490   22.3620 C.2   134  AMP134      0.2526
     17  C6        69.9700   19.2410   21.4250 C.2   134  AMP134      0.4393
     18  N6        70.9290   18.5550   20.7890 N.pl3 134  AMP134      0.2180
     19  N1        69.8260   20.5820   21.1510 N.2   134  AMP134      0.0021
     20  C2        68.8530   21.2750   21.7900 C.3   134  AMP134      0.5254
     21  N3        67.9590   20.8100   22.6980 N.2   134  AMP134     -0.0055
     22  C4        68.1350   19.4790   22.9450 C.2   134  AMP134      0.3518
@<TRIPOS>BOND
     1    18    17    1
     2    19    17    2
     3    19    20    1
     4    17    16    1
     5    20    21    1
     6    16    15    2
     7    16    22    1
     8    21    22    2
     9    15    14    1
    10    22    13    1
    11     3     1    1
    12     9     8    1
    13    14    13    1
    14     8    10    1
    15     8     6    1
    16    13    12    1
    17    10    11    1
    18    10    12    1
    19    12     7    1
    20     1     4    1
    21     1     2    1
    22     5     4    1
    23     5     6    1
    24     6     7    1
