@<TRIPOS>MOLECULE
2dew_III_A_1.pdb
 38 37 0 0 0
SMALL
GASTEIGER

@<TRIPOS>ATOM
      1  N         26.2000   56.8270   21.8330 N.3     1  THR1       -0.1203
      2  CA        27.3230   55.8310   21.6630 C.3     1  THR1        0.1994
      3  C         27.0250   54.4040   22.2140 C.2     1  THR1        0.2618
      4  O         27.7620   53.4590   21.9240 O.2     1  THR1       -0.2717
      5  CB        28.6570   56.3990   22.2430 C.3     1  THR1        0.1784
      6  OG1       29.7470   55.5160   21.9450 O.3     1  THR1       -0.2211
      7  CG2       28.5540   56.6250   23.7480 C.3     1  THR1        0.0376
      8  N         25.9490   54.2470   22.9820 N.am    2  ALA2       -0.1965
      9  CA        25.5300   52.9290   23.4770 C.3     2  ALA2        0.1728
     10  C         24.7980   52.1180   22.4000 C.2     2  ALA2        0.2616
     11  O         24.2970   52.6910   21.4270 O.2     2  ALA2       -0.2715
     12  CB        24.6460   53.0980   24.6850 C.3     2  ALA2        0.0334
     13  N         24.7190   50.7940   22.5810 N.am    3  ARG3       -0.1963
     14  CA        24.0060   49.9160   21.6270 C.3     3  ARG3        0.1729
     15  C         22.5040   50.2070   21.5870 C.2     3  ARG3        0.2616
     16  O         21.8530   49.9290   20.5880 O.2     3  ARG3       -0.2715
     17  CB        24.2310   48.4260   21.9650 C.3     3  ARG3        0.0348
     18  CG        23.9420   47.4620   20.8040 C.3     3  ARG3        0.0492
     19  CD        24.0050   45.9760   21.1930 C.3     3  ARG3        0.2205
     20  NE        24.0090   45.1260   20.0010 N.pl3   3  ARG3       -0.0865
     21  CZ        23.8820   43.8050   19.9900 C.cat   3  ARG3        0.5346
     22  NH1       23.7350   43.1120   21.1180 N.pl3   3  ARG3        0.1354
     23  NH2       23.9150   43.1700   18.8310 N.pl3   3  ARG3        0.1354
     24  N         21.9960   50.8320   22.6530 N.am    4  LYS4       -0.1963
     25  CA        20.5720   50.8170   23.0390 C.3     4  LYS4        0.1728
     26  C         19.5830   51.5830   22.1540 C.2     4  LYS4        0.2616
     27  O         18.5460   51.0120   21.7440 O.2     4  LYS4       -0.2715
     28  CB        20.4100   51.3060   24.4990 C.3     4  LYS4        0.0311
     29  CG        19.3670   50.5300   25.3460 C.3     4  LYS4        0.0038
     30  CD        17.8840   50.9420   25.0840 C.3     4  LYS4        0.0206
     31  CE        17.5440   52.3230   25.7170 C.3     4  LYS4        0.1093
     32  NZ        16.1030   52.7310   25.5600 N.3     4  LYS4       -0.1314
     33  N         19.8450   52.8610   21.8860 N.am    5  SER5       -0.1950
     34  CA        18.7960   53.7040   21.3000 C.3     5  SER5        0.1924
     35  C         18.2960   53.2470   19.9110 C.2     5  SER5        0.2314
     36  O         17.2570   53.7210   19.4340 O.2     5  SER5       -0.2863
     37  CB        19.2250   55.1590   21.2370 C.3     5  SER5        0.2116
     38  OG        18.1310   55.9340   20.7730 O.3     5  SER5       -0.2180
@<TRIPOS>BOND
     1    23    21    1
     2    36    35    2
     3    35    34    1
     4    21    20    2
     5    21    22    1
     6    20    19    1
     7    16    15    2
     8    38    37    1
     9    18    19    1
    10    18    17    1
    11    37    34    1
    12    34    33    1
    13    11    10    2
    14    15    14    1
    15    15    24   am
    16    14    17    1
    17    14    13    1
    18     2     1    1
    19     2     3    1
    20     2     5    1
    21    27    26    2
    22    33    26   am
    23     4     3    2
    24     6     5    1
    25    26    25    1
    26     3     8   am
    27     5     7    1
    28    10    13   am
    29    10     9    1
    30    24    25    1
    31     8     9    1
    32    25    28    1
    33     9    12    1
    34    28    29    1
    35    30    29    1
    36    30    31    1
    37    32    31    1
