@<TRIPOS>MOLECULE
2dex_III_A_1.pdb
 41 41 0 0 0
SMALL
GASTEIGER

@<TRIPOS>ATOM
      1  N         27.5630   56.0350   22.2460 N.3     1  ALA1       -0.1231
      2  CA        27.1460   54.8720   21.3970 C.3     1  ALA1        0.1679
      3  C         26.6740   53.6740   22.2240 C.2     1  ALA1        0.2434
      4  O         27.2980   52.6150   22.1960 O.2     1  ALA1       -0.2733
      5  CB        28.2940   54.4600   20.4700 C.3     1  ALA1        0.0304
      6  N         25.5740   53.8380   22.9730 N.am    2  PRO2       -0.2718
      7  CA        24.9540   52.6850   23.6290 C.3     2  PRO2        0.1535
      8  C         24.2450   51.7870   22.6060 C.2     2  PRO2        0.2598
      9  O         23.6790   52.2890   21.6330 O.2     2  PRO2       -0.2715
     10  CB        23.9350   53.3340   24.5740 C.3     2  PRO2        0.0310
     11  CG        23.5660   54.5930   23.9010 C.3     2  PRO2        0.0237
     12  CD        24.8370   55.0820   23.2520 C.3     2  PRO2        0.0939
     13  N         24.2600   50.4740   22.8200 N.am    3  ARG3       -0.1964
     14  CA        23.6550   49.5590   21.8420 C.3     3  ARG3        0.1729
     15  C         22.1530   49.8110   21.6820 C.2     3  ARG3        0.2616
     16  O         21.6050   49.5750   20.6080 O.2     3  ARG3       -0.2715
     17  CB        23.9350   48.0910   22.1900 C.3     3  ARG3        0.0348
     18  CG        23.6680   47.1480   21.0140 C.3     3  ARG3        0.0492
     19  CD        23.9330   45.7100   21.3490 C.3     3  ARG3        0.2205
     20  NE        23.9330   44.8670   20.1480 N.pl3   3  ARG3       -0.0865
     21  CZ        23.7650   43.5440   20.1430 C.cat   3  ARG3        0.5346
     22  NH1       23.5600   42.8680   21.2720 N.pl3   3  ARG3        0.1354
     23  NH2       23.8040   42.8870   18.9910 N.pl3   3  ARG3        0.1354
     24  N         21.5280   50.3620   22.7270 N.am    4  LYS4       -0.1963
     25  CA        20.0610   50.4800   22.8490 C.3     4  LYS4        0.1728
     26  C         19.3600   51.6660   22.1500 C.2     4  LYS4        0.2616
     27  O         18.2790   51.4580   21.5610 O.2     4  LYS4       -0.2715
     28  CB        19.6660   50.4040   24.3340 C.3     4  LYS4        0.0311
     29  CG        18.4080   51.1540   24.7690 C.3     4  LYS4        0.0038
     30  CD        17.1720   50.3200   24.6960 C.3     4  LYS4        0.0206
     31  CE        15.9590   51.1170   25.1450 C.3     4  LYS4        0.1093
     32  NZ        16.0590   51.5880   26.5520 N.3     4  LYS4       -0.1314
     33  N         19.9150   52.8790   22.1850 N.am    5  GLN5       -0.1977
     34  CA        19.1970   54.0270   21.5770 C.3     5  GLN5        0.1601
     35  C         19.5580   54.2230   20.0900 C.2     5  GLN5        0.2287
     36  O         19.1470   55.2000   19.4300 O.2     5  GLN5       -0.2864
     37  CB        19.4230   55.3200   22.3740 C.3     5  GLN5        0.0394
     38  CG        18.5130   56.4700   21.9220 C.3     5  GLN5        0.0908
     39  CD        18.4810   57.6550   22.8760 C.2     5  GLN5        0.2608
     40  OE1       19.4790   57.9800   23.5220 O.2     5  GLN5       -0.2717
     41  NE2       17.3260   58.3060   22.9620 N.am    5  GLN5       -0.0878
@<TRIPOS>BOND
     1    23    21    1
     2    36    35    2
     3    35    34    1
     4    21    20    2
     5    21    22    1
     6    20    19    1
     7     5     2    1
     8    16    15    2
     9    18    19    1
    10    18    17    1
    11     2     3    1
    12     2     1    1
    13    27    26    2
    14    34    33    1
    15    34    37    1
    16     9     8    2
    17    15    14    1
    18    15    24   am
    19    14    17    1
    20    14    13    1
    21    38    37    1
    22    38    39    1
    23    26    33   am
    24    26    25    1
    25     4     3    2
    26     3     6   am
    27     8    13   am
    28     8     7    1
    29    24    25    1
    30    25    28    1
    31    39    41   am
    32    39    40    2
    33     6    12    1
    34     6     7    1
    35    12    11    1
    36     7    10    1
    37    11    10    1
    38    28    29    1
    39    30    29    1
    40    30    31    1
    41    31    32    1
