@<TRIPOS>MOLECULE
2dey_III_A_1.pdb
 37 36 0 0 0
SMALL
GASTEIGER

@<TRIPOS>ATOM
      1  C         30.0770   56.2040   22.0380 C.2     0  ACE0        0.2423
      2  O         29.7460   57.2610   22.5810 O.2     0  ACE0       -0.2733
      3  CH3       31.0390   56.1350   20.8920 C.3     0  ACE0        0.0964
      4  N         29.3210   55.1240   22.0690 N.am    1  SER1       -0.1950
      5  CA        27.9070   55.1500   21.7350 C.3     1  SER1        0.2054
      6  C         27.1960   53.9910   22.4460 C.2     1  SER1        0.2644
      7  O         27.6710   52.8590   22.4260 O.2     1  SER1       -0.2714
      8  CB        27.7050   55.0820   20.2010 C.3     1  SER1        0.2130
      9  OG        28.5270   54.0890   19.5750 O.3     1  SER1       -0.2179
     10  N         26.0720   54.2940   23.0850 N.am    2  GLY2       -0.1939
     11  CA        25.2180   53.2700   23.6760 C.3     2  GLY2        0.2014
     12  C         24.5620   52.4040   22.6150 C.2     2  GLY2        0.2639
     13  O         23.9380   52.9310   21.6760 O.2     2  GLY2       -0.2714
     14  N         24.6890   51.0810   22.7550 N.am    3  ARG3       -0.1963
     15  CA        24.1320   50.1450   21.7500 C.3     3  ARG3        0.1729
     16  C         22.6550   50.3310   21.5210 C.2     3  ARG3        0.2617
     17  O         22.1960   50.2730   20.4000 O.2     3  ARG3       -0.2715
     18  CB        24.3650   48.6760   22.1200 C.3     3  ARG3        0.0348
     19  CG        24.0780   47.7240   20.9530 C.3     3  ARG3        0.0492
     20  CD        24.1140   46.2620   21.3440 C.3     3  ARG3        0.2205
     21  NE        24.1080   45.4100   20.1540 N.pl3   3  ARG3       -0.0865
     22  CZ        23.8740   44.1010   20.1570 C.cat   3  ARG3        0.5346
     23  NH1       23.5810   43.4630   21.2850 N.pl3   3  ARG3        0.1354
     24  NH2       23.9090   43.4270   19.0160 N.pl3   3  ARG3        0.1354
     25  N         21.9270   50.5520   22.6040 N.am    4  GLY4       -0.1940
     26  CA        20.4820   50.5590   22.5900 C.3     4  GLY4        0.2014
     27  C         19.8650   51.8460   22.1170 C.2     4  GLY4        0.2638
     28  O         18.8090   51.8270   21.4810 O.2     4  GLY4       -0.2714
     29  N         20.5160   52.9610   22.4150 N.am    5  LYS5       -0.1977
     30  CA        19.9640   54.2690   22.1070 C.3     5  LYS5        0.1596
     31  C         21.0490   55.2380   21.5860 C.2     5  LYS5        0.2287
     32  O         21.3290   56.3040   22.1590 O.2     5  LYS5       -0.2864
     33  CB        19.2860   54.8250   23.3690 C.3     5  LYS5        0.0298
     34  CG        17.8190   54.4210   23.5530 C.3     5  LYS5        0.0038
     35  CD        17.0520   55.5780   24.2330 C.3     5  LYS5        0.0206
     36  CE        15.5270   55.4710   24.0680 C.3     5  LYS5        0.1093
     37  NZ        14.9130   56.8030   24.4060 N.3     5  LYS5       -0.1314
@<TRIPOS>BOND
     1    24    22    1
     2     9     8    1
     3    21    22    2
     4    21    20    1
     5    22    23    1
     6     8     5    1
     7    17    16    2
     8     3     1    1
     9    19    20    1
    10    19    18    1
    11    28    27    2
    12    16    15    1
    13    16    25   am
    14    31    30    1
    15    31    32    2
    16    13    12    2
    17     5     4    1
    18     5     6    1
    19    15    18    1
    20    15    14    1
    21     1     4   am
    22     1     2    2
    23    30    29    1
    24    30    33    1
    25    27    29   am
    26    27    26    1
    27     7     6    2
    28     6    10   am
    29    26    25    1
    30    12    14   am
    31    12    11    1
    32    10    11    1
    33    33    34    1
    34    34    35    1
    35    36    35    1
    36    36    37    1
