@<TRIPOS>MOLECULE
2df8_F1P_A_1.pdb
 16 16 0 0 0
SMALL
GASTEIGER

@<TRIPOS>ATOM
      1  C1        -1.4430  -12.7240    8.0360 C.3   801  F1P801      0.2152
      2  C2         0.0640  -12.7130    7.3910 C.3   801  F1P801      0.2780
      3  C3         0.3050  -11.6580    6.3000 C.3   801  F1P801      0.2409
      4  C4         1.7820  -11.8610    5.7550 C.3   801  F1P801      0.2198
      5  C5         2.0340  -13.2540    5.1610 C.3   801  F1P801      0.2143
      6  C6         1.6400  -14.3230    6.2370 C.3   801  F1P801      0.1803
      7  O1        -2.3670  -12.9870    6.9330 O.3   801  F1P801     -0.2648
      8  O2         0.9980  -12.5010    8.3630 O.3   801  F1P801     -0.1897
      9  O3         0.1200  -10.2970    6.8560 O.3   801  F1P801     -0.2149
     10  O4         2.1100  -10.9210    4.7610 O.3   801  F1P801     -0.2174
     11  O5         1.2390  -13.2840    3.9050 O.3   801  F1P801     -0.2176
     12  O6         0.2850  -14.0140    6.7450 O.3   801  F1P801     -0.3255
     13  P1        -3.9410  -13.0690    7.0680 P.3   801  F1P801      0.5328
     14  O1P       -4.4420  -11.6830    7.2720 O.3   801  F1P801     -0.1145
     15  O2P       -4.3730  -13.8090    5.8440 O.2   801  F1P801     -0.2224
     16  O3P       -4.2940  -13.8810    8.3780 O.3   801  F1P801     -0.1145
@<TRIPOS>BOND
     1    11     5    1
     2    10     4    1
     3     5     4    1
     4     5     6    1
     5     4     3    1
     6    15    13    2
     7     6    12    1
     8     3     9    1
     9     3     2    1
    10    12     2    1
    11     7    13    1
    12     7     1    1
    13    13    14    1
    14    13    16    1
    15     2     1    1
    16     2     8    1
