@<TRIPOS>MOLECULE
2dfd_HIS_A_1.pdb
 10 10 0 0 0
SMALL
GASTEIGER

@<TRIPOS>ATOM
      1  N         25.6230  141.2870   18.8560 N.3   3301  HIS3301    -0.1241
      2  CA        25.7450  141.1920   20.3480 C.3   3301  HIS3301     0.1618
      3  C         24.3780  141.4190   20.9990 C.2   3301  HIS3301     0.2264
      4  O         23.6790  142.3780   20.6270 O.2   3301  HIS3301    -0.2867
      5  CB        26.7300  142.2400   20.8730 C.3   3301  HIS3301     0.0704
      6  CG        28.1200  142.0960   20.3330 C.2   3301  HIS3301     0.0649
      7  ND1       28.9040  143.1840   20.0130 N.2   3301  HIS3301    -0.2310
      8  CD2       28.8630  140.9950   20.0490 C.3   3301  HIS3301     0.1683
      9  CE1       30.0810  142.7610   19.5780 C.2   3301  HIS3301     0.1939
     10  NE2       30.0790  141.4370   19.5790 N.2   3301  HIS3301    -0.2440
@<TRIPOS>BOND
     1     1     2    1
     2     9    10    2
     3     9     7    1
     4    10     8    1
     5     7     6    2
     6     8     6    1
     7     6     5    1
     8     2     5    1
     9     2     3    1
    10     4     3    2
