@<TRIPOS>MOLECULE
2dfd_NAD_A_1.pdb
 44 48 0 0 0
SMALL
GASTEIGER

@<TRIPOS>ATOM
      1  PA        29.1670  148.4390   45.2050 P.3   3003  NAD3003     0.2189
      2  O1A       29.8990  148.4990   46.5070 O.3   3003  NAD3003    -0.4371
      3  O2A       29.1760  149.7230   44.4530 O.2   3003  NAD3003    -0.5170
      4  O5B       27.7310  147.8100   45.3230 O.3   3003  NAD3003    -0.3112
      5  C5B       27.4790  146.6260   46.0090 C.3   3003  NAD3003     0.1813
      6  C4B       26.0500  146.6860   46.4270 C.3   3003  NAD3003     0.1821
      7  O4B       25.8480  145.4460   47.0410 O.3   3003  NAD3003    -0.3135
      8  C3B       25.7310  147.8100   47.4390 C.3   3003  NAD3003     0.2184
      9  O3B       24.5770  148.5230   47.0430 O.3   3003  NAD3003    -0.2174
     10  C2B       25.5220  147.0200   48.7280 C.3   3003  NAD3003     0.2570
     11  O2B       24.6020  147.6270   49.6310 O.3   3003  NAD3003    -0.2130
     12  C1B       25.0450  145.6670   48.1580 C.3   3003  NAD3003     0.3186
     13  N9A       25.0850  144.5760   49.1260 N.pl3 3003  NAD3003    -0.1439
     14  C8A       26.1340  144.2610   49.9560 C.3   3003  NAD3003     0.3377
     15  N7A       25.7230  143.2200   50.7060 N.2   3003  NAD3003    -0.2095
     16  C5A       24.4530  142.8740   50.4020 C.2   3003  NAD3003     0.2526
     17  C6A       23.5790  141.9160   50.8800 C.2   3003  NAD3003     0.4393
     18  N6A       23.9240  141.0510   51.8090 N.pl3 3003  NAD3003     0.2180
     19  N1A       22.3400  141.8050   50.3420 N.2   3003  NAD3003     0.0021
     20  C2A       21.9540  142.6650   49.3250 C.3   3003  NAD3003     0.5254
     21  N3A       22.8120  143.6220   48.8560 N.2   3003  NAD3003    -0.0055
     22  C4A       24.0510  143.7230   49.3910 C.2   3003  NAD3003     0.3518
     23  O3        30.1100  147.5090   44.2750 O.3   3003  NAD3003    -0.2703
     24  PN        29.9710  147.2570   42.6710 P.3   3003  NAD3003     0.2189
     25  O1N       30.9720  148.0850   41.9760 O.2   3003  NAD3003    -0.5170
     26  O2N       28.5110  147.2700   42.3570 O.3   3003  NAD3003    -0.4371
     27  O5D       30.5510  145.7100   42.5730 O.3   3003  NAD3003    -0.3112
     28  C5D       29.7870  144.6180   43.0160 C.3   3003  NAD3003     0.1813
     29  C4D       30.5770  143.2920   42.8240 C.3   3003  NAD3003     0.1799
     30  O4D       30.7600  142.9670   41.4390 O.3   3003  NAD3003    -0.3327
     31  C3D       31.9750  143.3580   43.4210 C.3   3003  NAD3003     0.2158
     32  O3D       32.1900  142.1660   44.1370 O.3   3003  NAD3003    -0.2175
     33  C2D       32.8930  143.4900   42.2390 C.3   3003  NAD3003     0.2309
     34  O2D       34.2470  143.0940   42.3930 O.3   3003  NAD3003    -0.2158
     35  C1D       32.1180  142.6190   41.2250 C.3   3003  NAD3003     0.2263
     36  N1N       32.4570  142.8620   39.8370 N.pl3 3003  NAD3003    -0.2787
     37  C2N       32.4220  141.7730   38.9700 C.3   3003  NAD3003     0.1244
     38  C3N       32.6570  141.9460   37.6140 C.2   3003  NAD3003     0.0544
     39  C7N       32.6490  140.7380   36.6840 C.2   3003  NAD3003     0.2818
     40  O7N       33.2620  140.8890   35.4480 O.2   3003  NAD3003    -0.2670
     41  N7N       32.0810  139.5960   37.0540 N.am  3003  NAD3003    -0.0839
     42  C4N       32.9450  143.2310   37.1070 C.2   3003  NAD3003     0.0033
     43  C5N       32.9480  144.3240   37.9920 C.2   3003  NAD3003     0.0157
     44  C6N       32.6880  144.1200   39.3510 C.2   3003  NAD3003     0.0633
@<TRIPOS>BOND
     1    40    39    2
     2    39    41   am
     3    39    38    1
     4    42    38    2
     5    42    43    1
     6    38    37    1
     7    43    44    2
     8    37    36    1
     9    44    36    1
    10    36    35    1
    11    35    30    1
    12    35    33    1
    13    30    29    1
    14    25    24    2
    15    33    34    1
    16    33    31    1
    17    26    24    1
    18    27    24    1
    19    27    28    1
    20    24    23    1
    21    29    28    1
    22    29    31    1
    23    31    32    1
    24    23     1    1
    25     3     1    2
    26     1     4    1
    27     1     2    1
    28     4     5    1
    29     5     6    1
    30     6     7    1
    31     6     8    1
    32     7    12    1
    33     9     8    1
    34     8    10    1
    35    12    10    1
    36    12    13    1
    37    10    11    1
    38    21    20    1
    39    21    22    2
    40    13    22    1
    41    13    14    1
    42    20    19    1
    43    22    16    1
    44    14    15    1
    45    19    17    2
    46    16    15    2
    47    16    17    1
    48    17    18    1
