@<TRIPOS>MOLECULE
2dfn_SKM_A_1.pdb
 12 12 0 0 0
SMALL
GASTEIGER

@<TRIPOS>ATOM
      1  O12      -14.3870  -14.3090   17.0680 O.3   500  SKM500     -0.2177
      2  C8       -14.4940  -13.4220   15.9580 C.3   500  SKM500      0.2122
      3  C6       -15.9560  -13.0900   15.6200 C.3   500  SKM500      0.1852
      4  O7       -16.8590  -12.6450   16.6770 O.3   500  SKM500     -0.2203
      5  C5       -16.4770  -13.9370   14.4610 C.3   500  SKM500      0.0470
      6  C4       -15.9790  -15.1480   14.1650 C.3   500  SKM500      0.1086
      7  C1       -16.7160  -16.1000   13.5620 C.2   500  SKM500      0.3645
      8  O2       -16.1870  -17.2190   13.4020 O.co2 500  SKM500     -0.2457
      9  O3       -17.8830  -15.8980   13.1650 O.co2 500  SKM500     -0.2457
     10  C10      -14.7020  -15.3950   14.5340 C.3   500  SKM500      0.0470
     11  C9       -13.8190  -14.1910   14.8140 C.3   500  SKM500      0.1852
     12  O11      -13.6170  -13.3400   13.6670 O.3   500  SKM500     -0.2203
@<TRIPOS>BOND
     1     9     7   ar
     2     8     7   ar
     3     7     6    1
     4    12    11    1
     5     6     5    1
     6     6    10    1
     7     5     3    1
     8    10    11    1
     9    11     2    1
    10     3     2    1
    11     3     4    1
    12     2     1    1
