@<TRIPOS>MOLECULE
2dfn_ADP_A_1.pdb
 27 29 0 0 0
SMALL
GASTEIGER

@<TRIPOS>ATOM
      1  PB       -21.2200   -8.7720   16.9580 P.3   177  ADP177      0.5373
      2  O1B      -22.3020   -9.7790   17.1090 O.3   177  ADP177     -0.1143
      3  O2B      -20.5750   -8.5650   18.2990 O.3   177  ADP177     -0.1143
      4  O3B      -20.2880   -8.9440   15.7800 O.2   177  ADP177     -0.2221
      5  PA       -21.7100   -5.8880   17.0390 P.3   177  ADP177      0.2231
      6  O1A      -20.2840   -5.5810   16.7110 O.2   177  ADP177     -0.5169
      7  O2A      -22.2350   -5.6230   18.4130 O.3   177  ADP177     -0.4370
      8  O3A      -22.0490   -7.4070   16.5950 O.3   177  ADP177     -0.2261
      9  O5'      -22.7240   -5.0550   16.0920 O.3   177  ADP177     -0.3111
     10  C5'      -22.3950   -4.8200   14.7090 C.3   177  ADP177      0.1813
     11  C4'      -22.8900   -3.4420   14.2990 C.3   177  ADP177      0.1821
     12  O4'      -24.2960   -3.5320   14.1910 O.3   177  ADP177     -0.3135
     13  C3'      -22.5530   -2.3430   15.3160 C.3   177  ADP177      0.2184
     14  O3'      -22.2980   -1.0800   14.6870 O.3   177  ADP177     -0.2174
     15  C2'      -23.8340   -2.1100   16.0840 C.3   177  ADP177      0.2570
     16  O2'      -23.8660   -0.6970   16.2570 O.3   177  ADP177     -0.2130
     17  C1'      -24.8960   -2.6010   15.0870 C.3   177  ADP177      0.3186
     18  N9       -26.0420   -3.1870   15.7880 N.pl3 177  ADP177     -0.1439
     19  C8       -25.9820   -4.1430   16.7380 C.3   177  ADP177      0.3377
     20  N7       -27.2180   -4.4580   17.1330 N.2   177  ADP177     -0.2095
     21  C5       -28.0700   -3.6260   16.4790 C.2   177  ADP177      0.2526
     22  C6       -29.5390   -3.4090   16.4940 C.2   177  ADP177      0.4393
     23  N6       -30.4190   -4.0630   17.2820 N.pl3 177  ADP177      0.2180
     24  N1       -30.0120   -2.4710   15.6320 N.2   177  ADP177      0.0021
     25  C2       -29.1840   -1.7340   14.8900 C.3   177  ADP177      0.5254
     26  N3       -27.8520   -1.8760   14.7430 N.2   177  ADP177     -0.0055
     27  C4       -27.2820   -2.8030   15.5560 C.2   177  ADP177      0.3518
@<TRIPOS>BOND
     1    12    11    1
     2    12    17    1
     3    11    10    1
     4    11    13    1
     5    14    13    1
     6    10     9    1
     7    26    25    1
     8    26    27    2
     9    25    24    1
    10    17    18    1
    11    17    15    1
    12    13    15    1
    13    27    18    1
    14    27    21    1
    15    24    22    2
    16     4     1    2
    17    18    19    1
    18    15    16    1
    19     9     5    1
    20    21    22    1
    21    21    20    2
    22    22    23    1
    23     8     1    1
    24     8     5    1
    25     6     5    2
    26    19    20    1
    27     1     2    1
    28     1     3    1
    29     5     7    1
