@<TRIPOS>MOLECULE
2dft_ADP_A_1.pdb
 27 29 0 0 0
SMALL
GASTEIGER

@<TRIPOS>ATOM
      1  PB        22.6120   32.1510   75.0640 P.3   180  ADP180      0.5373
      2  O1B       22.2590   33.0560   76.2150 O.3   180  ADP180     -0.1143
      3  O2B       22.2180   30.6550   74.9840 O.3   180  ADP180     -0.1143
      4  O3B       21.9780   32.9040   73.8720 O.2   180  ADP180     -0.2221
      5  PA        25.0570   30.9330   75.4620 P.3   180  ADP180      0.2231
      6  O1A       24.9810   30.0530   74.2300 O.2   180  ADP180     -0.5169
      7  O2A       24.4290   30.5680   76.7690 O.3   180  ADP180     -0.4370
      8  O3A       24.2430   32.2160   75.0050 O.3   180  ADP180     -0.2261
      9  O5'       26.6240   31.3720   75.7700 O.3   180  ADP180     -0.3111
     10  C5'       27.3690   32.3700   74.9640 C.3   180  ADP180      0.1813
     11  C4'       28.7660   31.9070   75.1950 C.3   180  ADP180      0.1821
     12  O4'       28.7940   32.1670   76.5900 O.3   180  ADP180     -0.3135
     13  C3'       28.9600   30.3970   75.3070 C.3   180  ADP180      0.2184
     14  O3'       30.3610   30.1170   75.0670 O.3   180  ADP180     -0.2174
     15  C2'       28.8190   29.9730   76.7550 C.3   180  ADP180      0.2570
     16  O2'       29.7570   28.9270   77.0180 O.3   180  ADP180     -0.2130
     17  C1'       29.4090   31.1880   77.3770 C.3   180  ADP180      0.3186
     18  N9        28.7900   31.4070   78.6810 N.pl3 180  ADP180     -0.1439
     19  C8        27.4950   31.3170   78.8860 C.3   180  ADP180      0.3377
     20  N7        27.3190   31.5520   80.2130 N.2   180  ADP180     -0.2095
     21  C5        28.4540   31.7770   80.8440 C.2   180  ADP180      0.2526
     22  C6        28.8120   31.9530   82.1640 C.2   180  ADP180      0.4393
     23  N6        27.8590   32.0460   83.1520 N.pl3 180  ADP180      0.2180
     24  N1        30.1060   31.9300   82.5170 N.2   180  ADP180      0.0021
     25  C2        31.0180   31.8610   81.5780 C.3   180  ADP180      0.5254
     26  N3        30.7220   31.6470   80.3110 N.2   180  ADP180     -0.0055
     27  C4        29.4170   31.6380   79.8760 C.2   180  ADP180      0.3518
@<TRIPOS>BOND
     1     4     1    2
     2     6     5    2
     3    10    11    1
     4    10     9    1
     5     3     1    1
     6     8     1    1
     7     8     5    1
     8     1     2    1
     9    14    13    1
    10    11    13    1
    11    11    12    1
    12    13    15    1
    13     5     9    1
    14     5     7    1
    15    12    17    1
    16    15    16    1
    17    15    17    1
    18    17    18    1
    19    18    19    1
    20    18    27    1
    21    19    20    1
    22    27    26    2
    23    27    21    1
    24    20    21    2
    25    26    25    1
    26    21    22    1
    27    25    24    1
    28    22    24    2
    29    22    23    1
