@<TRIPOS>MOLECULE
2dfv_NAD_A_1.pdb
 44 48 0 0 0
SMALL
GASTEIGER

@<TRIPOS>ATOM
      1  PA        75.1000   42.5050    9.7700 P.3   1401  NAD1401     0.2189
      2  O1A       73.9330   41.8850   10.3880 O.3   1401  NAD1401    -0.4371
      3  O2A       76.4650   42.0380    9.8180 O.2   1401  NAD1401    -0.5170
      4  O5B       74.7800   42.5770    8.1880 O.3   1401  NAD1401    -0.3112
      5  C5B       75.7110   42.8800    7.1710 C.3   1401  NAD1401     0.1813
      6  C4B       75.1870   42.1410    5.9280 C.3   1401  NAD1401     0.1821
      7  O4B       76.1640   42.2930    4.9200 O.3   1401  NAD1401    -0.3135
      8  C3B       75.0690   40.6020    6.1710 C.3   1401  NAD1401     0.2184
      9  O3B       73.7460   40.0950    5.9520 O.3   1401  NAD1401    -0.2174
     10  C2B       76.0530   40.0060    5.1750 C.3   1401  NAD1401     0.2570
     11  O2B       75.5450   38.8260    4.5830 O.3   1401  NAD1401    -0.2130
     12  C1B       76.1130   41.1180    4.1060 C.3   1401  NAD1401     0.3186
     13  N9A       77.2570   41.0010    3.1900 N.pl3 1401  NAD1401    -0.1439
     14  C8A       78.5220   40.3980    3.4230 C.3   1401  NAD1401     0.3377
     15  N7A       79.2800   40.5400    2.3010 N.2   1401  NAD1401    -0.2095
     16  C5A       78.5650   41.2070    1.3550 C.2   1401  NAD1401     0.2526
     17  C6A       78.8330   41.6070    0.0480 C.2   1401  NAD1401     0.4393
     18  N6A       80.0090   41.4770   -0.5530 N.pl3 1401  NAD1401     0.2180
     19  N1A       77.9010   42.3380   -0.6130 N.2   1401  NAD1401     0.0021
     20  C2A       76.6880   42.5820   -0.0500 C.3   1401  NAD1401     0.5254
     21  N3A       76.3950   42.1660    1.1920 N.2   1401  NAD1401    -0.0055
     22  C4A       77.3160   41.5120    1.9120 C.2   1401  NAD1401     0.3518
     23  O3        75.2200   44.0690   10.1860 O.3   1401  NAD1401    -0.2703
     24  PN        74.1270   45.1590   10.6030 P.3   1401  NAD1401     0.2189
     25  O1N       72.9850   45.2240    9.6240 O.2   1401  NAD1401    -0.5170
     26  O2N       73.8690   45.0670   12.0530 O.3   1401  NAD1401    -0.4371
     27  O5D       75.0190   46.4560   10.3480 O.3   1401  NAD1401    -0.3112
     28  C5D       75.4510   46.7570    9.0200 C.3   1401  NAD1401     0.1813
     29  C4D       76.7890   47.5040    9.0280 C.3   1401  NAD1401     0.1799
     30  O4D       76.5850   48.8190    9.6300 O.3   1401  NAD1401    -0.3327
     31  C3D       77.8590   46.7880    9.8420 C.3   1401  NAD1401     0.2158
     32  O3D       79.1050   46.9800    9.1880 O.3   1401  NAD1401    -0.2175
     33  C2D       77.8560   47.5620   11.1700 C.3   1401  NAD1401     0.2309
     34  O2D       79.1130   47.5060   11.8240 O.3   1401  NAD1401    -0.2158
     35  C1D       77.5230   48.9820   10.6920 C.3   1401  NAD1401     0.2263
     36  N1N       76.8930   49.9970   11.5640 N.pl3 1401  NAD1401    -0.2787
     37  C2N       77.5770   51.1740   11.5640 C.3   1401  NAD1401     0.1244
     38  C3N       77.1030   52.2500   12.2620 C.2   1401  NAD1401     0.0544
     39  C7N       77.8620   53.5470   12.0440 C.2   1401  NAD1401     0.2818
     40  O7N       78.6370   53.8230   10.8440 O.2   1401  NAD1401    -0.2670
     41  N7N       77.7860   54.3880   13.0750 N.am  1401  NAD1401    -0.0839
     42  C4N       75.8850   52.1260   12.9890 C.2   1401  NAD1401     0.0033
     43  C5N       75.1570   50.9180   12.9640 C.2   1401  NAD1401     0.0157
     44  C6N       75.6980   49.8430   12.2420 C.2   1401  NAD1401     0.0633
@<TRIPOS>BOND
     1    19    20    1
     2    19    17    2
     3    18    17    1
     4    20    21    1
     5    17    16    1
     6    21    22    2
     7    16    22    1
     8    16    15    2
     9    22    13    1
    10    15    14    1
    11    13    14    1
    12    13    12    1
    13    12     7    1
    14    12    10    1
    15    11    10    1
    16     7     6    1
    17    10     8    1
    18     6     8    1
    19     6     5    1
    20     9     8    1
    21     5     4    1
    22     4     1    1
    23    28    29    1
    24    28    27    1
    25    29    30    1
    26    29    31    1
    27    32    31    1
    28    25    24    2
    29    30    35    1
    30     1     3    2
    31     1    23    1
    32     1     2    1
    33    31    33    1
    34    23    24    1
    35    27    24    1
    36    24    26    1
    37    35    33    1
    38    35    36    1
    39    40    39    2
    40    33    34    1
    41    36    37    1
    42    36    44    1
    43    37    38    1
    44    39    38    1
    45    39    41   am
    46    44    43    2
    47    38    42    2
    48    43    42    1
