@<TRIPOS>MOLECULE
2dg5_GLU_B_1.pdb
 10 9 0 0 0
SMALL
GASTEIGER

@<TRIPOS>ATOM
      1  N         13.6950  -35.8710  -24.8780 N.3   601  GLU601     -0.1208
      2  CA        14.6620  -34.8160  -24.5940 C.3   601  GLU601      0.1949
      3  C         14.1410  -33.9310  -23.4690 C.2   601  GLU601      0.3819
      4  O         12.9030  -33.7840  -23.3780 O.co2 601  GLU601     -0.2441
      5  CB        14.9030  -33.9650  -25.8430 C.3   601  GLU601      0.0424
      6  CG        15.4520  -34.7390  -27.0290 C.3   601  GLU601      0.1161
      7  CD        16.0160  -34.1580  -28.3240 C.2   601  GLU601      0.3649
      8  OE1       16.6530  -33.0920  -28.1380 O.co2 601  GLU601     -0.2457
      9  OE2       15.8180  -35.0290  -29.2830 O.co2 601  GLU601     -0.2457
     10  OXT       14.9720  -33.2700  -22.8070 O.co2 601  GLU601     -0.2441
@<TRIPOS>BOND
     1     9     7   ar
     2     7     8   ar
     3     7     6    1
     4     6     5    1
     5     5     2    1
     6     1     2    1
     7     2     3    1
     8     3     4   ar
     9     3    10   ar
