@<TRIPOS>MOLECULE
2dge_HEM_A_1.pdb
 43 50 0 0 0
SMALL
GASTEIGER

@<TRIPOS>ATOM
      1  CHA       -2.5590   -0.0520   -5.5700 C.2   200  HEM200      0.0000
      2  CHB       -0.4650    0.9720   -1.3550 C.2   200  HEM200      0.0000
      3  CHC       -3.4360    4.7680   -0.7890 C.2   200  HEM200      0.0000
      4  CHD       -6.0100    3.2100   -4.6010 C.2   200  HEM200      0.0000
      5  C1A       -1.7660   -0.0990   -4.4620 C.2   200  HEM200      0.0000
      6  C2A       -0.7420   -1.0870   -4.2580 C.2   200  HEM200      0.0000
      7  C3A       -0.1520   -0.8070   -3.0850 C.2   200  HEM200      0.0000
      8  C4A       -0.7800    0.3710   -2.5380 C.2   200  HEM200      0.0000
      9  CMA        1.0060   -1.5650   -2.4040 C.3   200  HEM200      0.0000
     10  CAA       -0.4460   -2.2590   -5.2230 C.3   200  HEM200      0.0000
     11  CBA       -1.5910   -3.2760   -5.0290 C.3   200  HEM200      0.0000
     12  CGA       -1.6880   -4.3460   -6.0930 C.2   200  HEM200      0.0000
     13  O1A       -1.0610   -4.1890   -7.1620 O.co2 200  HEM200      0.0000
     14  O2A       -2.3870   -5.3700   -5.8780 O.co2 200  HEM200      0.0000
     15  C1B       -1.0790    2.0940   -0.8420 C.ar  200  HEM200      0.0000
     16  C2B       -0.7060    2.7400    0.3920 C.ar  200  HEM200      0.0000
     17  C3B       -1.5280    3.7880    0.5740 C.ar  200  HEM200      0.0000
     18  C4B       -2.4400    3.8380   -0.5670 C.ar  200  HEM200      0.0000
     19  CMB        0.4370    2.2250    1.3030 C.3   200  HEM200      0.0000
     20  CAB       -1.4940    4.7840    1.7650 C.2   200  HEM200      0.0000
     21  CBB       -0.4930    5.7050    1.7170 C.2   200  HEM200      0.0000
     22  C1C       -4.4280    4.6080   -1.7450 C.2   200  HEM200      0.0000
     23  C2C       -5.6550    5.3580   -1.8010 C.2   200  HEM200      0.0000
     24  C3C       -6.3770    4.9450   -2.8520 C.2   200  HEM200      0.0000
     25  C4C       -5.6040    3.9070   -3.4990 C.2   200  HEM200      0.0000
     26  CMC       -6.0080    6.4590   -0.7960 C.3   200  HEM200      0.0000
     27  CAC       -7.7780    5.4700   -3.2830 C.2   200  HEM200      0.0000
     28  CBC       -7.8880    6.7110   -3.8150 C.2   200  HEM200      0.0000
     29  C1D       -5.2640    2.2700   -5.2540 C.ar  200  HEM200      0.0000
     30  C2D       -5.5340    1.7990   -6.5860 C.ar  200  HEM200      0.0000
     31  C3D       -4.4580    0.7820   -6.9170 C.ar  200  HEM200      0.0000
     32  C4D       -3.6440    0.7440   -5.7200 C.ar  200  HEM200      0.0000
     33  CMD       -6.6830    2.2530   -7.5080 C.3   200  HEM200      0.0000
     34  CAD       -4.2980    0.0130   -8.2450 C.3   200  HEM200      0.0000
     35  CBD       -3.2780    0.8040   -9.0680 C.3   200  HEM200      0.0000
     36  CGD       -3.0260    0.1370  -10.3970 C.2   200  HEM200      0.0000
     37  O1D       -2.4510   -0.9850  -10.4210 O.co2 200  HEM200      0.0000
     38  O2D       -3.3630    0.7500  -11.4440 O.co2 200  HEM200      0.0000
     39  NA        -1.7790    0.7870   -3.4110 N.2   200  HEM200      0.0000
     40  NB        -2.1270    2.7920   -1.4110 N.ar  200  HEM200      0.0000
     41  NC        -4.4090    3.7050   -2.7810 N.2   200  HEM200      0.0000
     42  ND        -4.1210    1.6400   -4.7750 N.ar  200  HEM200      0.0000
     43 FE         -3.1210    2.2210   -3.0860 Fe    200  HEM200      0.0000
@<TRIPOS>BOND
     1    38    36   ar
     2    37    36   ar
     3    36    35    1
     4    35    34    1
     5    34    31    1
     6    33    30    1
     7    13    12   ar
     8    31    30   ar
     9    31    32   ar
    10    30    29   ar
    11    12    14   ar
    12    12    11    1
    13    32     1    2
    14    32    42   ar
    15     1     5    1
    16    29    42   ar
    17    29     4    2
    18    10    11    1
    19    10     6    1
    20    42    43    1
    21     4    25    1
    22     5     6    1
    23     5    39    2
    24     6     7    2
    25    28    27    2
    26    25    24    1
    27    25    41    2
    28    39    43    1
    29    39     8    1
    30    27    24    1
    31    43    41    1
    32    43    40    1
    33     7     8    1
    34     7     9    1
    35    24    23    2
    36    41    22    1
    37     8     2    2
    38    23    22    1
    39    23    26    1
    40    22     3    2
    41    40    15   ar
    42    40    18   ar
    43     2    15    1
    44    15    16   ar
    45     3    18    1
    46    18    17   ar
    47    16    17   ar
    48    16    19    1
    49    17    20    1
    50    21    20    2
