@<TRIPOS>MOLECULE
2dgk_PLP_A_1.pdb
 15 15 0 0 0
SMALL
GASTEIGER

@<TRIPOS>ATOM
      1  N1        40.0020  -14.8910   57.1920 N.ar  1500  PLP1500    -0.2452
      2  C2        39.4170  -15.2850   56.0350 C.ar  1500  PLP1500     0.0978
      3  C2A       39.1380  -16.7410   55.8300 C.3   1500  PLP1500     0.0555
      4  C3        39.0950  -14.2780   55.0830 C.ar  1500  PLP1500     0.2049
      5  O3        38.5410  -14.5860   53.9000 O.3   1500  PLP1500    -0.2857
      6  C4        39.3810  -12.9170   55.3680 C.ar  1500  PLP1500     0.0182
      7  C4A       38.9350  -11.8100   54.3860 C.3   1500  PLP1500     0.0342
      8  C5        40.0100  -12.5920   56.6050 C.ar  1500  PLP1500     0.0261
      9  C6        40.2980  -13.6060   57.4860 C.ar  1500  PLP1500     0.0965
     10  C5A       40.4200  -11.1700   56.9930 C.3   1500  PLP1500     0.1815
     11  O4P       39.2370  -10.4100   57.2540 O.3   1500  PLP1500    -0.2653
     12  P         39.3340   -8.8080   57.1860 P.3   1500  PLP1500     0.5329
     13  O1P       37.9390   -8.3200   57.4710 O.3   1500  PLP1500    -0.1145
     14  O2P       40.2800   -8.3800   58.3480 O.3   1500  PLP1500    -0.1145
     15  O3P       39.9630   -8.4470   55.8690 O.2   1500  PLP1500    -0.2224
@<TRIPOS>BOND
     1     5     4    1
     2     7     6    1
     3     4     6   ar
     4     4     2   ar
     5     6     8   ar
     6     3     2    1
     7    15    12    2
     8     2     1   ar
     9     8    10    1
    10     8     9   ar
    11    10    11    1
    12    12    11    1
    13    12    13    1
    14    12    14    1
    15     1     9   ar
