@<TRIPOS>MOLECULE
2dgl_PLP_A_1.pdb
 15 15 0 0 0
SMALL
GASTEIGER

@<TRIPOS>ATOM
      1  N1      -112.3900   81.3460   -6.1030 N.ar  500  PLP500     -0.2452
      2  C2      -111.6780   82.2630   -5.4150 C.ar  500  PLP500      0.0978
      3  C2A     -111.8930   82.3750   -3.9360 C.3   500  PLP500      0.0555
      4  C3      -110.7740   83.0870   -6.1490 C.ar  500  PLP500      0.2049
      5  O3      -110.0070   84.0080   -5.5290 O.3   500  PLP500     -0.2857
      6  C4      -110.6600   82.9250   -7.5600 C.ar  500  PLP500      0.0182
      7  C4A     -109.6850   83.8420   -8.3040 C.3   500  PLP500      0.0342
      8  C5      -111.4540   81.9350   -8.1980 C.ar  500  PLP500      0.0261
      9  C6      -112.2980   81.1690   -7.4380 C.ar  500  PLP500      0.0965
     10  C5A     -111.4430   81.7020   -9.7000 C.3   500  PLP500      0.1815
     11  O4P     -110.3340   80.8600  -10.0320 O.3   500  PLP500     -0.2653
     12  P       -109.7750   80.9500  -11.5270 P.3   500  PLP500      0.5329
     13  O1P     -108.3510   80.5190  -11.4650 O.3   500  PLP500     -0.1145
     14  O2P     -110.5880   79.9110  -12.3640 O.2   500  PLP500     -0.2224
     15  O3P     -110.0900   82.3330  -12.0130 O.3   500  PLP500     -0.1145
@<TRIPOS>BOND
     1    14    12    2
     2    15    12    1
     3    12    13    1
     4    12    11    1
     5    11    10    1
     6    10     8    1
     7     7     6    1
     8     8     6   ar
     9     8     9   ar
    10     6     4   ar
    11     9     1   ar
    12     4     5    1
    13     4     2   ar
    14     1     2   ar
    15     2     3    1
