@<TRIPOS>MOLECULE
2dgm_PLP_A_1.pdb
 15 15 0 0 0
SMALL
GASTEIGER

@<TRIPOS>ATOM
      1  N1         2.8090   31.2770  -22.1420 N.ar  500  PLP500     -0.2452
      2  C2         4.0940   30.8520  -22.0750 C.ar  500  PLP500      0.0978
      3  C2A        5.2010   31.8570  -22.2250 C.3   500  PLP500      0.0555
      4  C3         4.3170   29.4700  -21.8540 C.ar  500  PLP500      0.2049
      5  O3         5.5560   28.9720  -21.7620 O.3   500  PLP500     -0.2857
      6  C4         3.2190   28.5860  -21.7110 C.ar  500  PLP500      0.0182
      7  C4A        3.5430   27.1030  -21.4700 C.3   500  PLP500      0.0342
      8  C5         1.9010   29.1080  -21.7930 C.ar  500  PLP500      0.0261
      9  C6         1.7350   30.4570  -22.0090 C.ar  500  PLP500      0.0965
     10  C5A        0.6520   28.2360  -21.6430 C.3   500  PLP500      0.1815
     11  O4P        0.4980   27.9250  -20.2440 O.3   500  PLP500     -0.2653
     12  P         -0.3540   26.6250  -19.8430 P.3   500  PLP500      0.5329
     13  O1P       -0.0370   26.3480  -18.4000 O.3   500  PLP500     -0.1145
     14  O2P        0.1880   25.4560  -20.7230 O.2   500  PLP500     -0.2224
     15  O3P       -1.7800   26.9160  -20.2280 O.3   500  PLP500     -0.1145
@<TRIPOS>BOND
     1     3     2    1
     2     1     2   ar
     3     1     9   ar
     4     2     4   ar
     5     9     8   ar
     6     4     5    1
     7     4     6   ar
     8     8     6   ar
     9     8    10    1
    10     6     7    1
    11    10    11    1
    12    14    12    2
    13    11    12    1
    14    15    12    1
    15    12    13    1
