@<TRIPOS>MOLECULE
2dgn_GDP_A_1.pdb
 28 30 0 0 0
SMALL
GASTEIGER

@<TRIPOS>ATOM
      1  PB        63.9340   53.0450   36.5190 P.3   1452  GDP1452     0.5373
      2  O1B       63.6880   51.9790   37.5690 O.3   1452  GDP1452    -0.1143
      3  O2B       63.2510   54.3670   36.8130 O.3   1452  GDP1452    -0.1143
      4  O3B       65.4170   53.2260   36.2120 O.2   1452  GDP1452    -0.2221
      5  O3A       63.2470   52.4610   35.1660 O.3   1452  GDP1452    -0.2261
      6  PA        61.6490   52.4760   34.8520 P.3   1452  GDP1452     0.2231
      7  O1A       61.1080   51.2610   35.4970 O.3   1452  GDP1452    -0.4370
      8  O2A       61.1170   53.8020   35.2560 O.2   1452  GDP1452    -0.5169
      9  O5'       61.4470   52.3560   33.2770 O.3   1452  GDP1452    -0.3111
     10  C5'       62.2660   51.5060   32.4830 C.3   1452  GDP1452     0.1813
     11  C4'       61.4080   50.5060   31.7380 C.3   1452  GDP1452     0.1799
     12  O4'       62.2140   49.6670   30.8720 O.3   1452  GDP1452    -0.3326
     13  C3'       60.5950   49.5690   32.6230 C.3   1452  GDP1452     0.2158
     14  O3'       59.2380   49.5300   32.2030 O.3   1452  GDP1452    -0.2175
     15  C2'       61.2970   48.2270   32.4740 C.3   1452  GDP1452     0.2310
     16  O2'       60.4070   47.1450   32.6450 O.3   1452  GDP1452    -0.2158
     17  C1'       61.8420   48.3170   31.0480 C.3   1452  GDP1452     0.2293
     18  N9        63.0400   47.5090   30.8610 N.pl3 1452  GDP1452    -0.2354
     19  C8        64.1620   47.5290   31.6520 C.3   1452  GDP1452     0.2246
     20  N7        65.1700   46.8860   31.1300 N.2   1452  GDP1452    -0.2322
     21  C5        64.6840   46.4110   29.9190 C.2   1452  GDP1452     0.2182
     22  C6        65.3170   45.6300   28.9150 C.1   1452  GDP1452     0.2372
     23  O6        66.4680   45.1870   28.8940 O.2   1452  GDP1452    -0.2069
     24  N1        64.4570   45.3700   27.8550 N.2   1452  GDP1452    -0.2485
     25  C2        63.1570   45.7980   27.7670 C.1   1452  GDP1452     0.2531
     26  N2        62.4910   45.4360   26.6620 N.pl3 1452  GDP1452    -0.0226
     27  N3        62.5550   46.5240   28.6940 N.2   1452  GDP1452    -0.3074
     28  C4        63.3710   46.7900   29.7360 C.2   1452  GDP1452     0.2300
@<TRIPOS>BOND
     1    26    25    1
     2    25    24    2
     3    25    27    2
     4    24    22    2
     5    27    28    2
     6    23    22    2
     7    22    21    1
     8    28    21    1
     9    28    18    1
    10    21    20    2
    11    18    17    1
    12    18    19    1
    13    12    17    1
    14    12    11    1
    15    17    15    1
    16    20    19    1
    17    11    10    1
    18    11    13    1
    19    14    13    1
    20    15    13    1
    21    15    16    1
    22    10     9    1
    23     9     6    1
    24     6     5    1
    25     6     8    2
    26     6     7    1
    27     5     1    1
    28     4     1    2
    29     1     3    1
    30     1     2    1
