@<TRIPOS>MOLECULE
2dgn_DOI_A_1.pdb
 26 28 0 0 0
SMALL
GASTEIGER

@<TRIPOS>ATOM
      1  PA        60.7580   66.5450   39.9990 P.3   1451  DOI1451     0.5327
      2  O1A       59.3470   65.9790   40.0690 O.2   1451  DOI1451    -0.2224
      3  O2A       60.8910   67.8680   40.7330 O.3   1451  DOI1451    -0.1145
      4  O3A       61.7890   65.5190   40.4320 O.3   1451  DOI1451    -0.1145
      5  O5'       61.0290   66.8630   38.4190 O.3   1451  DOI1451    -0.2675
      6  P6        63.3280   57.4710   38.1970 P.3   1451  DOI1451     0.5898
      7  O16       61.9560   56.9680   37.7440 O.3   1451  DOI1451    -0.1039
      8  O26       63.6680   57.0070   39.6100 O.3   1451  DOI1451    -0.1039
      9  O36       64.4390   57.1800   37.1880 O.2   1451  DOI1451    -0.2114
     10  C5'       62.2580   67.4730   37.9650 C.3   1451  DOI1451     0.1859
     11  C4'       62.8090   66.7160   36.7760 C.3   1451  DOI1451     0.1796
     12  O4'       63.1910   65.3860   37.1860 O.3   1451  DOI1451    -0.3155
     13  C1'       62.7550   64.4500   36.2300 C.3   1451  DOI1451     0.2873
     14  N9        62.3790   63.2380   36.9500 N.pl3 1451  DOI1451    -0.1462
     15  C4        62.5520   61.9640   36.4690 C.2   1451  DOI1451     0.3461
     16  N3        62.6560   61.5850   35.1830 N.2   1451  DOI1451    -0.0347
     17  C2        62.8340   60.2660   35.0960 C.3   1451  DOI1451     0.3944
     18  N1        62.9170   59.3580   36.0740 N.2   1451  DOI1451    -0.1827
     19  C6        62.8160   59.7730   37.3570 C.2   1451  DOI1451     0.2580
     20  O6        63.2180   59.0840   38.2940 O.2   1451  DOI1451    -0.3807
     21  C5        62.6090   61.1440   37.5840 C.2   1451  DOI1451     0.2152
     22  N7        62.4540   61.8850   38.7470 N.2   1451  DOI1451    -0.2121
     23  C8        62.3200   63.1150   38.3190 C.3   1451  DOI1451     0.3376
     24  C2'       61.5610   65.0740   35.5130 C.3   1451  DOI1451     0.1151
     25  C3'       61.8740   66.5650   35.5770 C.3   1451  DOI1451     0.1883
     26  O3'       62.4820   67.0330   34.3780 O.3   1451  DOI1451    -0.2202
@<TRIPOS>BOND
     1    26    25    1
     2    17    16    1
     3    17    18    1
     4    16    15    2
     5    24    25    1
     6    24    13    1
     7    25    11    1
     8    18    19    2
     9    13    14    1
    10    13    12    1
    11    15    14    1
    12    15    21    1
    13    11    12    1
    14    11    10    1
    15    14    23    1
    16     9     6    2
    17    19    21    1
    18    19    20    1
    19    21    22    2
    20     7     6    1
    21    10     5    1
    22     6    20    1
    23     6     8    1
    24    23    22    1
    25     5     1    1
    26     1     2    2
    27     1     4    1
    28     1     3    1
