@<TRIPOS>MOLECULE
2dh5_PLP_A_1.pdb
 15 15 0 0 0
SMALL
GASTEIGER

@<TRIPOS>ATOM
      1  N1       100.0800   15.1230   22.2910 N.2   501  PLP501     -0.2716
      2  C2        99.0100   14.6440   21.5440 C.2   501  PLP501      0.0661
      3  C2A       97.6910   14.5620   22.2110 C.3   501  PLP501      0.0498
      4  C3        99.3010   14.0890   20.2490 C.3   501  PLP501      0.2051
      5  O3        98.2590   13.4820   19.5330 O.3   501  PLP501     -0.2125
      6  C4       100.6080   13.9930   19.8080 C.2   501  PLP501     -0.0124
      7  C4A      100.7440   13.3540   18.5010 C.3   501  PLP501      0.0288
      8  C5       101.6720   14.4420   20.5630 C.2   501  PLP501      0.0046
      9  C6       101.4050   15.0800   21.8380 C.3   501  PLP501      0.1488
     10  C5A      103.1350   14.1830   20.3720 C.3   501  PLP501      0.1774
     11  O4P      103.6770   15.0650   19.3570 O.3   501  PLP501     -0.2656
     12  P        104.4630   16.3060   19.4420 P.3   501  PLP501      0.5329
     13  O1P      105.6180   16.2550   20.5820 O.3   501  PLP501     -0.1145
     14  O2P      103.3240   17.3750   19.7390 O.3   501  PLP501     -0.1145
     15  O3P      105.0660   16.3050   17.9470 O.2   501  PLP501     -0.2224
@<TRIPOS>BOND
     1    15    12    2
     2     7     6    1
     3    11    12    1
     4    11    10    1
     5    12    14    1
     6    12    13    1
     7     5     4    1
     8     6     4    1
     9     6     8    2
    10     4     2    1
    11    10     8    1
    12     8     9    1
    13     2     3    1
    14     2     1    2
    15     9     1    1
