@<TRIPOS>MOLECULE
2dhb_HEM_A_1.pdb
 43 50 0 0 0
SMALL
GASTEIGER

@<TRIPOS>ATOM
      1  CHA        8.7040    9.3300  -18.4590 C.2   142  HEM142      0.0000
      2  CHB       10.2780   11.5120  -14.4070 C.2   142  HEM142      0.0000
      3  CHC        8.3590    7.9050  -11.7420 C.2   142  HEM142      0.0000
      4  CHD        7.0200    5.6450  -15.8270 C.2   142  HEM142      0.0000
      5  C1A        9.3330   10.2560  -17.6150 C.2   142  HEM142      0.0000
      6  C2A       10.1450   11.3040  -17.9920 C.2   142  HEM142      0.0000
      7  C3A       10.5750   11.9370  -16.8430 C.2   142  HEM142      0.0000
      8  C4A       10.0750   11.2320  -15.7700 C.2   142  HEM142      0.0000
      9  CMA       11.5640   13.0940  -16.7910 C.3   142  HEM142      0.0000
     10  CAA       10.5690   11.6540  -19.4100 C.3   142  HEM142      0.0000
     11  CBA        9.6540   12.7140  -20.0150 C.3   142  HEM142      0.0000
     12  CGA        9.8840   12.8190  -21.5230 C.2   142  HEM142      0.0000
     13  O1A        9.7790   11.8160  -22.2640 O.co2 142  HEM142      0.0000
     14  O2A        9.9830   14.0150  -22.0530 O.co2 142  HEM142      0.0000
     15  C1B        9.8750   10.7690  -13.2770 C.ar  142  HEM142      0.0000
     16  C2B       10.2930   10.9530  -11.9760 C.ar  142  HEM142      0.0000
     17  C3B        9.7070    9.9390  -11.1960 C.ar  142  HEM142      0.0000
     18  C4B        9.0040    9.1230  -12.0650 C.ar  142  HEM142      0.0000
     19  CMB       11.2830   12.0520  -11.5360 C.3   142  HEM142      0.0000
     20  CAB       10.1940    9.4140   -9.9840 C.3   142  HEM142      0.0000
     21  CBB       11.4410    9.7340   -9.4420 C.3   142  HEM142      0.0000
     22  C1C        7.8220    6.9100  -12.5920 C.2   142  HEM142      0.0000
     23  C2C        7.5720    5.5850  -12.2770 C.2   142  HEM142      0.0000
     24  C3C        7.2370    4.9340  -13.4780 C.2   142  HEM142      0.0000
     25  C4C        7.3380    5.8540  -14.4760 C.2   142  HEM142      0.0000
     26  CMC        7.8780    4.9320  -10.9170 C.3   142  HEM142      0.0000
     27  CAC        6.6940    3.6570  -13.6970 C.3   142  HEM142      0.0000
     28  CBC        6.2370    2.8140  -12.6890 C.3   142  HEM142      0.0000
     29  C1D        7.2560    6.4610  -16.9270 C.ar  142  HEM142      0.0000
     30  C2D        7.0160    6.1640  -18.2420 C.ar  142  HEM142      0.0000
     31  C3D        7.4910    7.2190  -18.9960 C.ar  142  HEM142      0.0000
     32  C4D        8.0290    8.1400  -18.1260 C.ar  142  HEM142      0.0000
     33  CMD        6.2950    4.9260  -18.7810 C.3   142  HEM142      0.0000
     34  CAD        7.4910    7.2760  -20.5110 C.3   142  HEM142      0.0000
     35  CBD        8.8820    7.2930  -21.1200 C.3   142  HEM142      0.0000
     36  CGD        8.8510    6.5440  -22.4350 C.2   142  HEM142      0.0000
     37  O1D        9.5130    5.5030  -22.5120 O.co2 142  HEM142      0.0000
     38  O2D        8.0790    6.8680  -23.4450 O.co2 142  HEM142      0.0000
     39  NA         9.3430   10.2270  -16.2750 N.2   142  HEM142      0.0000
     40  NB         9.1480    9.6450  -13.2970 N.ar  142  HEM142      0.0000
     41  NC         7.7280    7.0210  -13.9280 N.2   142  HEM142      0.0000
     42  ND         7.8780    7.6520  -16.8890 N.ar  142  HEM142      0.0000
     43 FE          8.1970    8.8050  -15.0690 Fe    142  HEM142      0.0000
@<TRIPOS>BOND
     1    38    36   ar
     2    37    36   ar
     3    36    35    1
     4    13    12   ar
     5    14    12   ar
     6    12    11    1
     7    35    34    1
     8    34    31    1
     9    11    10    1
    10    10     6    1
    11    31    30   ar
    12    31    32   ar
    13    33    30    1
    14     1    32    2
    15     1     5    1
    16    30    29   ar
    17    32    42   ar
    18     6     5    1
    19     6     7    2
    20     5    39    2
    21    29    42   ar
    22    29     4    2
    23    42    43    1
    24     7     9    1
    25     7     8    1
    26    39     8    1
    27    39    43    1
    28     4    25    1
    29     8     2    2
    30    43    41    1
    31    43    40    1
    32    25    41    2
    33    25    24    1
    34     2    15    1
    35    41    22    1
    36    27    24    1
    37    27    28    1
    38    24    23    2
    39    40    15   ar
    40    40    18   ar
    41    15    16   ar
    42    22    23    1
    43    22     3    2
    44    23    26    1
    45    18     3    1
    46    18    17   ar
    47    16    19    1
    48    16    17   ar
    49    17    20    1
    50    20    21    1
