@<TRIPOS>MOLECULE
2dhf_DZF_A_1.pdb
 32 34 0 0 0
SMALL
GASTEIGER

@<TRIPOS>ATOM
      1  N1        26.9020   31.8660   21.4190 N.2   187  DZF187     -0.2695
      2  C2        28.0250   32.2370   20.7930 C.1   187  DZF187      0.2608
      3  NA2       28.3190   33.4530   20.5290 N.pl3 187  DZF187     -0.0220
      4  N3        28.9820   31.2840   20.4480 N.2   187  DZF187     -0.2490
      5  C4        28.8450   29.9450   20.7430 C.1   187  DZF187      0.2263
      6  O4        29.7670   29.1850   20.4240 O.2   187  DZF187     -0.2078
      7  C4A       27.5870   29.5530   21.4030 C.2   187  DZF187      0.1696
      8  C5        27.3750   28.2380   21.7120 C.2   187  DZF187      0.0229
      9  C6        26.2300   27.9750   22.3270 C.2   187  DZF187      0.0208
     10  C7        25.3510   29.0450   22.5910 C.2   187  DZF187      0.1080
     11  N8        25.5560   30.3180   22.3180 N.2   187  DZF187     -0.1812
     12  C8A       26.7050   30.5390   21.7270 C.1   187  DZF187      0.1132
     13  C9        25.8440   26.5750   22.7010 C.3   187  DZF187      0.1401
     14  N10       26.9610   25.6050   22.6810 N.pl3 187  DZF187     -0.2328
     15  C11       30.6200   25.8430   24.6320 C.ar  187  DZF187      0.0551
     16  C12       29.6580   26.8280   24.7820 C.ar  187  DZF187      0.0059
     17  C13       28.4170   26.7960   24.1420 C.ar  187  DZF187      0.0162
     18  C14       28.1590   25.7360   23.3530 C.ar  187  DZF187      0.0657
     19  C15       29.1060   24.6950   23.1670 C.ar  187  DZF187      0.0162
     20  C16       30.3080   24.7460   23.8150 C.ar  187  DZF187      0.0059
     21  C         31.8870   26.0060   25.3750 C.2   187  DZF187      0.2652
     22  O         32.7580   25.1410   25.3240 O.2   187  DZF187     -0.2684
     23  N         32.0590   27.0610   26.1430 N.am  187  DZF187     -0.1918
     24  CA        33.3740   27.2930   26.9070 C.3   187  DZF187      0.1986
     25  CB        34.3810   27.6570   25.7850 C.3   187  DZF187      0.0451
     26  CG        35.2820   28.9580   26.1010 C.3   187  DZF187      0.1164
     27  CD        36.7130   28.5730   25.5550 C.2   187  DZF187      0.3649
     28  OE1       36.8610   27.3530   25.8510 O.co2 187  DZF187     -0.2457
     29  OE2       37.4430   29.3280   24.9280 O.co2 187  DZF187     -0.2457
     30  CT        33.2900   28.3630   27.9420 C.2   187  DZF187      0.3842
     31  O1        32.4810   29.3150   27.8230 O.co2 187  DZF187     -0.2437
     32  O2        34.1060   28.2540   28.9030 O.co2 187  DZF187     -0.2437
@<TRIPOS>BOND
     1     6     5    2
     2     4     5    2
     3     4     2    2
     4     3     2    1
     5     5     7    1
     6     2     1    2
     7     7     8    2
     8     7    12    1
     9     1    12    2
    10     8     9    1
    11    12    11    2
    12    11    10    1
    13     9    10    2
    14     9    13    1
    15    14    13    1
    16    14    18    1
    17    19    18   ar
    18    19    20   ar
    19    18    17   ar
    20    20    15   ar
    21    17    16   ar
    22    15    16   ar
    23    15    21    1
    24    29    27   ar
    25    22    21    2
    26    21    23   am
    27    27    28   ar
    28    27    26    1
    29    25    26    1
    30    25    24    1
    31    23    24    1
    32    24    30    1
    33    31    30   ar
    34    30    32   ar
