@<TRIPOS>MOLECULE
2dhn_PH2_A_1.pdb
 14 15 0 0 0
SMALL
GASTEIGER

@<TRIPOS>ATOM
      1  N1        48.5430   47.5810   74.6320 N.2   122  PH2122     -0.3830
      2  C2        49.5880   47.4590   73.8840 C.2   122  PH2122      0.1470
      3  C3        50.5720   46.5170   74.0870 C.3   122  PH2122      0.1940
      4  N4        50.3940   45.6780   75.1480 N.2   122  PH2122     -0.1992
      5  N5        49.1130   44.8720   77.1050 N.2   122  PH2122     -0.2672
      6  C6        48.0040   45.0290   77.8510 C.1   122  PH2122      0.2609
      7  N6        47.6280   44.2530   78.9320 N.pl3 122  PH2122     -0.0220
      8  N7        47.0370   46.0310   77.5560 N.2   122  PH2122     -0.2466
      9  C8        47.1700   46.9380   76.4450 C.1   122  PH2122      0.2569
     10  O8        46.3200   47.8180   76.1500 O.2   122  PH2122     -0.2052
     11  C9        48.3670   46.7680   75.6620 C.2   122  PH2122      0.2989
     12  C10       49.2760   45.7430   76.0240 C.1   122  PH2122      0.1401
     13  C11       49.7030   48.3680   72.7790 C.3   122  PH2122      0.2380
     14  O4        49.7380   47.5940   71.6020 O.3   122  PH2122     -0.2126
@<TRIPOS>BOND
     1    14    13    1
     2    13     2    1
     3     2     3    1
     4     2     1    2
     5     3     4    1
     6     1    11    2
     7     4    12    2
     8    11    12    1
     9    11     9    1
    10    12     5    2
    11    10     9    2
    12     9     8    2
    13     5     6    2
    14     8     6    2
    15     6     7    1
