@<TRIPOS>MOLECULE
2dhr_ADP_A_1.pdb
 27 29 0 0 0
SMALL
GASTEIGER

@<TRIPOS>ATOM
      1  PB        -1.7440   98.0080   38.3320 P.3   1001  ADP1001     0.5373
      2  O1B       -1.4700   98.7730   39.5590 O.3   1001  ADP1001    -0.1143
      3  O2B       -3.1350   98.3960   37.8070 O.2   1001  ADP1001    -0.2221
      4  O3B       -1.6260   96.5090   38.6580 O.3   1001  ADP1001    -0.1143
      5  PA        -0.7990   99.8730   36.5630 P.3   1001  ADP1001     0.2231
      6  O1A       -2.2320  100.1030   36.2500 O.2   1001  ADP1001    -0.5169
      7  O2A       -0.3320  100.9740   37.5260 O.3   1001  ADP1001    -0.4370
      8  O3A       -0.6570   98.4130   37.2170 O.3   1001  ADP1001    -0.2261
      9  O5'        0.1730   99.8060   35.2800 O.3   1001  ADP1001    -0.3111
     10  C5'        1.4840  100.2950   35.3840 C.3   1001  ADP1001     0.1813
     11  C4'        1.9420  100.7430   34.0040 C.3   1001  ADP1001     0.1821
     12  O4'        0.8450  100.7800   33.1150 O.3   1001  ADP1001    -0.3135
     13  C3'        2.5660  102.1380   33.9910 C.3   1001  ADP1001     0.2184
     14  O3'        3.9860  102.0960   34.0290 O.3   1001  ADP1001    -0.2174
     15  C2'        2.0560  102.7830   32.7090 C.3   1001  ADP1001     0.2570
     16  O2'        3.0560  102.8290   31.7130 O.3   1001  ADP1001    -0.2130
     17  C1'        0.9270  101.8850   32.2320 C.3   1001  ADP1001     0.3186
     18  N9        -0.3750  102.5770   32.2220 N.pl3 1001  ADP1001    -0.1439
     19  C8        -1.5190  102.0450   32.7390 C.3   1001  ADP1001     0.3377
     20  N7        -2.5350  102.9160   32.5530 N.2   1001  ADP1001    -0.2095
     21  C5        -2.0700  104.0130   31.9240 C.2   1001  ADP1001     0.2526
     22  C6        -2.7030  105.1930   31.5170 C.2   1001  ADP1001     0.4393
     23  N6        -3.8030  105.5940   32.1450 N.pl3 1001  ADP1001     0.2180
     24  N1        -1.9610  106.1600   30.8810 N.2   1001  ADP1001     0.0021
     25  C2        -0.6130  105.9470   30.6680 C.3   1001  ADP1001     0.5254
     26  N3         0.0080  104.7800   31.0810 N.2   1001  ADP1001    -0.0055
     27  C4        -0.7070  103.8120   31.7050 C.2   1001  ADP1001     0.3518
@<TRIPOS>BOND
     1    25    24    1
     2    25    26    1
     3    24    22    2
     4    26    27    2
     5    22    21    1
     6    22    23    1
     7    27    21    1
     8    27    18    1
     9    16    15    1
    10    21    20    2
    11    18    17    1
    12    18    19    1
    13    17    15    1
    14    17    12    1
    15    20    19    1
    16    15    13    1
    17    12    11    1
    18    13    11    1
    19    13    14    1
    20    11    10    1
    21     9    10    1
    22     9     5    1
    23     6     5    2
    24     5     8    1
    25     5     7    1
    26     8     1    1
    27     3     1    2
    28     1     4    1
    29     1     2    1
