@<TRIPOS>MOLECULE
2dij_G6D_A_1.pdb
 10 10 0 0 0
SMALL
GASTEIGER

@<TRIPOS>ATOM
      1  C1        48.7360   88.9710   46.8230 C.3   704  G6D704      0.3021
      2  O2        50.4540   87.4800   46.1110 O.3   704  G6D704     -0.2149
      3  C2        49.0880   87.5360   46.4910 C.3   704  G6D704      0.2409
      4  C3A       48.2340   86.9640   45.3870 C.3   704  G6D704      0.1898
      5  O3A       48.3180   85.5380   45.3730 O.3   704  G6D704     -0.2201
      6  C4A       46.7730   87.2970   45.6050 C.3   704  G6D704      0.0653
      7  C5A       46.5880   88.7960   45.7280 C.3   704  G6D704      0.1206
      8  O5        47.3410   89.2590   46.8510 O.3   704  G6D704     -0.3290
      9  C6A       45.1520   89.1500   45.9770 C.3   704  G6D704      0.0322
     10  O1        49.4240   89.8160   45.9300 O.3   704  G6D704     -0.1869
@<TRIPOS>BOND
     1     5     4    1
     2     4     6    1
     3     4     3    1
     4     6     7    1
     5     7     9    1
     6     7     8    1
     7    10     1    1
     8     2     3    1
     9     3     1    1
    10     1     8    1
