@<TRIPOS>MOLECULE
2dij_GLC_A_10.pdb
 11 11 0 0 0
SMALL
GASTEIGER

@<TRIPOS>ATOM
      1  C1        39.3980   90.4000   50.2890 C.3   707  GLC707      0.3022
      2  C2        39.8190   91.8560   50.2750 C.3   707  GLC707      0.2409
      3  C3        40.8860   92.1540   51.3020 C.3   707  GLC707      0.1899
      4  C4        40.5340   91.5580   52.6480 C.3   707  GLC707      0.0681
      5  C5        40.2960   90.0710   52.4990 C.3   707  GLC707      0.1534
      6  C6        39.9390   89.4430   53.8130 C.3   707  GLC707      0.2116
      7  O1        40.3490   89.6340   49.5830 O.3   707  GLC707     -0.1869
      8  O2        40.2950   92.1860   48.9770 O.3   707  GLC707     -0.2149
      9  O3        41.0600   93.5590   51.5040 O.3   707  GLC707     -0.2201
     10  O5        39.2000   89.8840   51.6010 O.3   707  GLC707     -0.3263
     11  O6        40.6640   88.2260   54.0130 O.3   707  GLC707     -0.2177
@<TRIPOS>BOND
     1     8     2    1
     2     7     1    1
     3     2     1    1
     4     2     3    1
     5     1    10    1
     6     3     9    1
     7     3     4    1
     8    10     5    1
     9     5     4    1
    10     5     6    1
    11     6    11    1
