@<TRIPOS>MOLECULE
2dij_ADH_A_1.pdb
 11 11 0 0 0
SMALL
GASTEIGER

@<TRIPOS>ATOM
      1  C1        45.2650   85.4780   44.5670 C.3   705  ADH705      0.1247
      2  C2        43.9310   85.5740   43.8600 C.3   705  ADH705      0.1995
      3  C3        42.9990   86.4320   44.6700 C.3   705  ADH705      0.1837
      4  C4        42.6970   85.7120   45.9620 C.3   705  ADH705      0.0383
      5  C5        43.8820   85.3760   46.6410 C.3   705  ADH705      0.0372
      6  C6        43.7390   84.2440   47.6250 C.3   705  ADH705      0.1822
      7  C7        45.1220   85.2330   45.9620 C.3   705  ADH705      0.0244
      8  N1        45.9590   86.7390   44.3870 N.3   705  ADH705     -0.1301
      9  O2        44.1090   86.0700   42.5410 O.3   705  ADH705     -0.2189
     10  O3        41.7660   86.6670   43.9920 O.3   705  ADH705     -0.2204
     11  O6        42.8540   83.2090   47.1990 O.3   705  ADH705     -0.2204
@<TRIPOS>BOND
     1     9     2    1
     2     2     1    1
     3     2     3    1
     4    10     3    1
     5     8     1    1
     6     1     7    1
     7     3     4    1
     8     4     5    1
     9     7     5    1
    10     5     6    1
    11    11     6    1
