@<TRIPOS>MOLECULE
2dio_EOD_B_1.pdb
 21 21 0 0 0
SMALL
GASTEIGER

@<TRIPOS>ATOM
      1  O1        33.7750   93.5630   54.2130 O.co2 401  EOD401     -0.2457
      2  C1        32.9470   94.4600   53.9430 C.2   401  EOD401      0.3649
      3  O2        33.2140   95.6730   53.8020 O.co2 401  EOD401     -0.2457
      4  C2        31.4890   94.0350   53.7570 C.3   401  EOD401      0.1141
      5  C3        30.6560   95.0770   53.0080 C.3   401  EOD401      0.0118
      6  C4        31.1730   95.3870   51.6020 C.3   401  EOD401      0.0006
      7  C5        30.0940   95.1350   50.5470 C.3   401  EOD401      0.0000
      8  C6        30.7340   95.0410   49.1600 C.3   401  EOD401      0.0000
      9  C7        29.9750   94.0810   48.2410 C.3   401  EOD401      0.0000
     10  C8        30.6270   94.0310   46.8580 C.3   401  EOD401      0.0000
     11  C9        30.8510   92.5570   46.5110 C.3   401  EOD401      0.0001
     12  C10       30.3320   92.0470   45.1660 C.3   401  EOD401      0.0026
     13  C11       29.6480   93.1230   44.3200 C.3   401  EOD401      0.0321
     14  C12       28.1930   92.7850   44.0470 C.3   401  EOD401      0.1425
     15  O3        27.2100   93.8280   44.1200 O.3   401  EOD401     -0.3534
     16  C13       27.4860   93.3120   42.8100 C.3   401  EOD401      0.1465
     17  C14       28.4190   94.0900   41.8950 C.3   401  EOD401      0.0577
     18  C15       27.8830   93.9090   40.4740 C.2   401  EOD401     -0.0281
     19  C16       28.7220   93.1170   39.4690 C.2   401  EOD401     -0.0306
     20  C17       30.0600   92.5740   39.9740 C.3   401  EOD401      0.0257
     21  C18       30.6100   91.5350   38.9950 C.3   401  EOD401      0.0050
@<TRIPOS>BOND
     1    21    20    1
     2    19    20    1
     3    19    18    2
     4    18    17    1
     5    17    16    1
     6    16    14    1
     7    16    15    1
     8    14    15    1
     9    14    13    1
    10    13    12    1
    11    12    11    1
    12    11    10    1
    13    10     9    1
    14     9     8    1
    15     8     7    1
    16     7     6    1
    17     6     5    1
    18     5     4    1
    19     4     2    1
    20     3     2   ar
    21     2     1   ar
