@<TRIPOS>MOLECULE
2djh_UM3_A_1.pdb
 20 21 0 0 0
SMALL
GASTEIGER

@<TRIPOS>ATOM
      1  N1         6.0330   13.6750    5.0300 N.am  118  UM3118     -0.1790
      2  C2         4.7540   13.0530    5.1340 C.1   118  UM3118      0.2844
      3  N3         3.6920   13.7950    4.5810 N.2   118  UM3118     -0.2452
      4  C4         3.7760   15.0490    3.9590 C.1   118  UM3118      0.2182
      5  C5         5.1240   15.6240    3.8860 C.2   118  UM3118      0.1242
      6  C6         6.1930   14.9410    4.4100 C.2   118  UM3118      0.0928
      7  O2         4.5660   11.9630    5.6630 O.2   118  UM3118     -0.1918
      8  O4         2.7610   15.5810    3.5260 O.2   118  UM3118     -0.2085
      9  C1'        7.1900   12.8850    5.6490 C.3   118  UM3118      0.2089
     10  C2'        8.3500   12.4440    4.7570 C.3   118  UM3118      0.0847
     11  C3'        9.5480   12.5610    5.7400 C.3   118  UM3118      0.1601
     12  C4'        9.1490   13.8010    6.5550 C.3   118  UM3118      0.1775
     13  O3'        9.6170   11.4510    6.6740 O.3   118  UM3118     -0.2700
     14  O4'        7.7120   13.6940    6.6770 O.3   118  UM3118     -0.3339
     15  C5'        9.6080   15.1230    6.0090 C.3   118  UM3118      0.2140
     16  O5'       10.9470   15.3420    6.4890 O.3   118  UM3118     -0.2176
     17  P         10.0670   10.0970    6.0740 P.3   118  UM3118      0.5326
     18  O1P       10.0900    9.1430    7.1310 O.3   118  UM3118     -0.1145
     19  O2P       11.3770   10.2390    5.5180 O.3   118  UM3118     -0.1145
     20  O3P        9.1650    9.6240    5.0640 O.2   118  UM3118     -0.2224
@<TRIPOS>BOND
     1     8     4    2
     2     5     4    1
     3     5     6    2
     4     4     3    2
     5     6     1    1
     6     3     2    2
     7    10     9    1
     8    10    11    1
     9     1     2   am
    10     1     9    1
    11    20    17    2
    12     2     7    2
    13    19    17    1
    14     9    14    1
    15    11    12    1
    16    11    13    1
    17    15    16    1
    18    15    12    1
    19    17    13    1
    20    17    18    1
    21    12    14    1
