@<TRIPOS>MOLECULE
2djh_3PD_A_1.pdb
 22 24 0 0 0
SMALL
GASTEIGER

@<TRIPOS>ATOM
      1  O5'       11.1620   13.4190    0.9290 O.3   117  3PD117     -0.2176
      2  C5'       11.9690   12.7860    1.9220 C.3   117  3PD117      0.2140
      3  C4'       13.0490   13.7240    2.4310 C.3   117  3PD117      0.1774
      4  O4'       13.9990   14.0950    1.3820 O.3   117  3PD117     -0.3347
      5  C1'       14.4650   15.4120    1.5670 C.3   117  3PD117      0.1980
      6  C2'       13.7680   16.0070    2.8070 C.3   117  3PD117      0.0836
      7  C3'       12.5530   15.0590    3.0190 C.3   117  3PD117      0.1573
      8  O3'       12.2530   14.8190    4.4180 O.3   117  3PD117     -0.2951
      9  N9        14.2820   16.1830    0.2670 N.pl3 117  3PD117     -0.2374
     10  C4        13.1040   16.5160   -0.4070 C.2   117  3PD117      0.2299
     11  N3        11.7980   16.1920   -0.0060 N.2   117  3PD117     -0.3074
     12  C2        10.8350   16.6540   -0.8580 C.1   117  3PD117      0.2531
     13  N2         9.5360   16.4410   -0.6240 N.pl3 117  3PD117     -0.0226
     14  N1        11.1530   17.3820   -2.0230 N.2   117  3PD117     -0.2485
     15  C6        12.4880   17.7210   -2.4530 C.1   117  3PD117      0.2372
     16  O6        12.6390   18.3630   -3.4930 O.2   117  3PD117     -0.2069
     17  C5        13.5050   17.2340   -1.5500 C.2   117  3PD117      0.2182
     18  N7        14.8850   17.3520   -1.6000 N.2   117  3PD117     -0.2322
     19  C8        15.2910   16.7250   -0.5230 C.3   117  3PD117      0.2245
     20  P         12.0560   15.9630    5.5260 P.3   117  3PD117      0.3942
     21  O1P       13.3100   16.0970    6.2840 O.3   117  3PD117     -0.1425
     22  O2P       11.5280   17.1910    4.8900 O.3   117  3PD117     -0.1425
@<TRIPOS>BOND
     1    16    15    2
     2    15    14    2
     3    15    17    1
     4    14    12    2
     5    18    17    2
     6    18    19    1
     7    17    10    1
     8    12    13    1
     9    12    11    2
    10    19     9    1
    11    10    11    2
    12    10     9    1
    13     9     5    1
    14     1     2    1
    15     4     5    1
    16     4     3    1
    17     5     6    1
    18     2     3    1
    19     3     7    1
    20     6     7    1
    21     7     8    1
    22     8    20    1
    23    22    20    1
    24    20    21    1
