@<TRIPOS>MOLECULE
2djl_FMN_A_1.pdb
 31 33 0 0 0
SMALL
GASTEIGER

@<TRIPOS>ATOM
      1  N1         9.9670   47.4800   75.4450 N.2   1350  FMN1350    -0.2887
      2  C2        10.6810   47.9890   74.3910 C.1   1350  FMN1350     0.3669
      3  O2        11.2160   47.2240   73.5930 O.2   1350  FMN1350    -0.1744
      4  N3        10.7920   49.3590   74.2330 N.2   1350  FMN1350    -0.2300
      5  C4        10.2220   50.2530   75.1100 C.1   1350  FMN1350     0.2513
      6  O4        10.5180   51.4550   75.0310 O.2   1350  FMN1350    -0.2057
      7  C4A        9.5070   49.7350   76.1820 C.2   1350  FMN1350     0.2706
      8  N5         8.9220   50.5860   77.0930 N.2   1350  FMN1350    -0.3841
      9  C5A        8.2580   50.0570   78.1850 C.2   1350  FMN1350     0.1452
     10  C6         7.6720   50.9040   79.1220 C.2   1350  FMN1350     0.0252
     11  C7         6.9930   50.3930   80.2260 C.2   1350  FMN1350    -0.0375
     12  C7M        6.7040   51.3440   81.3580 C.3   1350  FMN1350     0.0268
     13  C8         6.8950   49.0060   80.3940 C.3   1350  FMN1350     0.0417
     14  C8M        6.4970   48.4040   81.7150 C.3   1350  FMN1350     0.0091
     15  C9         7.4630   48.1590   79.4430 C.2   1350  FMN1350    -0.0049
     16  C9A        8.1530   48.6730   78.3480 C.2   1350  FMN1350     0.0795
     17  N10        8.7150   47.8230   77.4100 N.pl3 1350  FMN1350    -0.2545
     18  C10        9.3990   48.3510   76.3460 C.2   1350  FMN1350     0.2449
     19  C1'        8.5540   46.3390   77.4990 C.3   1350  FMN1350     0.1336
     20  C2'        9.6510   45.8090   78.4200 C.3   1350  FMN1350     0.2048
     21  O2'       10.9160   46.0410   77.8420 O.3   1350  FMN1350    -0.2185
     22  C3'        9.5000   44.3130   78.6540 C.3   1350  FMN1350     0.2165
     23  O3'        9.6030   43.6610   77.3970 O.3   1350  FMN1350    -0.2175
     24  C4'        8.1710   43.9430   79.3170 C.3   1350  FMN1350     0.2147
     25  O4'        7.8430   44.8860   80.3190 O.3   1350  FMN1350    -0.2176
     26  C5'        8.1830   42.5300   79.9060 C.3   1350  FMN1350     0.1892
     27  O5'        9.1590   42.4040   80.9220 O.3   1350  FMN1350    -0.2674
     28  P          8.7020   42.4420   82.4760 P.3   1350  FMN1350     0.5327
     29  O1P        7.7830   41.2710   82.7150 O.3   1350  FMN1350    -0.1145
     30  O2P        9.9770   42.3620   83.2890 O.3   1350  FMN1350    -0.1145
     31  O3P        7.9740   43.7540   82.6900 O.2   1350  FMN1350    -0.2224
@<TRIPOS>BOND
     1     3     2    2
     2     4     2    2
     3     4     5    2
     4     2     1    2
     5     6     5    2
     6     5     7    1
     7     1    18    2
     8     7    18    1
     9     7     8    2
    10    18    17    1
    11     8     9    2
    12    23    22    1
    13    17    19    1
    14    17    16    1
    15    19    20    1
    16    21    20    1
    17     9    16    1
    18     9    10    1
    19    16    15    2
    20    20    22    1
    21    22    24    1
    22    10    11    2
    23    24    26    1
    24    24    25    1
    25    15    13    1
    26    26    27    1
    27    11    13    1
    28    11    12    1
    29    13    14    1
    30    27    28    1
    31    28    31    2
    32    28    29    1
    33    28    30    1
