@<TRIPOS>MOLECULE
2djx_FMN_A_1.pdb
 31 33 0 0 0
SMALL
GASTEIGER

@<TRIPOS>ATOM
      1  N1        10.3520   48.4630   77.1510 N.2   1350  FMN1350    -0.2887
      2  C2        11.0810   48.9710   76.0980 C.1   1350  FMN1350     0.3669
      3  O2        11.6350   48.1980   75.3150 O.2   1350  FMN1350    -0.1744
      4  N3        11.2300   50.3380   75.9600 N.2   1350  FMN1350    -0.2300
      5  C4        10.6560   51.2270   76.8520 C.1   1350  FMN1350     0.2513
      6  O4        10.8990   52.4480   76.7390 O.2   1350  FMN1350    -0.2057
      7  C4A        9.9100   50.7130   77.9260 C.2   1350  FMN1350     0.2706
      8  N5         9.3240   51.5590   78.8600 N.2   1350  FMN1350    -0.3841
      9  C5A        8.6380   51.0220   79.9400 C.2   1350  FMN1350     0.1452
     10  C6         8.0590   51.8840   80.8770 C.2   1350  FMN1350     0.0252
     11  C7         7.3630   51.3980   81.9780 C.2   1350  FMN1350    -0.0375
     12  C7M        7.1250   52.3550   83.1200 C.3   1350  FMN1350     0.0268
     13  C8         7.2240   50.0040   82.1530 C.3   1350  FMN1350     0.0417
     14  C8M        6.8060   49.4250   83.4880 C.3   1350  FMN1350     0.0091
     15  C9         7.7910   49.1450   81.1970 C.2   1350  FMN1350    -0.0049
     16  C9A        8.5040   49.6410   80.0960 C.2   1350  FMN1350     0.0795
     17  N10        9.0560   48.7830   79.1350 N.pl3 1350  FMN1350    -0.2545
     18  C10        9.7700   49.3190   78.0720 C.2   1350  FMN1350     0.2449
     19  C1'        8.8520   47.2930   79.2380 C.3   1350  FMN1350     0.1336
     20  C2'        9.9350   46.7270   80.1690 C.3   1350  FMN1350     0.2048
     21  O2'       11.2210   46.9670   79.6080 O.3   1350  FMN1350    -0.2185
     22  C3'        9.7980   45.2200   80.4140 C.3   1350  FMN1350     0.2165
     23  O3'        9.9390   44.5770   79.1580 O.3   1350  FMN1350    -0.2175
     24  C4'        8.4620   44.8330   81.0700 C.3   1350  FMN1350     0.2147
     25  O4'        8.1380   45.7970   82.0430 O.3   1350  FMN1350    -0.2176
     26  C5'        8.4550   43.4180   81.6850 C.3   1350  FMN1350     0.1892
     27  O5'        9.4230   43.2650   82.7190 O.3   1350  FMN1350    -0.2674
     28  P          8.9940   43.3170   84.2960 P.3   1350  FMN1350     0.5327
     29  O1P        8.0710   42.1510   84.5670 O.3   1350  FMN1350    -0.1145
     30  O2P       10.2800   43.2940   85.1090 O.3   1350  FMN1350    -0.1145
     31  O3P        8.2600   44.6300   84.5050 O.2   1350  FMN1350    -0.2224
@<TRIPOS>BOND
     1     3     2    2
     2     4     2    2
     3     4     5    2
     4     2     1    2
     5     6     5    2
     6     5     7    1
     7     1    18    2
     8     7    18    1
     9     7     8    2
    10    18    17    1
    11     8     9    2
    12    17    19    1
    13    17    16    1
    14    23    22    1
    15    19    20    1
    16    21    20    1
    17     9    16    1
    18     9    10    1
    19    16    15    2
    20    20    22    1
    21    22    24    1
    22    10    11    2
    23    24    26    1
    24    24    25    1
    25    15    13    1
    26    26    27    1
    27    11    13    1
    28    11    12    1
    29    13    14    1
    30    27    28    1
    31    28    31    2
    32    28    29    1
    33    28    30    1
