@<TRIPOS>MOLECULE
2djz_BT5_A_1.pdb
 38 42 0 0 0
SMALL
GASTEIGER

@<TRIPOS>ATOM
      1  CBB      -18.7760  -10.7880   -7.0630 C.2   1301  BT51301     0.3210
      2  OBB      -19.4300  -11.6600   -6.3880 O.3   1301  BT51301    -0.4101
      3  OCB      -17.5130  -10.7240   -7.0270 O.2   1301  BT51301    -0.2498
      4  CAB      -19.6250   -9.8550   -7.9210 C.3   1301  BT51301     0.1098
      5  C9B      -19.8220   -8.6040   -7.6120 C.3   1301  BT51301     0.0117
      6  C8B      -20.4970   -7.7890   -8.6760 C.3   1301  BT51301     0.0015
      7  C7B      -20.6810   -6.3560   -8.2370 C.3   1301  BT51301     0.0129
      8  C2B      -21.3580   -5.4140   -9.2170 C.3   1301  BT51301     0.0729
      9  S1B      -21.4430   -3.7840   -8.5430 S.3   1301  BT51301    -0.1369
     10  C6B      -22.3350   -3.3310  -10.0630 C.3   1301  BT51301     0.0848
     11  C5B      -23.4230   -4.4250  -10.1490 C.3   1301  BT51301     0.1509
     12  N1B      -24.5830   -4.1370   -9.2500 N.2   1301  BT51301    -0.1859
     13  C3B      -24.6910   -5.1370   -8.3360 C.1   1301  BT51301     0.2386
     14  O3B      -25.5470   -5.2080   -7.4280 O.2   1301  BT51301    -0.2023
     15  N2B      -23.7210   -6.0830   -8.5280 N.2   1301  BT51301    -0.1860
     16  C4B      -22.8550   -5.7550   -9.6360 C.3   1301  BT51301     0.1500
     17  P        -18.8230  -12.8670   -5.3730 P.3   1301  BT51301     0.2722
     18  OP1      -17.6560  -13.5640   -6.0600 O.2   1301  BT51301    -0.5082
     19  OP2      -19.9020  -13.7240   -5.2160 O.3   1301  BT51301    -0.4273
     20  O5'      -18.3070  -12.2270   -4.1940 O.3   1301  BT51301    -0.3024
     21  C5'      -19.0110  -11.4650   -3.2000 C.3   1301  BT51301     0.1823
     22  C4'      -18.1030  -11.4610   -2.1060 C.3   1301  BT51301     0.1822
     23  O4'      -17.0870  -10.4850   -2.1650 O.3   1301  BT51301    -0.3135
     24  C3'      -18.8580  -11.2280   -0.8440 C.3   1301  BT51301     0.2184
     25  O3'      -19.3760  -12.4590   -0.3140 O.3   1301  BT51301    -0.2174
     26  C2'      -17.8250  -10.5560    0.0550 C.3   1301  BT51301     0.2570
     27  O2'      -17.1960  -11.4770    0.9000 O.3   1301  BT51301    -0.2130
     28  C1'      -16.8410   -9.8930   -0.8980 C.3   1301  BT51301     0.3186
     29  N9       -16.9950   -8.3790   -1.1170 N.pl3 1301  BT51301    -0.1439
     30  C8       -18.1220   -7.6050   -0.8960 C.3   1301  BT51301     0.3377
     31  N7       -17.8650   -6.3110   -1.2090 N.2   1301  BT51301    -0.2095
     32  C5       -16.5840   -6.2470   -1.6260 C.2   1301  BT51301     0.2526
     33  C6       -15.8360   -5.1580   -2.0590 C.2   1301  BT51301     0.4393
     34  N6       -16.3910   -3.9500   -2.1100 N.pl3 1301  BT51301     0.2180
     35  N1       -14.4830   -5.3940   -2.4440 N.2   1301  BT51301     0.0021
     36  C2       -13.8940   -6.6710   -2.3950 C.3   1301  BT51301     0.5254
     37  N3       -14.6680   -7.7630   -1.9550 N.2   1301  BT51301    -0.0055
     38  C4       -16.0030   -7.5340   -1.5690 C.2   1301  BT51301     0.3518
@<TRIPOS>BOND
     1    11    10    1
     2    11    16    1
     3    11    12    1
     4    10     9    1
     5    16     8    1
     6    16    15    1
     7    12    13    2
     8     8     9    1
     9     8     7    1
    10     6     7    1
    11     6     5    1
    12    15    13    2
    13    13    14    2
    14     4     5    1
    15     4     1    1
    16     1     3    2
    17     1     2    1
    18     2    17    1
    19    18    17    2
    20    17    19    1
    21    17    20    1
    22    20    21    1
    23    21    22    1
    24    35    36    1
    25    35    33    2
    26    36    37    1
    27    23    22    1
    28    23    28    1
    29    34    33    1
    30    22    24    1
    31    33    32    1
    32    37    38    2
    33    32    38    1
    34    32    31    2
    35    38    29    1
    36    31    30    1
    37    29    28    1
    38    29    30    1
    39    28    26    1
    40    24    25    1
    41    24    26    1
    42    26    27    1
