@<TRIPOS>MOLECULE
2dkb_PLP_A_1.pdb
 15 15 0 0 0
SMALL
GASTEIGER

@<TRIPOS>ATOM
      1  N1        17.8340   53.4620   13.5060 N.ar  437  PLP437     -0.2452
      2  C2        16.6490   53.5400   14.1540 C.ar  437  PLP437      0.0978
      3  C2A       15.6580   54.5980   13.6910 C.3   437  PLP437      0.0555
      4  C3        16.4410   52.6080   15.2250 C.ar  437  PLP437      0.2049
      5  O3        15.2580   52.6940   15.8680 O.3   437  PLP437     -0.2857
      6  C4        17.4230   51.6810   15.5720 C.ar  437  PLP437      0.0182
      7  C4A       17.1980   50.7750   16.6870 C.3   437  PLP437      0.0342
      8  C5        18.6170   51.6900   14.7830 C.ar  437  PLP437      0.0261
      9  C6        18.8100   52.5840   13.7720 C.ar  437  PLP437      0.0965
     10  C5A       19.8080   50.7520   15.1010 C.3   437  PLP437      0.1815
     11  O4P       19.4800   49.3870   15.3750 O.3   437  PLP437     -0.2653
     12  P         20.5340   48.4800   16.1910 P.3   437  PLP437      0.5329
     13  O1P       20.2580   48.7450   17.6180 O.3   437  PLP437     -0.1145
     14  O2P       20.3350   47.0660   15.8410 O.2   437  PLP437     -0.2224
     15  O3P       22.0160   48.8080   15.8540 O.3   437  PLP437     -0.1145
@<TRIPOS>BOND
     1     1     9   ar
     2     1     2   ar
     3     3     2    1
     4     9     8   ar
     5     2     4   ar
     6     8    10    1
     7     8     6   ar
     8    10    11    1
     9     4     6   ar
    10     4     5    1
    11    11    12    1
    12     6     7    1
    13    14    12    2
    14    15    12    1
    15    12    13    1
