@<TRIPOS>MOLECULE
2dkg_BT5_B_1.pdb
 38 42 0 0 0
SMALL
GASTEIGER

@<TRIPOS>ATOM
      1  CBB      -18.9110  -10.5400   -6.8630 C.2   1301  BT51301     0.3210
      2  OBB      -19.5710  -11.4970   -6.3400 O.3   1301  BT51301    -0.4101
      3  OCB      -17.6650  -10.3970   -6.6500 O.2   1301  BT51301    -0.2498
      4  CAB      -19.7180   -9.5920   -7.7430 C.3   1301  BT51301     0.1098
      5  C9B      -19.8710   -8.3590   -7.4660 C.3   1301  BT51301     0.0117
      6  C8B      -20.5660   -7.5740   -8.5190 C.3   1301  BT51301     0.0015
      7  C7B      -20.6870   -6.1330   -8.0980 C.3   1301  BT51301     0.0129
      8  C2B      -21.3760   -5.2290   -9.0950 C.3   1301  BT51301     0.0729
      9  S1B      -21.4760   -3.5500   -8.5430 S.3   1301  BT51301    -0.1369
     10  C6B      -22.3890   -3.1610  -10.0510 C.3   1301  BT51301     0.0848
     11  C5B      -23.4360   -4.3040  -10.0710 C.3   1301  BT51301     0.1509
     12  N1B      -24.6110   -4.0300   -9.2200 N.2   1301  BT51301    -0.1859
     13  C3B      -24.7220   -5.0020   -8.2720 C.1   1301  BT51301     0.2386
     14  O3B      -25.6150   -5.0570   -7.3870 O.2   1301  BT51301    -0.2023
     15  N2B      -23.7270   -5.9280   -8.3950 N.2   1301  BT51301    -0.1860
     16  C4B      -22.8460   -5.6060   -9.4950 C.3   1301  BT51301     0.1500
     17  P        -19.0020  -12.7280   -5.3170 P.3   1301  BT51301     0.2722
     18  OP1      -17.9250  -13.5200   -5.9680 O.2   1301  BT51301    -0.5082
     19  OP2      -20.1250  -13.5160   -5.1070 O.3   1301  BT51301    -0.4273
     20  O5'      -18.3860  -12.1190   -4.1790 O.3   1301  BT51301    -0.3024
     21  C5'      -19.0130  -11.2550   -3.2010 C.3   1301  BT51301     0.1823
     22  C4'      -18.1220  -11.2670   -2.0850 C.3   1301  BT51301     0.1822
     23  O4'      -17.0890  -10.2980   -2.1170 O.3   1301  BT51301    -0.3135
     24  C3'      -18.9000  -10.9990   -0.8430 C.3   1301  BT51301     0.2184
     25  O3'      -19.5520  -12.1660   -0.3270 O.3   1301  BT51301    -0.2174
     26  C2'      -17.8610  -10.3790    0.0930 C.3   1301  BT51301     0.2570
     27  O2'      -17.2240  -11.3120    0.9390 O.3   1301  BT51301    -0.2130
     28  C1'      -16.8760   -9.6980   -0.8320 C.3   1301  BT51301     0.3186
     29  N9       -17.0820   -8.1930   -1.0670 N.pl3 1301  BT51301    -0.1439
     30  C8       -18.2390   -7.4410   -0.9110 C.3   1301  BT51301     0.3377
     31  N7       -18.0060   -6.1460   -1.2380 N.2   1301  BT51301    -0.2095
     32  C5       -16.7030   -6.0600   -1.6000 C.2   1301  BT51301     0.2526
     33  C6       -15.9430   -4.9600   -2.0410 C.2   1301  BT51301     0.4393
     34  N6       -16.4880   -3.7550   -2.1500 N.pl3 1301  BT51301     0.2180
     35  N1       -14.5720   -5.1950   -2.3550 N.2   1301  BT51301     0.0021
     36  C2       -13.9780   -6.4610   -2.2500 C.3   1301  BT51301     0.5254
     37  N3       -14.7530   -7.5500   -1.8160 N.2   1301  BT51301    -0.0055
     38  C4       -16.1010   -7.3390   -1.5040 C.2   1301  BT51301     0.3518
@<TRIPOS>BOND
     1    11    10    1
     2    11    16    1
     3    11    12    1
     4    10     9    1
     5    16     8    1
     6    16    15    1
     7    12    13    2
     8     8     9    1
     9     8     7    1
    10     6     7    1
    11     6     5    1
    12    15    13    2
    13    13    14    2
    14     4     5    1
    15     4     1    1
    16     1     3    2
    17     1     2    1
    18     2    17    1
    19    18    17    2
    20    17    19    1
    21    17    20    1
    22    20    21    1
    23    21    22    1
    24    35    36    1
    25    35    33    2
    26    36    37    1
    27    34    33    1
    28    23    22    1
    29    23    28    1
    30    22    24    1
    31    33    32    1
    32    37    38    2
    33    32    38    1
    34    32    31    2
    35    38    29    1
    36    31    30    1
    37    29    30    1
    38    29    28    1
    39    24    25    1
    40    24    26    1
    41    28    26    1
    42    26    27    1
