@<TRIPOS>MOLECULE
2dkh_3HB_A_1.pdb
 10 10 0 0 0
SMALL
GASTEIGER

@<TRIPOS>ATOM
      1  C1'       25.5160   43.4890   29.7840 C.2   641  3HB641      0.3879
      2  O1'       24.9270   44.5970   29.8180 O.co2 641  3HB641     -0.2406
      3  O2'       26.7520   43.4390   29.8170 O.co2 641  3HB641     -0.2406
      4  C1        24.6740   42.2340   29.7000 C.ar  641  3HB641      0.0829
      5  C2        23.3660   42.2310   30.2910 C.ar  641  3HB641      0.0486
      6  C3        22.5640   41.0770   30.2280 C.ar  641  3HB641      0.1960
      7  C4        23.0470   39.9170   29.5820 C.ar  641  3HB641      0.0420
      8  C5        24.3630   39.9140   28.9870 C.ar  641  3HB641      0.0035
      9  C6        25.1730   41.0570   29.0420 C.ar  641  3HB641      0.0068
     10  O3        21.3260   41.1330   30.8100 O.3   641  3HB641     -0.2866
@<TRIPOS>BOND
     1     8     9   ar
     2     8     7   ar
     3     9     4   ar
     4     7     6   ar
     5     4     1    1
     6     4     5   ar
     7     1     3   ar
     8     1     2   ar
     9     6     5   ar
    10     6    10    1
