@<TRIPOS>MOLECULE
2dkj_PLP_A_1.pdb
 15 15 0 0 0
SMALL
GASTEIGER

@<TRIPOS>ATOM
      1  N1         5.7860   -0.4510   35.3540 N.ar  510  PLP510     -0.2452
      2  C2         4.6630   -0.8730   35.9800 C.ar  510  PLP510      0.0978
      3  C2A        4.7230   -1.2570   37.4750 C.3   510  PLP510      0.0555
      4  C3         3.4960   -0.9600   35.2780 C.ar  510  PLP510      0.2049
      5  O3         2.3500   -1.4090   35.9220 O.3   510  PLP510     -0.2857
      6  C4         3.4610   -0.6200   33.9300 C.ar  510  PLP510      0.0182
      7  C4A        2.1030   -0.7090   33.2430 C.3   510  PLP510      0.0342
      8  C5         4.6480   -0.1800   33.2990 C.ar  510  PLP510      0.0261
      9  C6         5.7880   -0.1090   34.0370 C.ar  510  PLP510      0.0965
     10  C5A        4.7960    0.1860   31.8060 C.3   510  PLP510      0.1815
     11  O4P        4.0160    1.1000   31.1150 O.3   510  PLP510     -0.2653
     12  P          3.8440    1.0830   29.5350 P.3   510  PLP510      0.5329
     13  O1P        5.1660    1.1620   28.8710 O.2   510  PLP510     -0.2224
     14  O2P        3.0530    2.4230   29.3230 O.3   510  PLP510     -0.1145
     15  O3P        3.0150   -0.0800   29.1320 O.3   510  PLP510     -0.1145
@<TRIPOS>BOND
     1    13    12    2
     2    15    12    1
     3    14    12    1
     4    12    11    1
     5    11    10    1
     6    10     8    1
     7     7     6    1
     8     8     6   ar
     9     8     9   ar
    10     6     4   ar
    11     9     1   ar
    12     4     5    1
    13     4     2   ar
    14     1     2   ar
    15     2     3    1
