@<TRIPOS>MOLECULE
2dkk_HEM_A_1.pdb
 43 50 0 0 0
SMALL
GASTEIGER

@<TRIPOS>ATOM
      1  CHA       60.8480   91.0430   24.6220 C.2   430  HEM430      0.0000
      2  CHB       64.7320   92.8540   22.4600 C.2   430  HEM430      0.0000
      3  CHC       63.4620   90.6710   18.3520 C.2   430  HEM430      0.0000
      4  CHD       59.5670   88.8640   20.5140 C.2   430  HEM430      0.0000
      5  C1A       62.0130   91.7350   24.4140 C.2   430  HEM430      0.0000
      6  C2A       62.7180   92.5630   25.3930 C.2   430  HEM430      0.0000
      7  C3A       63.8100   93.0550   24.7910 C.2   430  HEM430      0.0000
      8  C4A       63.8110   92.5740   23.4240 C.2   430  HEM430      0.0000
      9  CMA       64.8890   93.9940   25.3900 C.3   430  HEM430      0.0000
     10  CAA       62.2450   92.8180   26.8370 C.3   430  HEM430      0.0000
     11  CBA       62.6330   91.8320   27.9130 C.3   430  HEM430      0.0000
     12  CGA       62.0370   92.2670   29.2480 C.2   430  HEM430      0.0000
     13  O1A       62.8760   92.7200   30.0950 O.co2 430  HEM430      0.0000
     14  O2A       60.8170   92.1770   29.4150 O.co2 430  HEM430      0.0000
     15  C1B       64.7340   92.4270   21.1630 C.ar  430  HEM430      0.0000
     16  C2B       65.7380   92.7870   20.1960 C.ar  430  HEM430      0.0000
     17  C3B       65.3880   92.1770   19.0210 C.ar  430  HEM430      0.0000
     18  C4B       64.1710   91.4360   19.2700 C.ar  430  HEM430      0.0000
     19  CMB       66.9460   93.7000   20.4950 C.3   430  HEM430      0.0000
     20  CAB       66.0870   92.2210   17.6410 C.3   430  HEM430      0.0000
     21  CBB       67.6180   92.0650   17.6500 C.3   430  HEM430      0.0000
     22  C1C       62.2850   89.9810   18.5840 C.2   430  HEM430      0.0000
     23  C2C       61.5650   89.1940   17.5560 C.2   430  HEM430      0.0000
     24  C3C       60.4750   88.6920   18.1510 C.2   430  HEM430      0.0000
     25  C4C       60.5000   89.1470   19.5450 C.2   430  HEM430      0.0000
     26  CMC       62.0490   89.0380   16.0910 C.3   430  HEM430      0.0000
     27  CAC       59.3540   87.8030   17.5670 C.3   430  HEM430      0.0000
     28  CBC       59.8200   86.4360   17.0320 C.3   430  HEM430      0.0000
     29  C1D       59.5650   89.2830   21.8260 C.ar  430  HEM430      0.0000
     30  C2D       58.5590   88.9600   22.8220 C.ar  430  HEM430      0.0000
     31  C3D       58.9240   89.5650   23.9750 C.ar  430  HEM430      0.0000
     32  C4D       60.1540   90.2790   23.7020 C.ar  430  HEM430      0.0000
     33  CMD       57.3150   88.0770   22.5670 C.3   430  HEM430      0.0000
     34  CAD       58.1860   89.5070   25.3220 C.3   430  HEM430      0.0000
     35  CBD       58.8870   88.3920   26.1900 C.3   430  HEM430      0.0000
     36  CGD       58.2910   88.1910   27.5560 C.2   430  HEM430      0.0000
     37  O1D       57.8880   89.1560   28.2220 O.co2 430  HEM430      0.0000
     38  O2D       58.2540   87.0110   27.9260 O.co2 430  HEM430      0.0000
     39  NA        62.6990   91.7690   23.2330 N.2   430  HEM430      0.0000
     40  NB        63.7790   91.5990   20.5780 N.ar  430  HEM430      0.0000
     41  NC        61.6140   89.9320   19.7840 N.2   430  HEM430      0.0000
     42  ND        60.5570   90.0990   22.3880 N.ar  430  HEM430      0.0000
     43 FE         62.1710   90.8320   21.5100 Fe    430  HEM430      0.0000
@<TRIPOS>BOND
     1    26    23    1
     2    28    27    1
     3    23    24    2
     4    23    22    1
     5    27    24    1
     6    20    21    1
     7    20    17    1
     8    24    25    1
     9     3    22    2
    10     3    18    1
    11    22    41    1
    12    17    18   ar
    13    17    16   ar
    14    18    40   ar
    15    25    41    2
    16    25     4    1
    17    41    43    1
    18    16    19    1
    19    16    15   ar
    20     4    29    2
    21    40    15   ar
    22    40    43    1
    23    15     2    1
    24    43    42    1
    25    43    39    1
    26    29    42   ar
    27    29    30   ar
    28    42    32   ar
    29     2     8    2
    30    33    30    1
    31    30    31   ar
    32    39     8    1
    33    39     5    2
    34     8     7    1
    35    32    31   ar
    36    32     1    2
    37    31    34    1
    38     5     1    1
    39     5     6    1
    40     7     9    1
    41     7     6    2
    42    34    35    1
    43     6    10    1
    44    35    36    1
    45    10    11    1
    46    36    38   ar
    47    36    37   ar
    48    11    12    1
    49    12    14   ar
    50    12    13   ar
