@<TRIPOS>MOLECULE
2dkn_NAI_A_1.pdb
 44 48 0 0 0
SMALL
GASTEIGER

@<TRIPOS>ATOM
      1  PA        17.9240   -4.9790   -1.1770 P.3   4000  NAI4000     0.2189
      2  O1A       18.1010   -5.3800   -2.5840 O.2   4000  NAI4000    -0.5170
      3  O2A       18.8720   -5.5300   -0.1810 O.3   4000  NAI4000    -0.4371
      4  O5B       16.4420   -5.3500   -0.6950 O.3   4000  NAI4000    -0.3112
      5  C5B       15.3350   -5.1050   -1.5130 C.3   4000  NAI4000     0.1813
      6  C4B       14.4170   -6.3150   -1.4050 C.3   4000  NAI4000     0.1821
      7  O4B       13.3190   -6.0170   -2.2470 O.3   4000  NAI4000    -0.3135
      8  C3B       15.0650   -7.6040   -1.9060 C.3   4000  NAI4000     0.2184
      9  O3B       14.8500   -8.6740   -1.0060 O.3   4000  NAI4000    -0.2174
     10  C2B       14.2860   -7.8580   -3.1840 C.3   4000  NAI4000     0.2570
     11  O2B       14.1690   -9.2200   -3.5340 O.3   4000  NAI4000    -0.2130
     12  C1B       12.9380   -7.1870   -2.9020 C.3   4000  NAI4000     0.3186
     13  N9A       12.3150   -6.9690   -4.2150 N.pl3 4000  NAI4000    -0.1439
     14  C8A       12.8440   -6.2990   -5.3000 C.3   4000  NAI4000     0.3377
     15  N7A       11.9650   -6.4260   -6.3260 N.2   4000  NAI4000    -0.2095
     16  C5A       10.9060   -7.1840   -5.9160 C.2   4000  NAI4000     0.2526
     17  C6A        9.7410   -7.6430   -6.5430 C.2   4000  NAI4000     0.4393
     18  N6A        9.5230   -7.5040   -7.8680 N.pl3 4000  NAI4000     0.2180
     19  N1A        8.8530   -8.4080   -5.8120 N.2   4000  NAI4000     0.0021
     20  C2A        9.0990   -8.7280   -4.4950 C.3   4000  NAI4000     0.5254
     21  N3A       10.2440   -8.2830   -3.8730 N.2   4000  NAI4000    -0.0055
     22  C4A       11.1350   -7.5320   -4.5850 C.2   4000  NAI4000     0.3518
     23  O3        17.9360   -3.3760   -1.2170 O.3   4000  NAI4000    -0.2703
     24  PN        17.7020   -2.3410   -0.0040 P.3   4000  NAI4000     0.2189
     25  O1N       17.3320   -3.0150    1.2520 O.3   4000  NAI4000    -0.4371
     26  O2N       18.8800   -1.4550    0.0050 O.2   4000  NAI4000    -0.5170
     27  O5D       16.4490   -1.5290   -0.5900 O.3   4000  NAI4000    -0.3112
     28  C5D       15.2420   -1.4030    0.1480 C.3   4000  NAI4000     0.1813
     29  C4D       14.5750   -0.1200   -0.3320 C.3   4000  NAI4000     0.1799
     30  O4D       15.4220    0.9690    0.0180 O.3   4000  NAI4000    -0.3327
     31  C3D       14.3970   -0.0560   -1.8470 C.3   4000  NAI4000     0.2158
     32  O3D       13.1340    0.5440   -2.1070 O.3   4000  NAI4000    -0.2175
     33  C2D       15.4770    0.9330   -2.2810 C.3   4000  NAI4000     0.2309
     34  O2D       15.0900    1.6410   -3.4260 O.3   4000  NAI4000    -0.2158
     35  C1D       15.5440    1.8570   -1.0730 C.3   4000  NAI4000     0.2263
     36  N1N       16.8150    2.6270   -0.9920 N.pl3 4000  NAI4000    -0.2787
     37  C2N       18.0050    1.9660   -0.8690 C.3   4000  NAI4000     0.1244
     38  C3N       19.1850    2.6880   -0.7860 C.2   4000  NAI4000     0.0544
     39  C7N       20.4950    1.9670   -0.5900 C.2   4000  NAI4000     0.2818
     40  O7N       21.6310    2.7560   -0.6690 O.2   4000  NAI4000    -0.2670
     41  N7N       20.5470    0.6440   -0.3430 N.am  4000  NAI4000    -0.0839
     42  C4N       19.1600    4.0960   -0.8190 C.2   4000  NAI4000     0.0033
     43  C5N       17.9180    4.7600   -0.9060 C.2   4000  NAI4000     0.0157
     44  C6N       16.7590    4.0020   -0.9960 C.2   4000  NAI4000     0.0633
@<TRIPOS>BOND
     1    18    17    1
     2    17    16    1
     3    17    19    2
     4    15    16    2
     5    15    14    1
     6    16    22    1
     7    19    20    1
     8    14    13    1
     9    22    13    1
    10    22    21    2
    11    20    21    1
    12    13    12    1
    13    11    10    1
    14    34    33    1
    15    10    12    1
    16    10     8    1
    17    12     7    1
    18     2     1    2
    19    33    31    1
    20    33    35    1
    21     7     6    1
    22    32    31    1
    23     8     6    1
    24     8     9    1
    25    31    29    1
    26     5     6    1
    27     5     4    1
    28    23     1    1
    29    23    24    1
    30     1     4    1
    31     1     3    1
    32    35    36    1
    33    35    30    1
    34    44    36    1
    35    44    43    2
    36    36    37    1
    37    43    42    1
    38    37    38    1
    39    42    38    2
    40    38    39    1
    41    40    39    2
    42    27    24    1
    43    27    28    1
    44    39    41   am
    45    29    30    1
    46    29    28    1
    47    24    26    2
    48    24    25    1
