@<TRIPOS>MOLECULE
2dko_III_I_1.pdb
 33 32 0 0 0
SMALL
GASTEIGER

@<TRIPOS>ATOM
      1  N         41.6540   28.7300   22.4590 N.3     2  ASP2       -0.1225
      2  CA        41.2900   28.7790   23.8890 C.3     2  ASP2        0.1805
      3  C         40.8450   30.2050   24.2440 C.2     2  ASP2        0.2598
      4  O         41.4950   31.1610   23.8350 O.2     2  ASP2       -0.2718
      5  CB        42.4420   28.3750   24.7590 C.3     2  ASP2        0.1424
      6  CG        42.7460   26.8950   24.7590 C.2     2  ASP2        0.3668
      7  OD1       41.7530   26.1360   24.6780 O.co2   2  ASP2       -0.2456
      8  OD2       43.8970   26.4750   24.8760 O.co2   2  ASP2       -0.2456
      9  N         39.7550   30.2580   24.9880 N.am    3  GLU3       -0.1965
     10  CA        39.1380   31.5510   25.3740 C.3     3  GLU3        0.1733
     11  C         38.8300   31.4100   26.8440 C.2     3  GLU3        0.2616
     12  O         38.6110   30.2950   27.3460 O.2     3  GLU3       -0.2715
     13  CB        37.8960   31.8720   24.5490 C.3     3  GLU3        0.0429
     14  CG        38.1290   31.8810   23.0410 C.3     3  GLU3        0.1163
     15  CD        36.9840   32.2530   22.1670 C.2     3  GLU3        0.3649
     16  OE1       35.8000   32.1780   22.5240 O.co2   3  GLU3       -0.2457
     17  OE2       37.2310   32.6060   21.0240 O.co2   3  GLU3       -0.2457
     18  N         38.6900   32.4940   27.5500 N.am    4  VAL4       -0.1963
     19  CA        38.2690   32.5200   28.9100 C.3     4  VAL4        0.1727
     20  C         36.7810   32.9510   29.0420 C.2     4  VAL4        0.2612
     21  O         36.2670   33.7080   28.2220 O.2     4  VAL4       -0.2715
     22  CB        39.1220   33.3880   29.8640 C.3     4  VAL4        0.0290
     23  CG1       40.5110   32.7800   30.0760 C.3     4  VAL4        0.0023
     24  CG2       39.2140   34.8240   29.3480 C.3     4  VAL4        0.0023
     25  C         34.7110   33.8600   31.5710 C.3     5  ASP5        0.1724
     26  N         36.1170   32.4500   30.0490 N.am    5  ASP5       -0.2026
     27  O         33.6320   33.9890   32.2170 O.3     5  ASP5       -0.2213
     28  CA        34.7610   32.8210   30.4660 C.3     5  ASP5        0.1368
     29  CB        33.9600   31.5660   30.8390 C.3     5  ASP5        0.1382
     30  CG        33.3960   30.7930   29.6660 C.2     5  ASP5        0.3667
     31  OD1       33.1810   31.4360   28.6210 O.co2   5  ASP5       -0.2456
     32  OD2       33.1370   29.5890   29.8080 O.co2   5  ASP5       -0.2456
     33  C1        35.3940   35.1910   31.0280 C.3     6  0QE6        0.0374
@<TRIPOS>BOND
     1    17    15   ar
     2    15    16   ar
     3    15    14    1
     4     1     2    1
     5    14    13    1
     6     4     3    2
     7     2     3    1
     8     2     5    1
     9     3     9   am
    10    13    10    1
    11     7     6   ar
    12     6     5    1
    13     6     8   ar
    14     9    10    1
    15    10    11    1
    16    11    12    2
    17    11    18   am
    18    18    19    1
    19    21    20    2
    20    31    30   ar
    21    19    20    1
    22    19    22    1
    23    20    26   am
    24    24    22    1
    25    30    32   ar
    26    30    29    1
    27    22    23    1
    28    26    28    1
    29    28    29    1
    30    28    25    1
    31    33    25    1
    32    25    27    1
