@<TRIPOS>MOLECULE
2dlc_YMP_X_1.pdb
 35 38 0 0 0
SMALL
GASTEIGER

@<TRIPOS>ATOM
      1  N          8.2610   30.2550  160.4340 N.3   601  YMP601     -0.1227
      2  CA         8.1180   31.5680  159.7340 C.3   601  YMP601      0.1741
      3  CB         9.5010   32.1460  159.4230 C.3   601  YMP601      0.0548
      4  CG        10.2680   32.5060  160.6750 C.ar  601  YMP601     -0.0200
      5  CD1        9.6990   33.3400  161.6390 C.ar  601  YMP601     -0.0009
      6  CE1       10.4160   33.6740  162.7840 C.ar  601  YMP601      0.0417
      7  CZ        11.7040   33.1730  162.9750 C.ar  601  YMP601      0.1957
      8  OH        12.3720   33.4940  164.0780 O.3   601  YMP601     -0.2866
      9  CE2       12.2800   32.3370  162.0150 C.ar  601  YMP601      0.0417
     10  CD2       11.5580   32.0030  160.8690 C.ar  601  YMP601     -0.0009
     11  C          7.3080   31.4130  158.4690 C.2   601  YMP601      0.2680
     12  O          6.7850   30.3440  158.2020 O.2   601  YMP601     -0.2713
     13  N3P        7.2130   32.5020  157.7020 N.am  601  YMP601     -0.1058
     14  P          6.4290   32.6480  156.2260 P.3   601  YMP601      0.4763
     15  O1P        5.7770   31.3830  155.7590 O.3   601  YMP601     -0.1226
     16  O2P        7.3900   33.3120  155.2790 O.2   601  YMP601     -0.2321
     17  O5'        5.2120   33.6690  156.4820 O.3   601  YMP601     -0.2749
     18  C5'        5.4410   34.9720  157.0130 C.3   601  YMP601      0.1852
     19  C4'        4.2720   35.3810  157.9020 C.3   601  YMP601      0.1823
     20  O4'        3.1760   35.8590  157.1080 O.3   601  YMP601     -0.3135
     21  C1'        1.9970   35.1100  157.4080 C.3   601  YMP601      0.3186
     22  C2'        2.3590   33.9770  158.3650 C.3   601  YMP601      0.2570
     23  C3'        3.7960   34.2220  158.7620 C.3   601  YMP601      0.2184
     24  O3'        3.8150   34.7220  160.0900 O.3   601  YMP601     -0.2174
     25  O2'        1.4410   33.7800  159.4260 O.3   601  YMP601     -0.2130
     26  N9         1.2010   34.5840  156.2850 N.pl3 601  YMP601     -0.1439
     27  C4        -0.0890   34.8160  156.1310 C.2   601  YMP601      0.3518
     28  N3        -0.8460   35.5950  156.9520 N.2   601  YMP601     -0.0055
     29  C5        -0.5770   34.1750  155.0350 C.2   601  YMP601      0.2526
     30  N7         0.4680   33.5180  154.4940 N.2   601  YMP601     -0.2095
     31  C8         1.5560   33.7670  155.2740 C.3   601  YMP601      0.3377
     32  C6        -2.0060   34.3320  154.7100 C.2   601  YMP601      0.4393
     33  N6        -2.5430   33.7430  153.6510 N.pl3 601  YMP601      0.2180
     34  N1        -2.7240   35.0960  155.5290 N.2   601  YMP601      0.0021
     35  C2        -2.2630   35.8090  156.7180 C.3   601  YMP601      0.5254
@<TRIPOS>BOND
     1    33    32    1
     2    30    29    2
     3    30    31    1
     4    32    29    1
     5    32    34    2
     6    29    27    1
     7    31    26    1
     8    16    14    2
     9    34    35    1
    10    15    14    1
    11    27    26    1
    12    27    28    2
    13    14    17    1
    14    14    13    1
    15    26    21    1
    16    17    18    1
    17    35    28    1
    18    18    19    1
    19    20    21    1
    20    20    19    1
    21    21    22    1
    22    13    11   am
    23    19    23    1
    24    12    11    2
    25    22    23    1
    26    22    25    1
    27    11     2    1
    28    23    24    1
    29     3     2    1
    30     3     4    1
    31     2     1    1
    32     4    10   ar
    33     4     5   ar
    34    10     9   ar
    35     5     6   ar
    36     9     7   ar
    37     6     7   ar
    38     7     8    1
