@<TRIPOS>MOLECULE
2dld_NAD_A_1.pdb
 44 48 0 0 0
SMALL
GASTEIGER

@<TRIPOS>ATOM
      1  PA         9.8900   45.1750   17.1690 P.3   401  NAD401      0.2189
      2  O1A        8.7580   45.8810   16.4700 O.2   401  NAD401     -0.5170
      3  O2A       10.6890   45.9940   18.1990 O.3   401  NAD401     -0.4371
      4  O5B       10.8730   44.5060   16.1100 O.3   401  NAD401     -0.3112
      5  C5B       12.1860   45.0480   15.7280 C.3   401  NAD401      0.1813
      6  C4B       12.0810   46.2940   14.9850 C.3   401  NAD401      0.1821
      7  O4B       10.9050   46.2330   14.0380 O.3   401  NAD401     -0.3135
      8  C3B       11.8530   47.6670   15.7040 C.3   401  NAD401      0.2184
      9  O3B       13.1170   48.2040   16.2160 O.3   401  NAD401     -0.2174
     10  C2B       10.9870   48.4970   14.8280 C.3   401  NAD401      0.2570
     11  O2B       11.1010   49.7730   14.5490 O.3   401  NAD401     -0.2130
     12  C1B       10.3540   47.5040   13.9740 C.3   401  NAD401      0.3186
     13  N9A        9.4250   47.6460   12.9430 N.pl3 401  NAD401     -0.1439
     14  C8A        8.0660   47.9780   12.9100 C.3   401  NAD401      0.3377
     15  N7A        7.4660   47.9310   11.7390 N.2   401  NAD401     -0.2095
     16  C5A        8.4030   47.5700   10.8650 C.2   401  NAD401      0.2526
     17  C6A        8.3230   47.3760    9.4080 C.2   401  NAD401      0.4393
     18  N6A        7.2550   47.5380    8.6540 N.pl3 401  NAD401      0.2180
     19  N1A        9.5270   46.9790    8.8790 N.2   401  NAD401      0.0021
     20  C2A       10.6760   46.7690    9.5350 C.3   401  NAD401      0.5254
     21  N3A       10.8000   46.9650   10.9040 N.2   401  NAD401     -0.0055
     22  C4A        9.6260   47.3670   11.5450 C.2   401  NAD401      0.3518
     23  O3         9.3220   43.8930   17.8670 O.3   401  NAD401     -0.2703
     24  PN         9.7830   42.9400   19.1610 P.3   401  NAD401      0.2189
     25  O1N        9.2760   43.6170   20.3800 O.3   401  NAD401     -0.4371
     26  O2N       11.2360   42.6670   19.0800 O.2   401  NAD401     -0.5170
     27  O5D        8.9870   41.6290   18.9040 O.3   401  NAD401     -0.3112
     28  C5D        9.1780   40.4200   18.1880 C.3   401  NAD401      0.1813
     29  C4D        7.9830   40.0370   17.4280 C.3   401  NAD401      0.1799
     30  O4D        7.2620   38.9450   18.1710 O.3   401  NAD401     -0.3327
     31  C3D        6.8420   41.1240   17.3120 C.3   401  NAD401      0.2158
     32  O3D        7.1330   41.7700   16.1050 O.3   401  NAD401     -0.2175
     33  C2D        5.4920   40.4740   17.4710 C.3   401  NAD401      0.2309
     34  O2D        4.6080   40.5990   16.4350 O.3   401  NAD401     -0.2158
     35  C1D        5.8210   39.0640   17.9280 C.3   401  NAD401      0.2263
     36  N1N        5.1140   38.4350   19.1580 N.pl3 401  NAD401     -0.2787
     37  C2N        4.7620   37.0940   18.9580 C.3   401  NAD401      0.1244
     38  C3N        4.2320   36.5060   20.0710 C.2   401  NAD401      0.0544
     39  C7N        3.9170   34.9880   19.7840 C.2   401  NAD401      0.2818
     40  O7N        3.7810   34.2480   20.7660 O.2   401  NAD401     -0.2670
     41  N7N        3.9430   34.5880   18.4990 N.am  401  NAD401     -0.0839
     42  C4N        4.0660   37.0700   21.3520 C.2   401  NAD401      0.0033
     43  C5N        4.4630   38.4360   21.4140 C.2   401  NAD401      0.0157
     44  C6N        4.9900   39.0940   20.3260 C.2   401  NAD401      0.0633
@<TRIPOS>BOND
     1    18    17    1
     2    19    17    2
     3    19    20    1
     4    17    16    1
     5    20    21    1
     6    16    22    1
     7    16    15    2
     8    21    22    2
     9    22    13    1
    10    15    14    1
    11    14    13    1
    12    13    12    1
    13    12     7    1
    14    12    10    1
    15     7     6    1
    16    11    10    1
    17    10     8    1
    18     6     8    1
    19     6     5    1
    20     8     9    1
    21     5     4    1
    22    32    31    1
    23     4     1    1
    24    34    33    1
    25     2     1    2
    26     1    23    1
    27     1     3    1
    28    31    29    1
    29    31    33    1
    30    29    30    1
    31    29    28    1
    32    33    35    1
    33    23    24    1
    34    35    30    1
    35    35    36    1
    36    28    27    1
    37    41    39   am
    38    27    24    1
    39    37    36    1
    40    37    38    1
    41    26    24    2
    42    36    44    1
    43    24    25    1
    44    39    38    1
    45    39    40    2
    46    38    42    2
    47    44    43    2
    48    42    43    1
