@<TRIPOS>MOLECULE
2dln_PHY_A_1.pdb
 16 15 0 0 0
SMALL
GASTEIGER

@<TRIPOS>ATOM
      1  C1        18.2450    7.0170   47.7080 C.3   320  PHY320      0.1692
      2  C2        18.3520    7.4340   49.1690 C.3   320  PHY320      0.0310
      3  C1'       19.6790    8.8430   46.5850 C.3   320  PHY320      0.0999
      4  C2'       20.0420   10.1080   45.9760 C.3   320  PHY320      0.1131
      5  C3'       21.4680   10.1140   45.4390 C.3   320  PHY320      0.0124
      6  C         19.9070   11.2710   46.9720 C.2   320  PHY320      0.3649
      7  O1        19.7460   12.3930   46.4420 O.co2 320  PHY320     -0.2457
      8  O2        20.2250   11.0730   48.1730 O.co2 320  PHY320     -0.2457
      9  N1        17.1880    6.0150   47.5940 N.3   320  PHY320     -0.1225
     10  P1        18.3070    8.2100   46.7360 P.3   320  PHY320      0.2481
     11  O1P       17.2480    9.1660   47.1100 O.2   320  PHY320     -0.2877
     12  O2P       17.7170    7.7900   45.3270 O.3   320  PHY320     -0.2238
     13  P2        17.9600    6.5400   44.4020 P.3   320  PHY320      0.5374
     14  O3P       19.3060    6.0140   44.9930 O.3   320  PHY320     -0.1143
     15  O4P       18.1830    6.7450   42.9630 O.2   320  PHY320     -0.2221
     16  O5P       16.8200    5.5820   44.8070 O.3   320  PHY320     -0.1143
@<TRIPOS>BOND
     1    15    13    2
     2    13    16    1
     3    13    14    1
     4    13    12    1
     5    12    10    1
     6     5     4    1
     7     4     3    1
     8     4     6    1
     9     7     6   ar
    10     3    10    1
    11    10    11    2
    12    10     1    1
    13     6     8   ar
    14     9     1    1
    15     1     2    1
