@<TRIPOS>MOLECULE
2dm5_ODI_A_1.pdb
 10 9 0 0 0
SMALL
GASTEIGER

@<TRIPOS>ATOM
      1  OAA       51.7250   21.0660   42.4190 O.3   312  ODI312     -0.2204
      2  CAC       52.4470   22.0530   41.6790 C.3   312  ODI312      0.1821
      3  CAE       51.9890   22.0570   40.2190 C.3   312  ODI312      0.0355
      4  CAG       51.1600   23.3020   39.9040 C.3   312  ODI312      0.0027
      5  CAI       49.8760   23.3260   40.7370 C.3   312  ODI312      0.0001
      6  CAJ       49.3680   24.7640   40.8480 C.3   312  ODI312      0.0001
      7  CAH       47.8580   24.8420   40.6260 C.3   312  ODI312      0.0027
      8  CAF       47.2510   25.8980   41.5520 C.3   312  ODI312      0.0355
      9  CAD       46.2070   26.7340   40.8090 C.3   312  ODI312      0.1821
     10  OAB       46.0730   28.0000   41.4580 O.3   312  ODI312     -0.2204
@<TRIPOS>BOND
     1     4     3    1
     2     4     5    1
     3     3     2    1
     4     7     6    1
     5     7     8    1
     6     5     6    1
     7     9    10    1
     8     9     8    1
     9     2     1    1
