@<TRIPOS>MOLECULE
2dm6_NAP_A_1.pdb
 48 52 0 0 0
SMALL
GASTEIGER

@<TRIPOS>ATOM
      1  PA       -10.3970   67.5810  -13.3810 P.3   1400  NAP1400     0.2189
      2  O1A      -10.9830   68.3810  -14.4790 O.2   1400  NAP1400    -0.5170
      3  O2A       -9.4100   68.3520  -12.5990 O.3   1400  NAP1400    -0.4371
      4  O5B       -9.7620   66.2350  -13.9750 O.3   1400  NAP1400    -0.3112
      5  C5B       -8.9200   65.4350  -13.1750 C.3   1400  NAP1400     0.1813
      6  C4B       -7.4810   65.9140  -13.3180 C.3   1400  NAP1400     0.1820
      7  O4B       -6.6760   65.4610  -12.2410 O.3   1400  NAP1400    -0.3136
      8  C3B       -6.8220   65.3800  -14.5720 C.3   1400  NAP1400     0.2157
      9  O3B       -7.0950   66.2040  -15.6840 O.3   1400  NAP1400    -0.2175
     10  C2B       -5.3490   65.3630  -14.2020 C.3   1400  NAP1400     0.2314
     11  O2B       -4.7310   66.5600  -14.6230 O.3   1400  NAP1400    -0.2630
     12  C1B       -5.3340   65.3010  -12.6820 C.3   1400  NAP1400     0.3158
     13  N9A       -4.7580   64.0210  -12.2140 N.pl3 1400  NAP1400    -0.1439
     14  C8A       -5.1290   62.7540  -12.5920 C.3   1400  NAP1400     0.3377
     15  N7A       -4.3610   61.8550  -11.9360 N.2   1400  NAP1400    -0.2095
     16  C5A       -3.5020   62.5270  -11.1390 C.2   1400  NAP1400     0.2526
     17  C6A       -2.5010   62.1040  -10.2630 C.2   1400  NAP1400     0.4393
     18  N6A       -2.0120   60.8730  -10.3660 N.pl3 1400  NAP1400     0.2180
     19  N1A       -1.7730   63.0450   -9.5670 N.2   1400  NAP1400     0.0021
     20  C2A       -2.0200   64.3940   -9.7410 C.3   1400  NAP1400     0.5254
     21  N3A       -3.0070   64.8030  -10.6150 N.2   1400  NAP1400    -0.0055
     22  C4A       -3.7370   63.8870  -11.3060 C.2   1400  NAP1400     0.3518
     23  O3       -11.5880   67.0100  -12.4500 O.3   1400  NAP1400    -0.2703
     24  PN       -12.4590   67.9330  -11.4640 P.3   1400  NAP1400     0.2189
     25  O1N      -12.0540   69.3480  -11.5700 O.3   1400  NAP1400    -0.4371
     26  O2N      -13.8870   67.5660  -11.5920 O.2   1400  NAP1400    -0.5170
     27  O5D      -12.0010   67.3830  -10.0150 O.3   1400  NAP1400    -0.3112
     28  C5D      -10.7150   67.6190   -9.4770 C.3   1400  NAP1400     0.1813
     29  C4D      -10.6450   67.1100   -8.0310 C.3   1400  NAP1400     0.1799
     30  O4D      -11.6460   67.7190   -7.2320 O.3   1400  NAP1400    -0.3327
     31  C3D      -10.8520   65.6050   -7.9050 C.3   1400  NAP1400     0.2158
     32  O3D       -9.9040   65.1020   -6.9800 O.3   1400  NAP1400    -0.2175
     33  C2D      -12.2710   65.4830   -7.3650 C.3   1400  NAP1400     0.2309
     34  O2D      -12.5060   64.3280   -6.5950 O.3   1400  NAP1400    -0.2158
     35  C1D      -12.3860   66.7350   -6.5250 C.3   1400  NAP1400     0.2263
     36  N1N      -13.7790   67.1760   -6.3440 N.pl3 1400  NAP1400    -0.2787
     37  C2N      -14.2590   67.2800   -5.0730 C.3   1400  NAP1400     0.1244
     38  C3N      -15.5550   67.7140   -4.8490 C.2   1400  NAP1400     0.0544
     39  C7N      -16.0250   67.9970   -3.4540 C.2   1400  NAP1400     0.2818
     40  O7N      -17.3490   68.4020   -3.2790 O.2   1400  NAP1400    -0.2670
     41  N7N      -15.1990   67.8670   -2.4080 N.am  1400  NAP1400    -0.0839
     42  C4N      -16.3650   68.0290   -5.9410 C.2   1400  NAP1400     0.0033
     43  C5N      -15.8650   67.9280   -7.2330 C.2   1400  NAP1400     0.0157
     44  C6N      -14.5610   67.4970   -7.4260 C.2   1400  NAP1400     0.0633
     45  P2B       -3.1260   66.7510  -14.5930 P.3   1400  NAP1400     0.5328
     46  O1X       -2.6730   66.7590  -16.0290 O.2   1400  NAP1400    -0.2224
     47  O2X       -2.8240   68.0700  -13.9340 O.3   1400  NAP1400    -0.1145
     48  O3X       -2.4650   65.6190  -13.8550 O.3   1400  NAP1400    -0.1145
@<TRIPOS>BOND
     1    46    45    2
     2     9     8    1
     3    11    45    1
     4    11    10    1
     5    45    47    1
     6    45    48    1
     7     8    10    1
     8     8     6    1
     9     2     1    2
    10    10    12    1
    11     4     1    1
    12     4     5    1
    13     1     3    1
    14     1    23    1
    15     6     5    1
    16     6     7    1
    17    12     7    1
    18    12    13    1
    19    14    13    1
    20    14    15    1
    21    23    24    1
    22    13    22    1
    23    15    16    2
    24    26    24    2
    25    25    24    1
    26    24    27    1
    27    22    16    1
    28    22    21    2
    29    16    17    1
    30    21    20    1
    31    18    17    1
    32    17    19    2
    33    27    28    1
    34    20    19    1
    35    28    29    1
    36    29    31    1
    37    29    30    1
    38    31    33    1
    39    31    32    1
    40    44    43    2
    41    44    36    1
    42    33    34    1
    43    33    35    1
    44    43    42    1
    45    30    35    1
    46    35    36    1
    47    36    37    1
    48    42    38    2
    49    37    38    1
    50    38    39    1
    51    39    40    2
    52    39    41   am
