@<TRIPOS>MOLECULE
2dm6_IMN_A_1.pdb
 25 27 0 0 0
SMALL
GASTEIGER

@<TRIPOS>ATOM
      1  C        -18.8130   62.4990   -2.5420 C.ar  1401  IMN1401     0.0664
      2  C1       -19.6780   61.5190   -3.2390 C.ar  1401  IMN1401     0.0169
      3  C2       -21.0560   61.5120   -3.0850 C.ar  1401  IMN1401     0.0381
      4  C3       -21.6390   62.4590   -2.2420 C.ar  1401  IMN1401     0.1388
      5  C4       -20.8410   63.3970   -1.5730 C.ar  1401  IMN1401     0.0384
      6  C5       -19.4460   63.4260   -1.7110 C.ar  1401  IMN1401     0.0207
      7  C6       -23.7930   61.2800   -2.2170 C.3   1401  IMN1401     0.2525
      8  C7       -18.7890   60.6610   -4.0460 C.ar  1401  IMN1401     0.0027
      9  C8       -17.4150   61.1720   -3.7860 C.ar  1401  IMN1401     0.0411
     10  C9       -16.4680   62.9430   -2.4580 C.2   1401  IMN1401     0.2644
     11  C10      -15.1390   62.2910   -2.1710 C.ar  1401  IMN1401     0.0565
     12  C11      -15.0260   61.3110   -1.1840 C.ar  1401  IMN1401     0.0056
     13  C12      -13.7930   60.7030   -0.9380 C.ar  1401  IMN1401     0.0115
     14  C13      -12.6690   61.0770   -1.6760 C.ar  1401  IMN1401     0.0577
     15  C14      -12.7840   62.0570   -2.6630 C.ar  1401  IMN1401     0.0115
     16  C15      -14.0140   62.6660   -2.9110 C.ar  1401  IMN1401     0.0056
     17  C16      -16.1700   60.5860   -4.4070 C.3   1401  IMN1401     0.0501
     18  C17      -19.2130   59.5100   -4.9180 C.3   1401  IMN1401     0.1415
     19  C18      -19.5430   58.3560   -4.0020 C.2   1401  IMN1401     0.3693
     20  N        -17.5490   62.2100   -2.9210 N.ar  1401  IMN1401    -0.2785
     21  O        -23.0030   62.4760   -2.0730 O.3   1401  IMN1401    -0.4714
     22  O1       -16.5700   64.1500   -2.2960 O.2   1401  IMN1401    -0.2666
     23  O2       -18.6440   57.5260   -3.7510 O.co2 1401  IMN1401    -0.2453
     24  O3       -20.6970   58.2750   -3.5230 O.co2 1401  IMN1401    -0.2453
     25 CL        -11.3340   60.4280   -1.4120 Cl    1401  IMN1401    -0.0822
@<TRIPOS>BOND
     1    18     8    1
     2    18    19    1
     3    17     9    1
     4     8     9   ar
     5     8     2   ar
     6    19    23   ar
     7    19    24   ar
     8     9    20   ar
     9     2     3   ar
    10     2     1   ar
    11     3     4   ar
    12    20     1   ar
    13    20    10   am
    14    16    15   ar
    15    16    11   ar
    16    15    14   ar
    17     1     6   ar
    18    10    22    2
    19    10    11    1
    20     4    21    1
    21     4     5   ar
    22     7    21    1
    23    11    12   ar
    24     6     5   ar
    25    14    25    1
    26    14    13   ar
    27    12    13   ar
