@<TRIPOS>MOLECULE
2dmr_PGD_A_1.pdb
 47 52 0 0 0
SMALL
GASTEIGER

@<TRIPOS>ATOM
      1  PB         3.8040   48.6660   30.6760 P.3   782  PGD782      0.2189
      2  O1B        2.7200   48.7920   29.3440 O.2   782  PGD782     -0.5170
      3  O2B        4.1990   50.2600   31.1970 O.3   782  PGD782     -0.4371
      4  O3B        2.9840   47.9520   31.8320 O.3   782  PGD782     -0.2703
      5  O3A        1.3380   47.0580   33.7250 O.3   782  PGD782     -0.3112
      6  PA         2.2760   46.6030   32.3300 P.3   782  PGD782      0.2189
      7  O1A        1.2960   46.0290   31.0320 O.2   782  PGD782     -0.5170
      8  O2A        3.5600   45.5230   32.7070 O.3   782  PGD782     -0.4371
      9  O5'        5.2730   47.8100   30.4370 O.3   782  PGD782     -0.3112
     10  C5'        5.2700   47.0790   29.2560 C.3   782  PGD782      0.1813
     11  C4'        6.7350   47.0160   28.8460 C.3   782  PGD782      0.1799
     12  O4'        6.8270   46.3200   27.6440 O.3   782  PGD782     -0.3326
     13  C3'        7.3570   48.3840   28.6810 C.3   782  PGD782      0.2158
     14  O3'        8.4580   48.6210   29.5310 O.3   782  PGD782     -0.2175
     15  C2'        7.6780   48.4140   27.2090 C.3   782  PGD782      0.2310
     16  O2'        8.7990   49.1410   26.8880 O.3   782  PGD782     -0.2158
     17  C1'        7.8530   46.9490   26.8980 C.3   782  PGD782      0.2293
     18  N9         7.7700   46.5870   25.4940 N.pl3 782  PGD782     -0.2354
     19  C8         6.8440   46.9940   24.5870 C.3   782  PGD782      0.2246
     20  N7         6.9780   46.3660   23.3960 N.2   782  PGD782     -0.2322
     21  C5         7.9740   45.4900   23.5850 C.2   782  PGD782      0.2182
     22  C6         8.5030   44.5460   22.7120 C.1   782  PGD782      0.2372
     23  O6         7.9760   44.1370   21.6920 O.2   782  PGD782     -0.2069
     24  N1         9.5480   43.8140   23.2100 N.2   782  PGD782     -0.2485
     25  C2         9.7490   43.7320   24.5770 C.1   782  PGD782      0.2531
     26  N2        10.7830   42.8710   25.0300 N.pl3 782  PGD782     -0.0226
     27  N3         9.2180   44.6700   25.4210 N.2   782  PGD782     -0.3074
     28  C4         8.4750   45.6490   24.8330 C.2   782  PGD782      0.2300
     29  C10        0.0380   47.3080   33.3050 C.3   782  PGD782      0.1795
     30  C11       -0.9180   47.0420   34.4400 C.3   782  PGD782      0.1589
     31  O11       -0.6380   47.8470   35.5470 O.3   782  PGD782     -0.3315
     32  C12       -2.3710   47.0290   34.0260 C.3   782  PGD782      0.1004
     33  S12       -2.8130   46.0250   32.5810 S.3   782  PGD782     -0.0794
     34  C13       -3.3370   47.4650   34.8940 C.3   782  PGD782      0.0980
     35  S13       -5.0980   47.1300   34.5570 S.3   782  PGD782     -0.0799
     36  C14       -2.9560   47.8340   36.2940 C.3   782  PGD782      0.1678
     37  N15       -3.3100   49.1970   36.6660 N.2   782  PGD782     -0.2452
     38  C16       -2.8910   49.6790   37.9550 C.2   782  PGD782      0.2464
     39  C17       -3.6870   50.5070   38.7550 C.1   782  PGD782      0.2441
     40  O17       -4.7020   51.0170   38.3190 O.2   782  PGD782     -0.2063
     41  N18       -3.2730   50.8400   40.0060 N.2   782  PGD782     -0.2474
     42  C19       -2.2080   50.2180   40.5940 C.1   782  PGD782      0.2608
     43  N19       -1.7200   50.7470   41.8160 N.pl3 782  PGD782     -0.0220
     44  N20       -1.3880   49.4690   39.8130 N.2   782  PGD782     -0.2682
     45  C21       -1.7800   49.0820   38.5670 C.1   782  PGD782      0.1292
     46  N22       -1.0290   48.1030   37.8460 N.2   782  PGD782     -0.1767
     47  C23       -1.4930   47.4950   36.6070 C.3   782  PGD782      0.2531
@<TRIPOS>BOND
     1    23    22    2
     2    22    24    2
     3    22    21    1
     4    24    25    2
     5    20    21    2
     6    20    19    1
     7    21    28    1
     8    25    26    1
     9    25    27    2
    10    19    18    1
    11    28    27    2
    12    28    18    1
    13    18    17    1
    14    16    15    1
    15    17    15    1
    16    17    12    1
    17    15    13    1
    18    12    11    1
    19    13    11    1
    20    13    14    1
    21    11    10    1
    22    10     9    1
    23     2     1    2
    24     9     1    1
    25     1     3    1
    26     1     4    1
    27     7     6    2
    28     4     6    1
    29     6     8    1
    30     6     5    1
    31    33    32    1
    32    29     5    1
    33    29    30    1
    34    32    30    1
    35    32    34    1
    36    30    31    1
    37    35    34    1
    38    34    36    1
    39    31    47    1
    40    36    47    1
    41    36    37    1
    42    47    46    1
    43    37    38    2
    44    46    45    2
    45    38    45    1
    46    38    39    1
    47    40    39    2
    48    45    44    2
    49    39    41    2
    50    44    42    2
    51    41    42    2
    52    42    43    1
