@<TRIPOS>MOLECULE
2dn1_HEM_A_1.pdb
 43 50 0 0 0
SMALL
GASTEIGER

@<TRIPOS>ATOM
      1 FE         40.1640   29.1860   15.1870 Fe    142  HEM142      0.0000
      2  CHA       42.8680   28.1590   17.0370 C.2   142  HEM142      0.0000
      3  CHB       40.8330   32.4010   16.0710 C.2   142  HEM142      0.0000
      4  CHC       37.5260   30.2540   13.2040 C.2   142  HEM142      0.0000
      5  CHD       39.3300   25.9510   14.5930 C.2   142  HEM142      0.0000
      6  NA        41.5640   30.0740   16.3470 N.2   142  HEM142      0.0000
      7  C1A       42.6050   29.4860   17.0290 C.2   142  HEM142      0.0000
      8  C2A       43.3860   30.4870   17.7620 C.2   142  HEM142      0.0000
      9  C3A       42.7180   31.6690   17.4810 C.2   142  HEM142      0.0000
     10  C4A       41.6180   31.5010   16.6530 C.2   142  HEM142      0.0000
     11  CMA       43.2020   33.0260   18.0950 C.3   142  HEM142      0.0000
     12  CAA       44.4200   30.2080   18.6930 C.3   142  HEM142      0.0000
     13  CBA       45.7630   30.2070   17.9150 C.3   142  HEM142      0.0000
     14  CGA       47.0150   29.6050   18.8630 C.3   142  HEM142      0.0000
     15  O1A       46.7440   30.3670   20.1360 O.2   142  HEM142      0.0000
     16  O2A       48.0470   29.7570   18.0160 O.2   142  HEM142      0.0000
     17  NB        39.3870   30.9880   14.7440 N.ar  142  HEM142      0.0000
     18  C1B       39.7970   32.2560   15.2310 C.ar  142  HEM142      0.0000
     19  C2B       38.8910   33.2500   14.7210 C.ar  142  HEM142      0.0000
     20  C3B       38.0000   32.6760   13.8490 C.ar  142  HEM142      0.0000
     21  C4B       38.3700   31.2650   13.8940 C.ar  142  HEM142      0.0000
     22  CMB       39.1470   34.7180   15.0020 C.3   142  HEM142      0.0000
     23  CAB       36.9710   33.2050   13.0640 C.3   142  HEM142      0.0000
     24  CBB       36.0780   34.3100   13.5220 C.3   142  HEM142      0.0000
     25  NC        38.7570   28.2650   14.1120 N.2   142  HEM142      0.0000
     26  C1C       37.7240   28.8570   13.3830 C.2   142  HEM142      0.0000
     27  C2C       36.8380   27.9000   12.7410 C.2   142  HEM142      0.0000
     28  C3C       37.3700   26.6160   13.2410 C.2   142  HEM142      0.0000
     29  C4C       38.4940   26.8650   14.0040 C.2   142  HEM142      0.0000
     30  CMC       35.7180   28.1880   11.9260 C.3   142  HEM142      0.0000
     31  CAC       36.7390   25.3030   13.0140 C.2   142  HEM142      0.0000
     32  CBC       35.4460   25.0620   12.9130 C.2   142  HEM142      0.0000
     33  ND        40.8840   27.3760   15.7210 N.ar  142  HEM142      0.0000
     34  C1D       40.4180   26.1340   15.3740 C.ar  142  HEM142      0.0000
     35  C2D       41.2120   25.1650   16.0690 C.ar  142  HEM142      0.0000
     36  C3D       42.1590   25.7320   16.7330 C.ar  142  HEM142      0.0000
     37  C4D       41.9670   27.1550   16.4050 C.ar  142  HEM142      0.0000
     38  CMD       40.8460   23.5840   16.0330 C.3   142  HEM142      0.0000
     39  CAD       43.2610   25.0990   17.5660 C.3   142  HEM142      0.0000
     40  CBD       42.8390   24.8460   18.9770 C.3   142  HEM142      0.0000
     41  CGD       43.6780   24.2720   20.0100 C.2   142  HEM142      0.0000
     42  O1D       43.8080   24.5750   21.2090 O.co2 142  HEM142      0.0000
     43  O2D       44.1300   23.0510   19.5940 O.co2 142  HEM142      0.0000
@<TRIPOS>BOND
     1    30    27    1
     2    27    28    2
     3    27    26    1
     4    32    31    2
     5    31    28    1
     6    23    24    1
     7    23    20    1
     8     4    26    2
     9     4    21    1
    10    28    29    1
    11    26    25    1
    12    20    21   ar
    13    20    19   ar
    14    21    17   ar
    15    29    25    2
    16    29     5    1
    17    25     1    1
    18     5    34    2
    19    19    22    1
    20    19    18   ar
    21    17     1    1
    22    17    18   ar
    23     1    33    1
    24     1     6    1
    25    18     3    1
    26    34    33   ar
    27    34    35   ar
    28    33    37   ar
    29    38    35    1
    30    35    36   ar
    31     3    10    2
    32     6    10    1
    33     6     7    2
    34    37    36   ar
    35    37     2    2
    36    10     9    1
    37    36    39    1
    38     7     2    1
    39     7     8    1
    40     9     8    2
    41     9    11    1
    42    39    40    1
    43     8    12    1
    44    13    12    1
    45    13    14    1
    46    16    14    1
    47    14    15    1
    48    40    41    1
    49    43    41   ar
    50    41    42   ar
