@<TRIPOS>MOLECULE
2dn2_HEM_A_1.pdb
 43 50 0 0 0
SMALL
GASTEIGER

@<TRIPOS>ATOM
      1 FE         18.4090   18.4360   23.7150 Fe    142  HEM142      0.0000
      2  CHA       18.7070   18.6250   20.3240 C.2   142  HEM142      0.0000
      3  CHB       21.0680   20.7090   24.0590 C.2   142  HEM142      0.0000
      4  CHC       18.6150   17.7920   27.1300 C.2   142  HEM142      0.0000
      5  CHD       16.6510   15.4370   23.2990 C.2   142  HEM142      0.0000
      6  NA        19.6900   19.4560   22.3880 N.2   142  HEM142      0.0000
      7  C1A       19.5280   19.4760   20.9200 C.2   142  HEM142      0.0000
      8  C2A       20.4730   20.4350   20.4760 C.2   142  HEM142      0.0000
      9  C3A       21.1940   21.0400   21.5250 C.2   142  HEM142      0.0000
     10  C4A       20.6690   20.3620   22.7420 C.2   142  HEM142      0.0000
     11  CMA       22.3270   21.8970   21.4560 C.3   142  HEM142      0.0000
     12  CAA       20.8140   20.5670   18.9520 C.3   142  HEM142      0.0000
     13  CBA       20.0130   21.8440   18.6510 C.3   142  HEM142      0.0000
     14  CGA       20.1800   21.9920   17.0100 C.2   142  HEM142      0.0000
     15  O1A       20.8870   21.1030   16.3070 O.co2 142  HEM142      0.0000
     16  O2A       19.1690   22.9490   16.3830 O.co2 142  HEM142      0.0000
     17  NB        19.6170   19.0870   25.3320 N.ar  142  HEM142      0.0000
     18  C1B       20.6190   20.1080   25.2320 C.ar  142  HEM142      0.0000
     19  C2B       21.1490   20.3820   26.5220 C.ar  142  HEM142      0.0000
     20  C3B       20.3770   19.6110   27.4500 C.ar  142  HEM142      0.0000
     21  C4B       19.4580   18.7200   26.7150 C.ar  142  HEM142      0.0000
     22  CMB       22.1440   21.4410   26.9010 C.3   142  HEM142      0.0000
     23  CAB       20.3860   19.5470   28.9280 C.3   142  HEM142      0.0000
     24  CBB       21.7290   19.6970   29.6670 C.3   142  HEM142      0.0000
     25  NC        17.7230   16.9270   25.0300 N.2   142  HEM142      0.0000
     26  C1C       17.8470   16.8730   26.4190 C.2   142  HEM142      0.0000
     27  C2C       17.2050   15.6950   26.8870 C.2   142  HEM142      0.0000
     28  C3C       16.6910   15.0050   25.7900 C.2   142  HEM142      0.0000
     29  C4C       16.9670   15.8140   24.6160 C.2   142  HEM142      0.0000
     30  CMC       17.1310   15.3650   28.3110 C.3   142  HEM142      0.0000
     31  CAC       16.0240   13.6700   25.7920 C.2   142  HEM142      0.0000
     32  CBC       16.2660   12.6510   26.6630 C.2   142  HEM142      0.0000
     33  ND        17.7880   17.2630   22.1190 N.ar  142  HEM142      0.0000
     34  C1D       16.9780   16.1340   22.1340 C.ar  142  HEM142      0.0000
     35  C2D       16.6690   15.7050   20.7860 C.ar  142  HEM142      0.0000
     36  C3D       17.2840   16.5280   19.9260 C.ar  142  HEM142      0.0000
     37  C4D       17.9650   17.5360   20.7380 C.ar  142  HEM142      0.0000
     38  CMD       15.9070   14.5240   20.4710 C.3   142  HEM142      0.0000
     39  CAD       17.2570   16.6050   18.4550 C.3   142  HEM142      0.0000
     40  CBD       18.3800   15.7030   18.0330 C.3   142  HEM142      0.0000
     41  CGD       18.4570   15.7050   16.4880 C.2   142  HEM142      0.0000
     42  O1D       19.5230   15.9850   16.0390 O.co2 142  HEM142      0.0000
     43  O2D       17.6730   15.2200   15.8700 O.co2 142  HEM142      0.0000
@<TRIPOS>BOND
     1    43    41   ar
     2    42    41   ar
     3    15    14   ar
     4    16    14   ar
     5    41    40    1
     6    14    13    1
     7    40    39    1
     8    39    36    1
     9    13    12    1
    10    12     8    1
    11    36    37   ar
    12    36    35   ar
    13     2    37    2
    14     2     7    1
    15    38    35    1
    16     8     7    1
    17     8     9    2
    18    37    33   ar
    19    35    34   ar
    20     7     6    2
    21    11     9    1
    22     9    10    1
    23    33    34   ar
    24    33     1    1
    25    34     5    2
    26     6    10    1
    27     6     1    1
    28    10     3    2
    29     5    29    1
    30     1    25    1
    31     1    17    1
    32     3    18    1
    33    29    25    2
    34    29    28    1
    35    25    26    1
    36    18    17   ar
    37    18    19   ar
    38    17    21   ar
    39    28    31    1
    40    28    27    2
    41    31    32    2
    42    26    27    1
    43    26     4    2
    44    19    22    1
    45    19    20   ar
    46    21     4    1
    47    21    20   ar
    48    27    30    1
    49    20    23    1
    50    23    24    1
