@<TRIPOS>MOLECULE
2dn3_HEM_A_1.pdb
 43 50 0 0 0
SMALL
GASTEIGER

@<TRIPOS>ATOM
      1 FE         40.2220   29.4040   15.4130 Fe    142  HEM142      0.0000
      2  CHA       42.9820   28.4450   17.2510 C.2   142  HEM142      0.0000
      3  CHB       40.7950   32.6030   16.2900 C.2   142  HEM142      0.0000
      4  CHC       37.6530   30.3540   13.4120 C.2   142  HEM142      0.0000
      5  CHD       39.5300   26.1200   14.7950 C.2   142  HEM142      0.0000
      6  NA        41.6190   30.3320   16.5590 N.2   142  HEM142      0.0000
      7  C1A       42.7090   29.7520   17.2340 C.2   142  HEM142      0.0000
      8  C2A       43.4240   30.7280   17.9650 C.2   142  HEM142      0.0000
      9  C3A       42.7230   31.9450   17.7700 C.2   142  HEM142      0.0000
     10  C4A       41.7350   31.7040   16.8590 C.2   142  HEM142      0.0000
     11  CMA       43.1510   33.3130   18.2360 C.3   142  HEM142      0.0000
     12  CAA       44.5550   30.5810   18.8100 C.3   142  HEM142      0.0000
     13  CBA       45.7660   30.7220   18.0330 C.3   142  HEM142      0.0000
     14  CGA       47.2720   30.0380   19.0900 C.2   142  HEM142      0.0000
     15  O1A       47.1210   29.6220   20.1650 O.co2 142  HEM142      0.0000
     16  O2A       48.1210   30.9050   18.1600 O.co2 142  HEM142      0.0000
     17  NB        39.4410   31.2010   14.8880 N.ar  142  HEM142      0.0000
     18  C1B       39.8220   32.4150   15.3660 C.ar  142  HEM142      0.0000
     19  C2B       38.9830   33.4390   14.8210 C.ar  142  HEM142      0.0000
     20  C3B       38.0610   32.8150   13.9800 C.ar  142  HEM142      0.0000
     21  C4B       38.4330   31.3940   14.0460 C.ar  142  HEM142      0.0000
     22  CMB       39.1660   34.9330   15.0890 C.3   142  HEM142      0.0000
     23  CAB       36.9390   33.4150   13.2260 C.2   142  HEM142      0.0000
     24  CBB       36.2150   34.4470   13.5610 C.2   142  HEM142      0.0000
     25  NC        38.8800   28.4690   14.2210 N.2   142  HEM142      0.0000
     26  C1C       37.8780   29.0350   13.5210 C.2   142  HEM142      0.0000
     27  C2C       37.0550   28.0420   13.0020 C.2   142  HEM142      0.0000
     28  C3C       37.4720   26.8580   13.4230 C.2   142  HEM142      0.0000
     29  C4C       38.6940   27.1090   14.1750 C.2   142  HEM142      0.0000
     30  CMC       35.7850   28.3510   12.1340 C.3   142  HEM142      0.0000
     31  CAC       36.9490   25.5200   13.1750 C.2   142  HEM142      0.0000
     32  CBC       35.6290   25.1880   13.1440 C.2   142  HEM142      0.0000
     33  ND        41.1090   27.5720   15.9070 N.ar  142  HEM142      0.0000
     34  C1D       40.6060   26.4000   15.5430 C.ar  142  HEM142      0.0000
     35  C2D       41.4550   25.3700   16.1820 C.ar  142  HEM142      0.0000
     36  C3D       42.4770   25.9900   16.8740 C.ar  142  HEM142      0.0000
     37  C4D       42.2620   27.4560   16.6020 C.ar  142  HEM142      0.0000
     38  CMD       41.1260   23.9060   16.0170 C.3   142  HEM142      0.0000
     39  CAD       43.5930   25.3610   17.6170 C.3   142  HEM142      0.0000
     40  CBD       43.0790   24.9150   18.9100 C.3   142  HEM142      0.0000
     41  CGD       44.4630   24.3250   19.8200 C.3   142  HEM142      0.0000
     42  O1D       44.4120   24.0340   20.7740 O.2   142  HEM142      0.0000
     43  O2D       44.9530   23.3030   18.7890 O.2   142  HEM142      0.0000
@<TRIPOS>BOND
     1    30    27    1
     2    27    28    2
     3    27    26    1
     4    32    31    2
     5    31    28    1
     6    23    24    2
     7    23    20    1
     8     4    26    2
     9     4    21    1
    10    28    29    1
    11    26    25    1
    12    20    21   ar
    13    20    19   ar
    14    21    17   ar
    15    29    25    2
    16    29     5    1
    17    25     1    1
    18     5    34    2
    19    19    22    1
    20    19    18   ar
    21    17    18   ar
    22    17     1    1
    23    18     3    1
    24     1    33    1
    25     1     6    1
    26    34    33   ar
    27    34    35   ar
    28    33    37   ar
    29    38    35    1
    30    35    36   ar
    31     3    10    2
    32     6    10    1
    33     6     7    2
    34    37    36   ar
    35    37     2    2
    36    10     9    1
    37    36    39    1
    38     7     2    1
    39     7     8    1
    40    39    40    1
    41     9     8    2
    42     9    11    1
    43     8    12    1
    44    13    12    1
    45    13    14    1
    46    16    14   ar
    47    43    41    1
    48    40    41    1
    49    14    15   ar
    50    41    42    1
