@<TRIPOS>MOLECULE
2dns_DPN_A_1.pdb
 11 11 0 0 0
SMALL
GASTEIGER

@<TRIPOS>ATOM
      1  N        -13.3430   40.1750   87.7830 N.3   1060  DPN1060    -0.1241
      2  CA       -13.0220   38.8070   88.1360 C.3   1060  DPN1060     0.1605
      3  C        -11.7740   38.8100   88.9640 C.2   1060  DPN1060     0.2264
      4  O        -11.5430   39.7340   89.7290 O.2   1060  DPN1060    -0.2867
      5  CB       -14.0850   38.1450   89.0040 C.3   1060  DPN1060     0.0534
      6  CG       -15.4820   38.1400   88.4140 C.ar  1060  DPN1060    -0.0203
      7  CD1      -15.8510   37.1670   87.4820 C.ar  1060  DPN1060    -0.0042
      8  CD2      -16.4100   39.1030   88.8390 C.ar  1060  DPN1060    -0.0042
      9  CE1      -17.1490   37.1770   86.9640 C.ar  1060  DPN1060    -0.0003
     10  CE2      -17.7040   39.1110   88.3200 C.ar  1060  DPN1060    -0.0003
     11  CZ       -18.0750   38.1490   87.3770 C.ar  1060  DPN1060    -0.0000
@<TRIPOS>BOND
     1     9    11   ar
     2     9     7   ar
     3    11    10   ar
     4     7     6   ar
     5     1     2    1
     6     2     3    1
     7     2     5    1
     8    10     8   ar
     9     6     8   ar
    10     6     5    1
    11     3     4    2
