@<TRIPOS>MOLECULE
2do2_III_P_1.pdb
 33 32 0 0 0
SMALL
GASTEIGER

@<TRIPOS>ATOM
      1  N         27.6850   12.6410  -10.7970 N.3     1  ALA1       -0.1231
      2  CA        27.1420   11.3710  -10.3140 C.3     1  ALA1        0.1694
      3  C         25.9900   11.6210   -9.3190 C.2     1  ALA1        0.2592
      4  O         24.8150   11.4260   -9.6070 O.2     1  ALA1       -0.2718
      5  CB        28.2430   10.5380   -9.6630 C.3     1  ALA1        0.0304
      6  N         26.4360   12.0680   -8.1500 N.am    2  LEU2       -0.1966
      7  CA        25.7100   12.3540   -6.9120 C.3     2  LEU2        0.1728
      8  C         24.2020   12.4340   -6.9740 C.2     2  LEU2        0.2616
      9  O         23.5280   11.9150   -6.0990 O.2     2  LEU2       -0.2715
     10  CB        26.3230   13.5730   -6.2480 C.3     2  LEU2        0.0311
     11  CG        27.2630   13.2040   -5.1100 C.3     2  LEU2        0.0022
     12  CD1       26.4870   12.5740   -3.9640 C.3     2  LEU2        0.0001
     13  CD2       28.3640   12.2710   -5.6010 C.3     2  LEU2        0.0001
     14  N         23.6520   13.0960   -8.0080 N.am    3  ALA3       -0.1963
     15  CA        22.2160   13.2730   -8.1210 C.3     3  ALA3        0.1728
     16  C         21.4860   12.0800   -8.7440 C.2     3  ALA3        0.2617
     17  O         20.3340   12.2250   -9.1540 O.2     3  ALA3       -0.2715
     18  CB        21.9300   14.5300   -8.9240 C.3     3  ALA3        0.0334
     19  N         22.1400   10.8720   -8.8100 N.am    4  SER4       -0.1936
     20  CA        21.3850    9.7790   -9.4750 C.3     4  SER4        0.2055
     21  C         21.4230    8.2500   -8.9610 C.2     4  SER4        0.2642
     22  O         21.7550    7.9850   -7.8050 O.2     4  SER4       -0.2714
     23  CB        21.6890    9.7800  -10.9830 C.3     4  SER4        0.2130
     24  OG        23.0650   10.0020  -11.2290 O.3     4  SER4       -0.2179
     25  N         21.0430    7.3440   -9.8760 N.am    5  LYS5       -0.1977
     26  CA        20.9520    5.9160   -9.6090 C.3     5  LYS5        0.1596
     27  C         22.1270    5.4380   -8.7740 C.2     5  LYS5        0.2287
     28  O         23.1560    5.0260   -9.3180 O.2     5  LYS5       -0.2864
     29  CB        20.8970    5.1400  -10.9200 C.3     5  LYS5        0.0298
     30  CG        20.6090    3.6580  -10.7670 C.3     5  LYS5        0.0038
     31  CD        19.1750    3.3320  -11.1640 C.3     5  LYS5        0.0206
     32  CE        18.5760    2.2510  -10.2830 C.3     5  LYS5        0.1093
     33  NZ        18.2660    1.0110  -11.0490 N.3     5  LYS5       -0.1314
@<TRIPOS>BOND
     1    24    23    1
     2    31    30    1
     3    31    32    1
     4    33    32    1
     5    23    20    1
     6    29    30    1
     7    29    26    1
     8     1     2    1
     9     2     5    1
    10     2     3    1
    11    25    26    1
    12    25    21   am
    13    26    27    1
    14     4     3    2
    15    20    21    1
    16    20    19    1
    17     3     6   am
    18    28    27    2
    19    17    16    2
    20    21    22    2
    21    18    15    1
    22    19    16   am
    23    16    15    1
    24     6     7    1
    25    15    14    1
    26    14     8   am
    27     8     7    1
    28     8     9    2
    29     7    10    1
    30    10    11    1
    31    13    11    1
    32    11    12    1
