@<TRIPOS>MOLECULE
2doj_ADN_A_1.pdb
 19 21 0 0 0
SMALL
GASTEIGER

@<TRIPOS>ATOM
      1  O5'       11.9650   15.7460   16.6350 O.3   2001  ADN2001    -0.2176
      2  C5'       12.1560   14.3470   16.3860 C.3   2001  ADN2001     0.2143
      3  C4'       10.9000   13.7610   15.7550 C.3   2001  ADN2001     0.1851
      4  O4'       10.6560   14.3060   14.4590 O.3   2001  ADN2001    -0.3134
      5  C3'       10.9900   12.2560   15.5540 C.3   2001  ADN2001     0.2186
      6  O3'       10.1380   11.6060   16.5020 O.3   2001  ADN2001    -0.2174
      7  C2'       10.4680   11.9840   14.1550 C.3   2001  ADN2001     0.2570
      8  O2'        9.4140   11.0110   14.2140 O.3   2001  ADN2001    -0.2130
      9  C1'        9.9240   13.3310   13.7070 C.3   2001  ADN2001     0.3186
     10  N9        10.0460   13.5680   12.2460 N.pl3 2001  ADN2001    -0.1439
     11  C8        11.1950   13.6450   11.5360 C.3   2001  ADN2001     0.3377
     12  N7        10.9580   13.9110   10.2300 N.2   2001  ADN2001    -0.2095
     13  C5         9.6320   13.9120   10.0870 C.2   2001  ADN2001     0.2526
     14  C6         8.7850   14.2400    8.9150 C.2   2001  ADN2001     0.4393
     15  N6         9.3140   14.4120    7.6770 N.pl3 2001  ADN2001     0.2180
     16  N1         7.4610   14.2430    9.1310 N.2   2001  ADN2001     0.0021
     17  C2         6.9470   14.0500   10.3640 C.3   2001  ADN2001     0.5254
     18  N3         7.6830   13.8200   11.4740 N.2   2001  ADN2001    -0.0055
     19  C4         9.0200   13.7880   11.4090 C.2   2001  ADN2001     0.3518
@<TRIPOS>BOND
     1    15    14    1
     2    14    16    2
     3    14    13    1
     4    16    17    1
     5    13    12    2
     6    13    19    1
     7    12    11    1
     8    17    18    1
     9    19    18    2
    10    19    10    1
    11    11    10    1
    12    10     9    1
    13     9     7    1
    14     9     4    1
    15     7     8    1
    16     7     5    1
    17     4     3    1
    18     5     3    1
    19     5     6    1
    20     3     2    1
    21     2     1    1
