@<TRIPOS>MOLECULE
2doo_C4H_A_1.pdb
 27 28 0 0 0
SMALL
GASTEIGER

@<TRIPOS>ATOM
      1  C1        29.6070   45.8040   33.4710 C.ar  601  C4H601      0.0146
      2  C2        28.8450   44.6830   32.9420 C.ar  601  C4H601      0.0013
      3  C3        30.2050   46.9530   32.6940 C.ar  601  C4H601      0.0479
      4  N4        30.1240   47.1320   31.1460 N.pl3 601  C4H601     -0.3041
      5  C5        28.9900   47.7580   30.8110 C.3   601  C4H601      0.1122
      6  C6        30.3060   46.1350   30.4870 C.3   601  C4H601      0.1122
      7  C7        30.9150   47.9550   33.4300 C.ar  601  C4H601      0.0145
      8  C8        31.0680   47.9150   34.8450 C.ar  601  C4H601      0.0013
      9  C9        30.5070   46.8380   35.5810 C.ar  601  C4H601      0.0014
     10  C10       29.7670   45.7720   34.9400 C.ar  601  C4H601      0.0199
     11  C11       29.2020   44.6540   35.7550 C.ar  601  C4H601      0.1236
     12  C12       28.4680   43.6060   35.1070 C.ar  601  C4H601      0.0200
     13  C13       28.3030   43.6310   33.7190 C.ar  601  C4H601      0.0014
     14  S14       29.4140   44.6000   37.5190 S.O2  601  C4H601      0.0768
     15  N15       30.8320   44.4080   37.9770 N.3   601  C4H601     -0.0778
     16  C16       31.8760   43.8390   37.0940 C.3   601  C4H601      0.1155
     17  C17       32.5270   42.5660   37.7580 C.3   601  C4H601      0.0226
     18  C18       33.0550   42.9310   39.2220 C.3   601  C4H601      0.0250
     19  C19       33.7680   41.7850   39.9060 C.3   601  C4H601      0.1152
     20  N20       33.9520   42.0030   41.3800 N.am  601  C4H601     -0.2054
     21  C21       33.1670   41.1300   42.3080 C.2   601  C4H601      0.2423
     22  O22       32.4080   40.2780   41.8450 O.2   601  C4H601     -0.2733
     23  C23       33.3510   41.3770   43.8440 C.3   601  C4H601      0.0993
     24  C24       32.1730   40.9190   44.6920 C.3   601  C4H601      0.0783
     25  S25       30.6760   41.9520   44.8060 S.3   601  C4H601     -0.0816
     26  O26       28.5580   43.5070   38.1010 O.2   601  C4H601     -0.1516
     27  O27       29.0090   45.9080   38.0760 O.2   601  C4H601     -0.1516
@<TRIPOS>BOND
     1     6     4    1
     2     5     4    1
     3     4     3    1
     4     3     7   ar
     5     3     1   ar
     6     2     1   ar
     7     2    13   ar
     8     7     8   ar
     9     1    10   ar
    10    13    12   ar
    11     8     9   ar
    12    10     9   ar
    13    10    11   ar
    14    12    11   ar
    15    11    14    1
    16    16    17    1
    17    16    15    1
    18    14    15    1
    19    14    27    2
    20    14    26    2
    21    17    18    1
    22    18    19    1
    23    19    20    1
    24    20    21   am
    25    22    21    2
    26    21    23    1
    27    23    24    1
    28    24    25    1
