@<TRIPOS>MOLECULE
2dor_FMN_A_1.pdb
 31 33 0 0 0
SMALL
GASTEIGER

@<TRIPOS>ATOM
      1  N1         3.8710   47.8440   17.8420 N.2   312  FMN312     -0.2887
      2  C2         4.7920   48.7430   18.2920 C.1   312  FMN312      0.3669
      3  O2         5.3730   48.6580   19.3530 O.2   312  FMN312     -0.1744
      4  N3         5.0920   49.8070   17.4460 N.2   312  FMN312     -0.2300
      5  C4         4.5170   50.0270   16.1870 C.1   312  FMN312      0.2513
      6  O4         4.9240   50.9960   15.5300 O.2   312  FMN312     -0.2057
      7  C4A        3.5550   48.9830   15.8210 C.2   312  FMN312      0.2706
      8  N5         2.9870   49.1330   14.5790 N.2   312  FMN312     -0.3841
      9  C5A        1.9230   48.3210   14.2480 C.2   312  FMN312      0.1452
     10  C6         1.2890   48.5620   13.0600 C.2   312  FMN312      0.0252
     11  C7         0.1740   47.7890   12.7670 C.2   312  FMN312     -0.0375
     12  C7M       -0.7110   48.1450   11.5400 C.3   312  FMN312      0.0268
     13  C8        -0.2650   46.7710   13.6440 C.3   312  FMN312      0.0417
     14  C8M       -1.5840   46.0030   13.3550 C.3   312  FMN312      0.0091
     15  C9         0.4140   46.5210   14.8090 C.2   312  FMN312     -0.0049
     16  C9A        1.5040   47.2870   15.1250 C.2   312  FMN312      0.0795
     17  N10        2.2270   47.0340   16.2890 N.pl3 312  FMN312     -0.2545
     18  C10        3.2030   47.8880   16.6590 C.2   312  FMN312      0.2449
     19  C1'        1.9270   45.9860   17.1000 C.3   312  FMN312      0.1336
     20  C2'        0.9480   46.3750   18.2440 C.3   312  FMN312      0.2048
     21  O2'        1.0890   47.5980   18.9460 O.3   312  FMN312     -0.2185
     22  C3'        0.3280   45.2330   19.0480 C.3   312  FMN312      0.2165
     23  O3'        1.4300   44.8520   19.8710 O.3   312  FMN312     -0.2175
     24  C4'       -0.1870   44.1010   18.1180 C.3   312  FMN312      0.2147
     25  O4'       -0.8250   44.4350   16.9360 O.3   312  FMN312     -0.2176
     26  C5'       -0.8660   43.0150   18.9440 C.3   312  FMN312      0.1892
     27  O5'       -2.1780   43.5260   19.2510 O.3   312  FMN312     -0.2674
     28  P         -3.5620   43.3160   18.5170 P.3   312  FMN312      0.5327
     29  O1P       -3.8020   41.8690   18.5920 O.3   312  FMN312     -0.1145
     30  O2P       -3.2340   43.7920   17.1480 O.2   312  FMN312     -0.2224
     31  O3P       -4.5980   44.0950   19.1780 O.3   312  FMN312     -0.1145
@<TRIPOS>BOND
     1    12    11    1
     2    11    10    2
     3    11    13    1
     4    10     9    1
     5    14    13    1
     6    13    15    1
     7     9     8    2
     8     9    16    1
     9     8     7    2
    10    15    16    2
    11    16    17    1
    12     6     5    2
    13     7     5    1
    14     7    18    1
    15     5     4    2
    16    17    18    1
    17    17    19    1
    18    18     1    2
    19    25    24    1
    20    19    20    1
    21    30    28    2
    22     4     2    2
    23     1     2    2
    24    24    26    1
    25    24    22    1
    26    20    21    1
    27    20    22    1
    28     2     3    2
    29    28    29    1
    30    28    31    1
    31    28    27    1
    32    26    27    1
    33    22    23    1
