@<TRIPOS>MOLECULE
2dpg_NAP_A_1.pdb
 31 33 0 0 0
SMALL
GASTEIGER

@<TRIPOS>ATOM
      1  PA        88.3760   69.3310   25.9770 P.3   799  NAP799      0.2231
      2  O1A       87.9120   69.6420   24.6060 O.2   799  NAP799     -0.5169
      3  O2A       89.1150   70.4940   26.5280 O.3   799  NAP799     -0.4370
      4  O5B       89.1880   67.9570   26.0640 O.3   799  NAP799     -0.3111
      5  C5B       88.5170   66.7810   26.5670 C.3   799  NAP799      0.1813
      6  C4B       89.1750   66.3230   27.8420 C.3   799  NAP799      0.1820
      7  O4B       89.4660   64.9160   27.6810 O.3   799  NAP799     -0.3136
      8  C3B       90.5020   66.9970   28.1860 C.3   799  NAP799      0.2157
      9  O3B       90.6930   67.2460   29.5940 O.3   799  NAP799     -0.2175
     10  C2B       91.4950   65.9910   27.6370 C.3   799  NAP799      0.2314
     11  O2B       92.7510   66.0540   28.3050 O.3   799  NAP799     -0.2630
     12  C1B       90.8210   64.6740   27.8890 C.3   799  NAP799      0.3158
     13  N9A       91.3070   63.6010   27.0310 N.pl3 799  NAP799     -0.1439
     14  C8A       91.2380   63.4840   25.6420 C.3   799  NAP799      0.3377
     15  N7A       91.7580   62.3420   25.1900 N.2   799  NAP799     -0.2095
     16  C5A       92.1580   61.7490   26.3180 C.2   799  NAP799      0.2526
     17  C6A       92.7740   60.5000   26.3840 C.2   799  NAP799      0.4393
     18  N6A       93.0460   59.7560   25.3200 N.pl3 799  NAP799      0.2180
     19  N1A       93.1160   60.0440   27.6230 N.2   799  NAP799      0.0021
     20  C2A       92.8260   60.8370   28.7180 C.3   799  NAP799      0.5254
     21  N3A       92.2430   62.0330   28.7660 N.2   799  NAP799     -0.0055
     22  C4A       91.9250   62.4340   27.4830 C.2   799  NAP799      0.3518
     23  O3        87.0850   68.9880   26.9450 O.3   799  NAP799     -0.2261
     24  PN        85.5480   69.5700   27.0160 P.3   799  NAP799      0.5373
     25  O1N       85.1590   70.1350   25.7030 O.2   799  NAP799     -0.2221
     26  O2N       85.4830   70.6350   28.0470 O.3   799  NAP799     -0.1143
     27  O5D       84.7280   68.2560   27.4110 O.3   799  NAP799     -0.1143
     28  P2B       94.0430   65.9450   27.3830 P.3   799  NAP799      0.5328
     29  O1X       93.7150   66.7070   26.1600 O.2   799  NAP799     -0.2224
     30  O2X       94.2060   64.4960   27.1610 O.3   799  NAP799     -0.1145
     31  O3X       95.1210   66.5490   28.2150 O.3   799  NAP799     -0.1145
@<TRIPOS>BOND
     1     2     1    2
     2    15    14    1
     3    15    16    2
     4    18    17    1
     5    14    13    1
     6    25    24    2
     7     1     4    1
     8     1     3    1
     9     1    23    1
    10     4     5    1
    11    29    28    2
    12    16    17    1
    13    16    22    1
    14    17    19    2
    15     5     6    1
    16    23    24    1
    17    24    27    1
    18    24    26    1
    19    13    22    1
    20    13    12    1
    21    30    28    1
    22    28    31    1
    23    28    11    1
    24    22    21    2
    25    19    20    1
    26    10    12    1
    27    10     8    1
    28    10    11    1
    29     7     6    1
    30     7    12    1
    31     6     8    1
    32     8     9    1
    33    20    21    1
