@<TRIPOS>MOLECULE
2dph_NAD_A_1.pdb
 44 48 0 0 0
SMALL
GASTEIGER

@<TRIPOS>ATOM
      1  PA        11.7840   72.5200   45.0060 P.3   1403  NAD1403     0.2189
      2  O1A       10.6810   73.4720   45.1800 O.2   1403  NAD1403    -0.5170
      3  O2A       13.0450   73.1140   45.4810 O.3   1403  NAD1403    -0.4371
      4  O5B       11.8900   72.0410   43.4690 O.3   1403  NAD1403    -0.3112
      5  C5B       11.1030   72.6330   42.4500 C.3   1403  NAD1403     0.1813
      6  C4B       12.0040   73.0920   41.3010 C.3   1403  NAD1403     0.1821
      7  O4B       11.2410   73.2590   40.1210 O.3   1403  NAD1403    -0.3135
      8  C3B       12.6820   74.4320   41.5760 C.3   1403  NAD1403     0.2184
      9  O3B       14.0770   74.2700   41.4240 O.3   1403  NAD1403    -0.2174
     10  C2B       12.1220   75.3990   40.5400 C.3   1403  NAD1403     0.2570
     11  O2B       13.0980   76.2900   40.0340 O.3   1403  NAD1403    -0.2130
     12  C1B       11.6360   74.4530   39.4530 C.3   1403  NAD1403     0.3186
     13  N9A       10.5080   74.9290   38.6260 N.pl3 1403  NAD1403    -0.1439
     14  C8A        9.5880   75.9130   38.8850 C.3   1403  NAD1403     0.3377
     15  N7A        8.7240   75.9650   37.8400 N.2   1403  NAD1403    -0.2095
     16  C5A        9.0780   75.0330   36.9230 C.2   1403  NAD1403     0.2526
     17  C6A        8.5560   74.6570   35.6800 C.2   1403  NAD1403     0.4393
     18  N6A        7.4480   75.2200   35.2180 N.pl3 1403  NAD1403     0.2180
     19  N1A        9.1560   73.6400   34.9560 N.2   1403  NAD1403     0.0021
     20  C2A       10.2700   72.9990   35.4660 C.3   1403  NAD1403     0.5254
     21  N3A       10.7800   73.3790   36.6950 N.2   1403  NAD1403    -0.0055
     22  C4A       10.1980   74.3760   37.4100 C.2   1403  NAD1403     0.3518
     23  O3        11.3860   71.2490   45.9070 O.3   1403  NAD1403    -0.2703
     24  PN        11.7400   69.6820   45.7390 P.3   1403  NAD1403     0.2189
     25  O1N       12.2360   69.2260   47.0590 O.3   1403  NAD1403    -0.4371
     26  O2N       12.5260   69.3940   44.5260 O.2   1403  NAD1403    -0.5170
     27  O5D       10.2630   69.0930   45.5510 O.3   1403  NAD1403    -0.3112
     28  C5D        9.5220   69.3220   44.3690 C.3   1403  NAD1403     0.1813
     29  C4D        8.0460   69.0220   44.6050 C.3   1403  NAD1403     0.1799
     30  O4D        7.8570   67.6770   45.0160 O.3   1403  NAD1403    -0.3327
     31  C3D        7.4680   69.8950   45.7070 C.3   1403  NAD1403     0.2158
     32  O3D        6.2470   70.4340   45.2570 O.3   1403  NAD1403    -0.2175
     33  C2D        7.2210   68.9160   46.8410 C.3   1403  NAD1403     0.2309
     34  O2D        6.1710   69.3680   47.6660 O.3   1403  NAD1403    -0.2158
     35  C1D        6.9080   67.6330   46.0730 C.3   1403  NAD1403     0.2263
     36  N1N        6.9740   66.3590   46.8440 N.pl3 1403  NAD1403    -0.2787
     37  C2N        5.9880   65.4060   46.6750 C.3   1403  NAD1403     0.1244
     38  C3N        6.0040   64.1820   47.3610 C.2   1403  NAD1403     0.0544
     39  C7N        5.2990   62.9550   46.8020 C.2   1403  NAD1403     0.2818
     40  O7N        5.4560   61.7170   47.4710 O.2   1403  NAD1403    -0.2670
     41  N7N        4.5510   63.0230   45.6910 N.am  1403  NAD1403    -0.0839
     42  C4N        7.0590   63.9550   48.2500 C.2   1403  NAD1403     0.0033
     43  C5N        8.0630   64.9050   48.4200 C.2   1403  NAD1403     0.0157
     44  C6N        8.0110   66.1060   47.7090 C.2   1403  NAD1403     0.0633
@<TRIPOS>BOND
     1    19    20    1
     2    19    17    2
     3    18    17    1
     4    20    21    1
     5    17    16    1
     6    21    22    2
     7    16    22    1
     8    16    15    2
     9    22    13    1
    10    15    14    1
    11    13    14    1
    12    13    12    1
    13    12     7    1
    14    12    10    1
    15    11    10    1
    16     7     6    1
    17    10     8    1
    18     6     8    1
    19     6     5    1
    20     9     8    1
    21     5     4    1
    22     4     1    1
    23    28    29    1
    24    28    27    1
    25    26    24    2
    26    29    30    1
    27    29    31    1
    28     1     2    2
    29     1     3    1
    30     1    23    1
    31    30    35    1
    32    32    31    1
    33    27    24    1
    34    41    39   am
    35    31    33    1
    36    24    23    1
    37    24    25    1
    38    35    33    1
    39    35    36    1
    40    37    36    1
    41    37    38    1
    42    39    38    1
    43    39    40    2
    44    33    34    1
    45    36    44    1
    46    38    42    2
    47    44    43    2
    48    42    43    1
