@<TRIPOS>MOLECULE
2dpi_DCP_A_1.pdb
 28 29 0 0 0
SMALL
GASTEIGER

@<TRIPOS>ATOM
      1  N1         1.4800   25.4080   19.3360 N.am  875  DCP875     -0.1802
      2  C2         0.7970   26.3140   20.0930 C.1   875  DCP875      0.2756
      3  N3         0.1040   27.2980   19.4630 N.2   875  DCP875     -0.3024
      4  C4         0.0470   27.3770   18.0630 C.2   875  DCP875      0.2346
      5  C5         0.7310   26.4910   17.2870 C.2   875  DCP875      0.0687
      6  C6         1.3540   25.4810   17.9740 C.2   875  DCP875      0.0835
      7  O2         0.9030   26.2010   21.3640 O.2   875  DCP875     -0.1925
      8  N4        -0.7380   28.2680   17.5080 N.pl3 875  DCP875     -0.0921
      9  C1'        2.3630   24.4240   20.1000 C.3   875  DCP875      0.2090
     10  C2'        1.6100   23.0450   20.4070 C.3   875  DCP875      0.0874
     11  C3'        2.3270   22.0450   19.4420 C.3   875  DCP875      0.1857
     12  C4'        3.7030   22.7450   18.9950 C.3   875  DCP875      0.1773
     13  O4'        3.5990   24.1150   19.3190 O.3   875  DCP875     -0.3339
     14  O3'        2.4840   20.7160   20.0540 O.3   875  DCP875     -0.2203
     15  C5'        4.2060   22.5090   17.5430 C.3   875  DCP875      0.1812
     16  O5'        3.2620   23.0510   16.5990 O.3   875  DCP875     -0.3112
     17  PA         2.8540   22.2690   15.3090 P.3   875  DCP875      0.2189
     18  O1A        4.0720   21.6300   14.8870 O.3   875  DCP875     -0.4371
     19  O2A        1.9250   23.0040   14.1500 O.2   875  DCP875     -0.5170
     20  O3A        1.8150   21.1250   15.8430 O.3   875  DCP875     -0.2700
     21  PB         2.1260   19.6890   16.3020 P.3   875  DCP875      0.2277
     22  O1B        1.5550   19.5830   17.7020 O.3   875  DCP875     -0.4368
     23  O2B        3.6560   19.2670   16.3640 O.2   875  DCP875     -0.5168
     24  O3B        1.2190   18.8410   15.2040 O.3   875  DCP875     -0.2258
     25  PG         1.8070   18.0530   13.9380 P.3   875  DCP875      0.5373
     26  O1G        3.0680   18.6970   13.2530 O.3   875  DCP875     -0.1143
     27  O2G        0.6560   18.3070   12.8620 O.2   875  DCP875     -0.2221
     28  O3G        2.0530   16.5640   14.3080 O.3   875  DCP875     -0.1143
@<TRIPOS>BOND
     1    27    25    2
     2    26    25    1
     3    25    28    1
     4    25    24    1
     5    19    17    2
     6    18    17    1
     7    24    21    1
     8    17    20    1
     9    17    16    1
    10    20    21    1
    11    21    23    2
    12    21    22    1
    13    16    15    1
    14     5     6    2
    15     5     4    1
    16     8     4    1
    17    15    12    1
    18     6     1    1
    19     4     3    2
    20    12    13    1
    21    12    11    1
    22    13     9    1
    23     1     2   am
    24     1     9    1
    25    11    14    1
    26    11    10    1
    27     3     2    2
    28     2     7    2
    29     9    10    1
