@<TRIPOS>MOLECULE
2dpj_TTP_A_1.pdb
 29 30 0 0 0
SMALL
GASTEIGER

@<TRIPOS>ATOM
      1  PA         2.7690   22.2510   15.3920 P.3   875  TTP875      0.2189
      2  O1A        3.8860   21.5910   14.8400 O.3   875  TTP875     -0.4371
      3  O2A        1.8970   22.9870   14.3870 O.2   875  TTP875     -0.5170
      4  O3A        1.7130   21.1600   15.9020 O.3   875  TTP875     -0.2700
      5  PB         2.0040   19.6680   16.3240 P.3   875  TTP875      0.2277
      6  O1B        1.4470   19.5930   17.7050 O.3   875  TTP875     -0.4368
      7  O2B        3.5160   19.1830   16.3650 O.2   875  TTP875     -0.5168
      8  O3B        1.1200   18.7560   15.3480 O.3   875  TTP875     -0.2258
      9  PG         1.6770   18.0640   13.9900 P.3   875  TTP875      0.5373
     10  O1G        2.9010   18.7630   13.4860 O.3   875  TTP875     -0.1143
     11  O2G        0.5880   18.4150   12.9670 O.2   875  TTP875     -0.2221
     12  O3G        1.8770   16.5850   14.2970 O.3   875  TTP875     -0.1143
     13  O5'        3.1210   23.0580   16.6660 O.3   875  TTP875     -0.3112
     14  C5'        3.9470   22.4600   17.6210 C.3   875  TTP875      0.1812
     15  C4'        3.5440   22.7080   18.9880 C.3   875  TTP875      0.1773
     16  O4'        3.4980   24.1020   19.2950 O.3   875  TTP875     -0.3339
     17  C3'        2.2680   22.0890   19.4140 C.3   875  TTP875      0.1857
     18  O3'        2.3400   20.7530   19.9870 O.3   875  TTP875     -0.2203
     19  C2'        1.5740   23.0320   20.2860 C.3   875  TTP875      0.0874
     20  C1'        2.2770   24.3510   20.1310 C.3   875  TTP875      0.2090
     21  N1         1.5150   25.3120   19.4370 N.am  875  TTP875     -0.1794
     22  C2         0.9240   26.2850   20.1850 C.1   875  TTP875      0.2844
     23  O2         1.0050   26.1710   21.4040 O.2   875  TTP875     -0.1918
     24  N3         0.1660   27.2970   19.6240 N.2   875  TTP875     -0.2455
     25  C4         0.0500   27.4090   18.2570 C.1   875  TTP875      0.2134
     26  O4        -0.7710   28.2240   17.8060 O.2   875  TTP875     -0.2088
     27  C5         0.6320   26.4390   17.4660 C.2   875  TTP875      0.0891
     28  C5M        0.4750   26.5280   15.9750 C.3   875  TTP875      0.0462
     29  C6         1.3070   25.3800   18.0780 C.2   875  TTP875      0.0877
@<TRIPOS>BOND
     1    11     9    2
     2    10     9    1
     3     9    12    1
     4     9     8    1
     5     3     1    2
     6     2     1    1
     7     8     5    1
     8     1     4    1
     9     1    13    1
    10     4     5    1
    11    28    27    1
    12     5     7    2
    13     5     6    1
    14    13    14    1
    15    27    29    2
    16    27    25    1
    17    14    15    1
    18    26    25    2
    19    29    21    1
    20    25    24    2
    21    15    16    1
    22    15    17    1
    23    16    20    1
    24    17    18    1
    25    17    19    1
    26    21    20    1
    27    21    22   am
    28    24    22    2
    29    20    19    1
    30    22    23    2
