@<TRIPOS>MOLECULE
2dpm_SAM_A_1.pdb
 27 29 0 0 0
SMALL
GASTEIGER

@<TRIPOS>ATOM
      1  N         19.7690   29.6600   59.1930 N.3   300  SAM300     -0.1208
      2  CA        19.1920   28.7030   58.2990 C.3   300  SAM300      0.1952
      3  C         19.2140   27.4800   59.2220 C.2   300  SAM300      0.3819
      4  O         19.0200   27.5980   60.5030 O.co2 300  SAM300     -0.2441
      5  OXT       18.7290   26.3710   58.7470 O.co2 300  SAM300     -0.2441
      6  CB        20.1690   28.5290   57.1570 C.3   300  SAM300      0.0414
      7  CG        19.9600   29.4580   55.9600 C.3   300  SAM300      0.0503
      8  SD        21.2010   29.1440   54.6740 S.3   300  SAM300     -0.1761
      9  CE        22.7820   29.9910   54.8290 C.3   300  SAM300      0.0590
     10  C5'       20.9600   30.4790   53.4820 C.3   300  SAM300      0.0806
     11  C4'       19.6660   30.4080   52.7930 C.3   300  SAM300      0.1622
     12  O4'       19.6030   31.5260   51.9190 O.3   300  SAM300     -0.3153
     13  C3'       19.4570   29.1430   51.9210 C.3   300  SAM300      0.2168
     14  O3'       18.2850   28.4380   52.4150 O.3   300  SAM300     -0.2175
     15  C2'       19.2230   29.8000   50.5030 C.3   300  SAM300      0.2569
     16  O2'       18.2460   29.0460   49.7000 O.3   300  SAM300     -0.2130
     17  C1'       18.6630   31.2080   50.8670 C.3   300  SAM300      0.3185
     18  N9        18.8360   32.2850   49.8320 N.pl3 300  SAM300     -0.1439
     19  C8        19.8280   32.3370   48.8520 C.3   300  SAM300      0.3377
     20  N7        19.7770   33.3980   48.0750 N.2   300  SAM300     -0.2095
     21  C5        18.6550   34.1530   48.5630 C.2   300  SAM300      0.2526
     22  C6        18.0690   35.4280   48.1490 C.2   300  SAM300      0.4393
     23  N6        18.5540   36.1850   47.1160 N.pl3 300  SAM300      0.2180
     24  N1        16.9930   35.8350   48.8600 N.2   300  SAM300      0.0021
     25  C2        16.5060   35.0970   49.8840 C.3   300  SAM300      0.5254
     26  N3        16.9420   33.9090   50.3780 N.2   300  SAM300     -0.0055
     27  C4        18.0590   33.4750   49.6470 C.2   300  SAM300      0.3518
@<TRIPOS>BOND
     1    23    22    1
     2    20    21    2
     3    20    19    1
     4    22    21    1
     5    22    24    2
     6    21    27    1
     7    19    18    1
     8    24    25    1
     9    27    18    1
    10    27    26    2
    11    16    15    1
    12    18    17    1
    13    25    26    1
    14    15    17    1
    15    15    13    1
    16    17    12    1
    17    12    11    1
    18    13    14    1
    19    13    11    1
    20    11    10    1
    21    10     8    1
    22     8     9    1
    23     8     7    1
    24     7     6    1
    25     6     2    1
    26     2     1    1
    27     2     3    1
    28     5     3   ar
    29     3     4   ar
