@<TRIPOS>MOLECULE
2dpt_PUY_A_1.pdb
 34 37 0 0 0
SMALL
GASTEIGER

@<TRIPOS>ATOM
      1  N         37.0200   55.2430   10.5880 N.3   501  PUY501     -0.1227
      2  CA        35.9230   55.5620    9.6320 C.3   501  PUY501      0.1736
      3  CB        34.8100   54.5090    9.8400 C.3   501  PUY501      0.0548
      4  CG        34.7520   53.3440    8.8790 C.ar  501  PUY501     -0.0200
      5  CD1       34.0340   52.1830    9.2270 C.ar  501  PUY501     -0.0011
      6  CD2       35.4090   53.3830    7.6060 C.ar  501  PUY501     -0.0011
      7  CE1       33.9490   51.0780    8.3650 C.ar  501  PUY501      0.0366
      8  CE2       35.3220   52.2540    6.7280 C.ar  501  PUY501      0.0366
      9  CZ        34.6000   51.0990    7.0870 C.ar  501  PUY501      0.1387
     10  O         34.5870   57.4780    9.1910 O.2   501  PUY501     -0.2718
     11  OM        34.4330   49.9600    6.3590 O.3   501  PUY501     -0.4714
     12  CMZ       34.0060   50.0630    4.9910 C.3   501  PUY501      0.2525
     13  C         35.3950   56.9370    9.9300 C.2   501  PUY501      0.2592
     14  O5'       37.4940   60.8250   13.6880 O.3   501  PUY501     -0.2176
     15  C5'       37.4220   59.4880   13.2300 C.3   501  PUY501      0.2134
     16  C4'       36.0200   58.9750   13.0700 C.3   501  PUY501      0.1747
     17  O4'       35.1010   59.9020   13.6740 O.3   501  PUY501     -0.3143
     18  C1'       33.9020   59.9610   12.9480 C.3   501  PUY501      0.3177
     19  N9        33.5090   61.3570   12.5920 N.pl3 501  PUY501     -0.1439
     20  C4        33.9180   62.5170   13.2360 C.2   501  PUY501      0.3515
     21  N3        34.7870   62.5530   14.3130 N.2   501  PUY501     -0.0055
     22  C2        34.9880   63.7870   14.7130 C.3   501  PUY501      0.5252
     23  N1        34.4490   64.9090   14.1780 N.2   501  PUY501     -0.0056
     24  C6        33.5700   64.9150   13.0870 C.2   501  PUY501      0.3485
     25  N6        33.0900   66.0920   12.6360 N.pl3 501  PUY501     -0.1816
     26  C9        32.1710   66.2170   11.5080 C.3   501  PUY501      0.2537
     27  C10       33.4800   67.3440   13.2770 C.3   501  PUY501      0.2537
     28  C5        33.3030   63.5610   12.5880 C.2   501  PUY501      0.2442
     29  N7        32.4990   63.0870   11.5370 N.2   501  PUY501     -0.2098
     30  C8        32.6690   61.7990   11.6030 C.3   501  PUY501      0.3377
     31  C2'       34.0400   59.0320   11.7710 C.3   501  PUY501      0.2466
     32  O2'       33.3360   57.8470   12.1240 O.3   501  PUY501     -0.2139
     33  C3'       35.5330   58.8330   11.6210 C.3   501  PUY501      0.1621
     34  N3'       35.8940   57.4810   11.0800 N.am  501  PUY501     -0.2005
@<TRIPOS>BOND
     1    12    11    1
     2    11     9    1
     3     8     9   ar
     4     8     6   ar
     5     9     7   ar
     6     6     4   ar
     7     7     5   ar
     8     4     5   ar
     9     4     3    1
    10    10    13    2
    11     2     3    1
    12     2    13    1
    13     2     1    1
    14    13    34   am
    15    34    33    1
    16    26    25    1
    17    29    30    1
    18    29    28    2
    19    30    19    1
    20    33    31    1
    21    33    16    1
    22    31    32    1
    23    31    18    1
    24    28    24    1
    25    28    20    1
    26    19    18    1
    27    19    20    1
    28    25    24    1
    29    25    27    1
    30    18    17    1
    31    16    15    1
    32    16    17    1
    33    24    23    2
    34    15    14    1
    35    20    21    2
    36    23    22    1
    37    21    22    1
