@<TRIPOS>MOLECULE
2dpx_GDP_A_1.pdb
 28 30 0 0 0
SMALL
GASTEIGER

@<TRIPOS>ATOM
      1  PB        15.4780    7.0930   24.1470 P.3   500  GDP500      0.5373
      2  O1B       14.2360    7.8460   24.1160 O.3   500  GDP500     -0.1143
      3  O2B       15.8300    6.5980   22.7440 O.2   500  GDP500     -0.2221
      4  O3B       16.5870    7.8510   24.7130 O.3   500  GDP500     -0.1143
      5  O3A       15.2370    5.7480   25.0100 O.3   500  GDP500     -0.2261
      6  PA        15.4270    5.6020   26.6000 P.3   500  GDP500      0.2231
      7  O1A       16.8500    5.3550   26.9470 O.2   500  GDP500     -0.5169
      8  O2A       14.8630    6.8280   27.3260 O.3   500  GDP500     -0.4370
      9  O5'       14.6190    4.3080   26.9910 O.3   500  GDP500     -0.3111
     10  C5'       13.2840    4.1660   26.5450 C.3   500  GDP500      0.1813
     11  C4'       12.6030    3.0050   27.2770 C.3   500  GDP500      0.1799
     12  O4'       13.0950    1.7440   26.7910 O.3   500  GDP500     -0.3326
     13  C3'       12.8580    2.9890   28.7850 C.3   500  GDP500      0.2158
     14  O3'       11.6080    2.5440   29.3460 O.3   500  GDP500     -0.2175
     15  C2'       14.0430    2.0600   28.9600 C.3   500  GDP500      0.2310
     16  O2'       14.0380    1.4630   30.2580 O.3   500  GDP500     -0.2158
     17  C1'       13.7400    1.0320   27.8940 C.3   500  GDP500      0.2293
     18  N9        14.9210    0.3770   27.3260 N.pl3 500  GDP500     -0.2354
     19  C8        15.9650    0.9720   26.6570 C.3   500  GDP500      0.2246
     20  N7        16.8470    0.0120   26.2400 N.2   500  GDP500     -0.2322
     21  C5        16.3440   -1.1820   26.6550 C.2   500  GDP500      0.2182
     22  C6        16.7530   -2.5850   26.5400 C.1   500  GDP500      0.2372
     23  O6        17.7970   -2.8640   25.9340 O.2   500  GDP500     -0.2069
     24  N1        15.9560   -3.5570   27.1180 N.2   500  GDP500     -0.2485
     25  C2        14.7920   -3.2210   27.7940 C.1   500  GDP500      0.2531
     26  N2        14.0300   -4.1570   28.3630 N.pl3 500  GDP500     -0.0226
     27  N3        14.3800   -1.9290   27.9030 N.2   500  GDP500     -0.3074
     28  C4        15.1080   -0.9150   27.3620 C.2   500  GDP500      0.2300
@<TRIPOS>BOND
     1     3     1    2
     2     2     1    1
     3     1     4    1
     4     1     5    1
     5     5     6    1
     6    23    22    2
     7    20    21    2
     8    20    19    1
     9    22    21    1
    10    22    24    2
    11    10     9    1
    12    10    11    1
    13     6     7    2
    14     6     9    1
    15     6     8    1
    16    21    28    1
    17    19    18    1
    18    12    11    1
    19    12    17    1
    20    24    25    2
    21    11    13    1
    22    18    28    1
    23    18    17    1
    24    28    27    2
    25    25    27    2
    26    25    26    1
    27    17    15    1
    28    13    15    1
    29    13    14    1
    30    15    16    1
