@<TRIPOS>MOLECULE
2dpy_ADP_B_1.pdb
 27 29 0 0 0
SMALL
GASTEIGER

@<TRIPOS>ATOM
      1  PB        25.2580    9.1370  -33.6850 P.3   600  ADP600      0.5373
      2  O1B       25.6330   10.2650  -34.5930 O.2   600  ADP600     -0.2221
      3  O2B       25.9330    9.3000  -32.1710 O.3   600  ADP600     -0.1143
      4  O3B       23.7970    9.0410  -33.5310 O.3   600  ADP600     -0.1143
      5  PA        26.9840    6.7640  -33.7680 P.3   600  ADP600      0.2231
      6  O1A       28.3380    7.4760  -34.0080 O.2   600  ADP600     -0.5169
      7  O2A       26.9090    6.3190  -32.4890 O.3   600  ADP600     -0.4370
      8  O3A       25.8700    7.8530  -34.2330 O.3   600  ADP600     -0.2261
      9  O5'       26.6760    5.6960  -34.9580 O.3   600  ADP600     -0.3111
     10  C5'       26.8090    6.0580  -36.3100 C.3   600  ADP600      0.1813
     11  C4'       26.9300    4.8260  -37.1610 C.3   600  ADP600      0.1821
     12  O4'       27.6090    5.1640  -38.3980 O.3   600  ADP600     -0.3135
     13  C3'       27.8010    3.7190  -36.5150 C.3   600  ADP600      0.2184
     14  O3'       27.0670    2.7290  -35.8100 O.3   600  ADP600     -0.2174
     15  C2'       28.5260    3.0690  -37.7490 C.3   600  ADP600      0.2570
     16  O2'       27.7060    2.1100  -38.3370 O.3   600  ADP600     -0.2130
     17  C1'       28.7780    4.2950  -38.6200 C.3   600  ADP600      0.3186
     18  N9        30.1730    4.9990  -38.2810 N.pl3 600  ADP600     -0.1439
     19  C8        30.3090    6.0990  -37.5580 C.3   600  ADP600      0.3377
     20  N7        31.6020    6.4180  -37.4770 N.2   600  ADP600     -0.2095
     21  C5        32.2960    5.5440  -38.1500 C.2   600  ADP600      0.2526
     22  C6        33.6620    5.3680  -38.4130 C.2   600  ADP600      0.4393
     23  N6        34.5890    6.2380  -37.9290 N.pl3 600  ADP600      0.2180
     24  N1        34.1220    4.3370  -39.1790 N.2   600  ADP600      0.0021
     25  C2        33.2130    3.4280  -39.6860 C.3   600  ADP600      0.5254
     26  N3        31.8680    3.5720  -39.4270 N.2   600  ADP600     -0.0055
     27  C4        31.3930    4.6160  -38.6610 C.2   600  ADP600      0.3518
@<TRIPOS>BOND
     1    25    26    1
     2    25    24    1
     3    26    27    2
     4    24    22    2
     5    27    18    1
     6    27    21    1
     7    17    12    1
     8    17    18    1
     9    17    15    1
    10    22    21    1
    11    22    23    1
    12    12    11    1
    13    16    15    1
    14    18    19    1
    15    21    20    2
    16    15    13    1
    17    19    20    1
    18    11    13    1
    19    11    10    1
    20    13    14    1
    21    10     9    1
    22     9     5    1
    23     2     1    2
    24     8     5    1
    25     8     1    1
    26     6     5    2
    27     5     7    1
    28     1     4    1
    29     1     3    1
