@<TRIPOS>MOLECULE
2dpz_TYL_A_1.pdb
 11 11 0 0 0
SMALL
GASTEIGER

@<TRIPOS>ATOM
      1  C1         7.1280   22.8590   -4.5390 C.ar  2001  TYL2001     0.0736
      2  C2         7.0310   24.2110   -4.7870 C.ar  2001  TYL2001     0.0199
      3  C3         8.1590   24.9950   -4.9130 C.ar  2001  TYL2001     0.0434
      4  C4         9.4190   24.4230   -4.8020 C.ar  2001  TYL2001     0.1958
      5  C5         9.5480   23.0600   -4.5470 C.ar  2001  TYL2001     0.0434
      6  C6         8.3930   22.2750   -4.4210 C.ar  2001  TYL2001     0.0199
      7  N          5.9280   22.2370   -4.4330 N.am  2001  TYL2001    -0.1792
      8  C          5.6640   20.9620   -4.1960 C.2   2001  TYL2001     0.2461
      9  CM         4.1930   20.6760   -4.1550 C.3   2001  TYL2001     0.0968
     10  O4        10.5030   25.2420   -4.9500 O.3   2001  TYL2001    -0.2866
     11  O          6.5060   20.0960   -4.0330 O.2   2001  TYL2001    -0.2730
@<TRIPOS>BOND
     1    10     4    1
     2     3     4   ar
     3     3     2   ar
     4     4     5   ar
     5     2     1   ar
     6     5     6   ar
     7     1     7    1
     8     1     6   ar
     9     7     8   am
    10     8     9    1
    11     8    11    2
