@<TRIPOS>MOLECULE
2dq0_SSA_A_1.pdb
 29 31 0 0 0
SMALL
GASTEIGER

@<TRIPOS>ATOM
      1  N10       32.2810    6.9960    9.3040 N.3   1001  SSA1001    -0.1202
      2  CA        33.2260    5.9000    9.5850 C.3   1001  SSA1001     0.2036
      3  CB        34.4820    6.0440    8.7690 C.3   1001  SSA1001     0.2104
      4  OG        35.3060    7.1230    9.2240 O.3   1001  SSA1001    -0.2182
      5  C9        33.6420    5.8200   11.0490 C.2   1001  SSA1001     0.2825
      6  O9        33.3110    6.6900   11.8500 O.2   1001  SSA1001    -0.2700
      7  N8        34.3610    4.7510   11.4130 N.am  1001  SSA1001    -0.0576
      8  S1        34.8890    4.6060   12.9240 S.3   1001  SSA1001     0.0852
      9  O1S       33.6910    4.5340   13.7480 O.3   1001  SSA1001    -0.0508
     10  O2S       35.8390    3.5000   12.9120 O.3   1001  SSA1001    -0.0508
     11  O5'       35.6260    5.9630   13.1970 O.3   1001  SSA1001    -0.2230
     12  C5'       36.6950    6.3510   12.3560 C.3   1001  SSA1001     0.2064
     13  C4'       37.9370    6.6490   13.1360 C.3   1001  SSA1001     0.1842
     14  O4'       37.7180    7.7450   14.0450 O.3   1001  SSA1001    -0.3135
     15  C3'       38.5090    5.5580   14.0190 C.3   1001  SSA1001     0.2185
     16  O3'       39.2080    4.6190   13.2280 O.3   1001  SSA1001    -0.2174
     17  C2'       39.4700    6.3900   14.8490 C.3   1001  SSA1001     0.2570
     18  O2'       40.6210    6.8110   14.1570 O.3   1001  SSA1001    -0.2130
     19  C1'       38.5840    7.6030   15.1630 C.3   1001  SSA1001     0.3186
     20  N9        37.7310    7.4340   16.3360 N.pl3 1001  SSA1001    -0.1439
     21  C8        36.5610    6.7050   16.4760 C.3   1001  SSA1001     0.3377
     22  N7        36.0460    6.7660   17.6770 N.2   1001  SSA1001    -0.2095
     23  C5        36.9300    7.5810   18.3780 C.2   1001  SSA1001     0.2526
     24  C6        36.9600    8.0300   19.7250 C.2   1001  SSA1001     0.4393
     25  N6        36.0350    7.7020   20.6220 N.pl3 1001  SSA1001     0.2180
     26  N1        37.9840    8.8540   20.1070 N.2   1001  SSA1001     0.0021
     27  C2        38.9150    9.1930   19.1880 C.3   1001  SSA1001     0.5254
     28  N3        38.9930    8.8240   17.8890 N.2   1001  SSA1001    -0.0055
     29  C4        37.9700    8.0040   17.5550 C.2   1001  SSA1001     0.3518
@<TRIPOS>BOND
     1     3     4    1
     2     3     2    1
     3     1     2    1
     4     2     5    1
     5     5     7   am
     6     5     6    2
     7     7     8    1
     8    12    13    1
     9    12    11    1
    10    10     8    1
    11     8    11    1
    12     8     9    1
    13    13    15    1
    14    13    14    1
    15    16    15    1
    16    15    17    1
    17    14    19    1
    18    18    17    1
    19    17    19    1
    20    19    20    1
    21    20    21    1
    22    20    29    1
    23    21    22    1
    24    29    28    2
    25    29    23    1
    26    22    23    2
    27    28    27    1
    28    23    24    1
    29    27    26    1
    30    24    26    2
    31    24    25    1
