@<TRIPOS>MOLECULE
2dq3_SSA_A_1.pdb
 29 31 0 0 0
SMALL
GASTEIGER

@<TRIPOS>ATOM
      1  N10      -14.8500   49.8050    0.2810 N.3   1001  SSA1001    -0.1202
      2  CA       -13.6800   48.9670    0.5620 C.3   1001  SSA1001     0.2036
      3  CB       -12.8140   48.8500   -0.6420 C.3   1001  SSA1001     0.2104
      4  OG       -12.1350   50.0640   -0.8930 O.3   1001  SSA1001    -0.2182
      5  C9       -12.8170   49.4970    1.7050 C.2   1001  SSA1001     0.2825
      6  O9       -12.9780   50.6360    2.1710 O.2   1001  SSA1001    -0.2700
      7  N8       -11.9200   48.6310    2.2020 N.am  1001  SSA1001    -0.0576
      8  S1       -10.9140   49.0640    3.3680 S.3   1001  SSA1001     0.0852
      9  O1S      -11.7960   49.4540    4.4610 O.3   1001  SSA1001    -0.0508
     10  O2S       -9.9650   47.9540    3.5250 O.3   1001  SSA1001    -0.0508
     11  O5'      -10.1940   50.3300    2.7940 O.3   1001  SSA1001    -0.2230
     12  C5'       -9.5440   50.2750    1.5270 C.3   1001  SSA1001     0.2064
     13  C4'       -8.1030   50.6460    1.6350 C.3   1001  SSA1001     0.1842
     14  O4'       -7.9370   51.9990    2.0950 O.3   1001  SSA1001    -0.3135
     15  C3'       -7.2720   49.8600    2.6200 C.3   1001  SSA1001     0.2185
     16  O3'       -6.9720   48.5980    2.0650 O.3   1001  SSA1001    -0.2174
     17  C2'       -6.0270   50.7340    2.6600 C.3   1001  SSA1001     0.2570
     18  O2'       -5.2310   50.6450    1.4860 O.3   1001  SSA1001    -0.2130
     19  C1'       -6.6690   52.1230    2.7330 C.3   1001  SSA1001     0.3186
     20  N9        -6.9500   52.6550    4.0670 N.pl3 1001  SSA1001    -0.1439
     21  C8        -7.7900   52.1940    5.0570 C.3   1001  SSA1001     0.3377
     22  N7        -7.8540   52.9850    6.1060 N.2   1001  SSA1001    -0.2095
     23  C5        -7.0040   54.0310    5.7840 C.2   1001  SSA1001     0.2526
     24  C6        -6.6400   55.2270    6.4670 C.2   1001  SSA1001     0.4393
     25  N6        -7.1250   55.5700    7.6660 N.pl3 1001  SSA1001     0.2180
     26  N1        -5.7600   56.0710    5.8570 N.2   1001  SSA1001     0.0021
     27  C2        -5.2830   55.7330    4.6490 C.3   1001  SSA1001     0.5254
     28  N3        -5.5560   54.6420    3.9060 N.2   1001  SSA1001    -0.0055
     29  C4        -6.4330   53.8320    4.5360 C.2   1001  SSA1001     0.3518
@<TRIPOS>BOND
     1     4     3    1
     2     3     2    1
     3     1     2    1
     4     2     5    1
     5    18    17    1
     6    12    13    1
     7    12    11    1
     8    13    14    1
     9    13    15    1
    10     5     6    2
    11     5     7   am
    12    16    15    1
    13    14    19    1
    14     7     8    1
    15    15    17    1
    16    17    19    1
    17    19    20    1
    18    11     8    1
    19     8    10    1
    20     8     9    1
    21    28    29    2
    22    28    27    1
    23    20    29    1
    24    20    21    1
    25    29    23    1
    26    27    26    1
    27    21    22    1
    28    23    22    2
    29    23    24    1
    30    26    24    2
    31    24    25    1
