@<TRIPOS>MOLECULE
2dq7_STU_X_1.pdb
 35 42 0 0 0
SMALL
GASTEIGER

@<TRIPOS>ATOM
      1  O4       -15.0110   20.1620  -13.9350 O.3   902  STU902     -0.3186
      2  C25      -14.8410   18.9340  -14.6700 C.3   902  STU902      0.2078
      3  C24      -15.7380   18.7990  -15.9230 C.3   902  STU902      0.0739
      4  C23      -16.4480   20.0920  -16.1960 C.3   902  STU902      0.1086
      5  C22      -17.2790   20.3420  -14.9420 C.3   902  STU902      0.1761
      6  C21      -16.3160   20.6850  -13.7260 C.3   902  STU902      0.1915
      7  C26      -16.0520   22.1960  -13.5440 C.3   902  STU902      0.0566
      8  N2       -16.9390   20.2490  -12.4460 N.ar  902  STU902     -0.3054
      9  C18      -16.7450   18.9490  -12.1130 C.ar  902  STU902      0.0774
     10  C19      -15.9190   17.9010  -12.6540 C.ar  902  STU902      0.0783
     11  C6       -15.8730   16.6270  -11.9850 C.ar  902  STU902      0.0293
     12  C7       -16.6140   16.3480  -10.7920 C.ar  902  STU902      0.0822
     13  C10      -17.4360   17.3700  -10.2580 C.ar  902  STU902      0.0154
     14  C11      -17.4610   18.6370  -10.9240 C.ar  902  STU902      0.0173
     15  C12      -18.2560   19.7840  -10.5930 C.ar  902  STU902      0.0171
     16  C17      -17.8200   20.7400  -11.5370 C.ar  902  STU902      0.0617
     17  C16      -18.4210   21.9960  -11.5170 C.ar  902  STU902      0.0172
     18  C15      -19.3910   22.3400  -10.5460 C.ar  902  STU902      0.0015
     19  C14      -19.7650   21.3880   -9.5730 C.ar  902  STU902      0.0001
     20  C13      -19.2000   20.0680   -9.5850 C.ar  902  STU902      0.0015
     21  C9       -18.1120   16.7780   -9.0440 C.3   902  STU902      0.1650
     22  N1       -17.5470   15.3950   -9.0420 N.2   902  STU902     -0.1976
     23  C8       -16.6510   15.1550  -10.0520 C.1   902  STU902      0.1501
     24  O5       -16.0100   14.1080  -10.2170 O.2   902  STU902     -0.2222
     25  C5       -15.0000   15.7690  -12.7170 C.ar  902  STU902      0.0180
     26  C20      -14.5650   16.6060  -13.8000 C.ar  902  STU902      0.0618
     27  C1       -13.6730   16.0910  -14.7720 C.ar  902  STU902      0.0172
     28  C2       -13.2370   14.7330  -14.6380 C.ar  902  STU902      0.0015
     29  C3       -13.6650   13.9260  -13.5580 C.ar  902  STU902      0.0001
     30  C4       -14.5650   14.4400  -12.5740 C.ar  902  STU902      0.0015
     31  N3       -15.1080   17.8510  -13.7350 N.ar  902  STU902     -0.3039
     32  O6       -18.0390   19.1520  -14.7230 O.3   902  STU902     -0.3478
     33  C27      -19.4150   19.3850  -14.3480 C.3   902  STU902      0.1743
     34  N4       -17.2800   19.9270  -17.4030 N.3   902  STU902     -0.2152
     35  C28      -17.8560   21.2250  -17.8740 C.3   902  STU902      0.1075
@<TRIPOS>BOND
     1    35    34    1
     2    34     4    1
     3     4     3    1
     4     4     5    1
     5     3     2    1
     6     5    32    1
     7     5     6    1
     8    27    28   ar
     9    27    26   ar
    10    32    33    1
    11     2     1    1
    12     2    31    1
    13    28    29   ar
    14     1     6    1
    15    26    31   ar
    16    26    25   ar
    17    31    10   ar
    18     6     7    1
    19     6     8    1
    20    29    30   ar
    21    25    30   ar
    22    25    11   ar
    23    10     9   ar
    24    10    11   ar
    25     8     9   ar
    26     8    16   ar
    27     9    14   ar
    28    11    12   ar
    29    16    17   ar
    30    16    15   ar
    31    17    18   ar
    32    14    15   ar
    33    14    13   ar
    34    12    13   ar
    35    12    23    1
    36    15    20   ar
    37    18    19   ar
    38    13    21    1
    39    24    23    2
    40    23    22    2
    41    20    19   ar
    42    21    22    1
