@<TRIPOS>MOLECULE
2dqa_BGC_B_1.pdb
 12 12 0 0 0
SMALL
GASTEIGER

@<TRIPOS>ATOM
      1  C2        31.1580   34.1050   29.4340 C.3   2001  BGC2001     0.2434
      2  C3        32.5770   33.7030   29.8460 C.3   2001  BGC2001     0.2199
      3  C4        33.2300   32.8220   28.7800 C.3   2001  BGC2001     0.2144
      4  C5        33.1070   33.5070   27.4160 C.3   2001  BGC2001     0.1836
      5  C6        33.7460   32.7070   26.2880 C.3   2001  BGC2001     0.2142
      6  C1        31.1510   34.6690   28.0110 C.3   2001  BGC2001     0.3024
      7  O1        29.8320   34.9630   27.6040 O.3   2001  BGC2001    -0.1869
      8  O2        30.6490   35.0680   30.3320 O.3   2001  BGC2001    -0.2148
      9  O3        32.5610   33.0360   31.0900 O.3   2001  BGC2001    -0.2174
     10  O4        34.5850   32.6100   29.1090 O.3   2001  BGC2001    -0.2176
     11  O5        31.7390   33.7340   27.1210 O.3   2001  BGC2001    -0.3236
     12  O6        33.7360   33.4720   25.1000 O.3   2001  BGC2001    -0.2176
@<TRIPOS>BOND
     1    12     5    1
     2     5     4    1
     3    11     4    1
     4    11     6    1
     5     4     3    1
     6     7     6    1
     7     6     1    1
     8     3    10    1
     9     3     2    1
    10     1     2    1
    11     1     8    1
    12     2     9    1
