@<TRIPOS>MOLECULE
2dqa_NAG_C_1.pdb
 15 15 0 0 0
SMALL
GASTEIGER

@<TRIPOS>ATOM
      1  C1        25.6610    9.2260   10.6350 C.3     1  NAG1        0.2917
      2  C2        24.4750    8.3820   10.1700 C.3     1  NAG1        0.1871
      3  C3        24.8670    7.4950    8.9900 C.3     1  NAG1        0.2095
      4  C4        25.5690    8.2970    7.8880 C.3     1  NAG1        0.2136
      5  C5        26.6910    9.1530    8.4860 C.3     1  NAG1        0.1835
      6  C6        27.3440   10.0490    7.4320 C.3     1  NAG1        0.2142
      7  C7        22.7040    7.6730   11.6890 C.2     1  NAG1        0.2421
      8  C8        22.3830    7.0160   12.9980 C.3     1  NAG1        0.0964
      9  N2        23.9620    7.5680   11.2600 N.am    1  NAG1       -0.1991
     10  O1        25.2340   10.1310   11.6270 O.3     1  NAG1       -0.1879
     11  O3        23.7060    6.8720    8.4840 O.3     1  NAG1       -0.2183
     12  O4        26.1360    7.4330    6.9240 O.3     1  NAG1       -0.2176
     13  O5        26.1960    9.9560    9.5430 O.3     1  NAG1       -0.3242
     14  O6        26.4070   10.9890    6.9560 O.3     1  NAG1       -0.2176
     15  O7        21.8230    8.2670   11.0700 O.2     1  NAG1       -0.2733
@<TRIPOS>BOND
     1    12     4    1
     2    14     6    1
     3     6     5    1
     4     4     5    1
     5     4     3    1
     6    11     3    1
     7     5    13    1
     8     3     2    1
     9    13     1    1
    10     2     1    1
    11     2     9    1
    12     1    10    1
    13    15     7    2
    14     9     7   am
    15     7     8    1
