@<TRIPOS>MOLECULE
2dqk_III_P_1.pdb
 33 33 0 0 0
SMALL
GASTEIGER

@<TRIPOS>ATOM
      1  N        -24.4790   25.6380  -15.1580 N.3     1  VAL1       -0.1231
      2  CA       -23.9400   25.7450  -16.5430 C.3     1  VAL1        0.1692
      3  C        -22.6280   24.9890  -16.5740 C.2     1  VAL1        0.2592
      4  O        -21.6020   25.4790  -17.0570 O.2     1  VAL1       -0.2718
      5  CB       -23.7150   27.2170  -16.9330 C.3     1  VAL1        0.0266
      6  CG1      -22.5700   27.8190  -16.1290 C.3     1  VAL1        0.0020
      7  CG2      -23.4650   27.3470  -18.4280 C.3     1  VAL1        0.0020
      8  N        -22.6730   23.7590  -16.0880 N.am    2  LEU2       -0.1966
      9  CA       -21.4320   23.0700  -15.8400 C.3     2  LEU2        0.1728
     10  C        -20.9910   21.9010  -16.6510 C.2     2  LEU2        0.2616
     11  O        -20.8110   21.8930  -17.8740 O.2     2  LEU2       -0.2715
     12  CB       -21.4290   22.4700  -14.4290 C.3     2  LEU2        0.0311
     13  CG       -22.0510   23.0660  -13.1850 C.3     2  LEU2        0.0022
     14  CD1      -21.4290   22.3730  -11.9760 C.3     2  LEU2        0.0001
     15  CD2      -21.8110   24.5520  -13.1610 C.3     2  LEU2        0.0001
     16  N        -20.8460   20.9020  -15.7980 N.am    3  LEU3       -0.1963
     17  CA       -20.1290   19.6810  -15.9620 C.3     3  LEU3        0.1728
     18  C        -18.8010   20.1290  -15.3670 C.2     3  LEU3        0.2616
     19  O        -17.8210   20.3360  -16.0790 O.2     3  LEU3       -0.2715
     20  CB       -19.9970   19.2140  -17.3970 C.3     3  LEU3        0.0311
     21  CG       -19.5730   17.7480  -17.2440 C.3     3  LEU3        0.0022
     22  CD1      -20.5280   16.8040  -17.9520 C.3     3  LEU3        0.0001
     23  CD2      -18.1250   17.5210  -17.6680 C.3     3  LEU3        0.0001
     24  N        -18.8130   20.3460  -14.0520 N.am    4  HIS4       -0.1973
     25  CA       -17.6420   20.7970  -13.3010 C.3     4  HIS4        0.1652
     26  C        -17.2920   19.7770  -12.2210 C.2     4  HIS4        0.2291
     27  O        -18.0300   19.6050  -11.2510 O.2     4  HIS4       -0.2864
     28  CB       -17.9040   22.1870  -12.6890 C.3     4  HIS4        0.0731
     29  CG       -16.8930   22.6200  -11.6660 C.2     4  HIS4        0.0652
     30  ND1      -16.1150   21.7330  -10.9530 N.2     4  HIS4       -0.2310
     31  CD2      -16.5520   23.8540  -11.2230 C.3     4  HIS4        0.1683
     32  CE1      -15.3320   22.4010  -10.1250 C.2     4  HIS4        0.1939
     33  NE2      -15.5770   23.6900  -10.2690 N.2     4  HIS4       -0.2440
@<TRIPOS>BOND
     1     7     5    1
     2    22    21    1
     3    11    10    2
     4    23    21    1
     5    20    21    1
     6    20    17    1
     7     4     3    2
     8     5     2    1
     9     5     6    1
    10    10     9    1
    11    10    16   am
    12     3     2    1
    13     3     8   am
    14     2     1    1
    15     8     9    1
    16    19    18    2
    17    17    16    1
    18    17    18    1
    19     9    12    1
    20    18    24   am
    21    12    13    1
    22    24    25    1
    23    25    28    1
    24    25    26    1
    25    13    15    1
    26    13    14    1
    27    28    29    1
    28    26    27    2
    29    29    31    1
    30    29    30    2
    31    31    33    1
    32    30    32    1
    33    33    32    2
