@<TRIPOS>MOLECULE
2dqm_BES_A_1.pdb
 22 22 0 0 0
SMALL
GASTEIGER

@<TRIPOS>ATOM
      1  N2        71.2990   44.7770    9.5000 N.3   901  BES901     -0.1293
      2  C1        71.3660   46.0100    8.6840 C.3   901  BES901      0.1355
      3  C6        70.0360   46.7790    8.7780 C.3   901  BES901      0.0485
      4  C7        70.0660   47.8630    9.8430 C.ar  901  BES901     -0.0206
      5  C8        70.7260   49.0940    9.5980 C.ar  901  BES901     -0.0042
      6  C12       69.4210   47.6460   11.0830 C.ar  901  BES901     -0.0042
      7  C9        70.7380   50.1000   10.5950 C.ar  901  BES901     -0.0003
      8  C11       69.4340   48.6500   12.0760 C.ar  901  BES901     -0.0003
      9  C10       70.0910   49.8760   11.8330 C.ar  901  BES901     -0.0000
     10  C2        71.6440   45.6690    7.2000 C.3   901  BES901      0.2467
     11  O2        72.1590   44.3510    7.0650 O.3   901  BES901     -0.2116
     12  C3        72.6230   46.6660    6.6410 C.2   901  BES901      0.2738
     13  O3        73.7490   46.7210    7.0960 O.2   901  BES901     -0.2705
     14  N1        72.1870   47.5580    5.7220 N.am  901  BES901     -0.1934
     15  C4        72.9880   48.7030    5.2220 C.3   901  BES901      0.1978
     16  C13       73.4300   48.4900    3.7500 C.3   901  BES901      0.0333
     17  C14       74.4090   47.3170    3.5940 C.3   901  BES901      0.0023
     18  C15       74.7210   47.1290    2.1110 C.3   901  BES901      0.0001
     19  C16       75.7240   47.6350    4.3190 C.3   901  BES901      0.0001
     20  C5        72.0860   49.8980    5.3160 C.2   901  BES901      0.3842
     21  O1        70.7740   49.7180    5.5370 O.co2 901  BES901     -0.2437
     22  O4        72.5380   51.0180    5.2060 O.co2 901  BES901     -0.2437
@<TRIPOS>BOND
     1    18    17    1
     2    17    16    1
     3    17    19    1
     4    16    15    1
     5    22    20   ar
     6    15    20    1
     7    15    14    1
     8    20    21   ar
     9    14    12   am
    10    12    13    2
    11    12    10    1
    12    11    10    1
    13    10     2    1
    14     2     3    1
    15     2     1    1
    16     3     4    1
    17     5     4   ar
    18     5     7   ar
    19     4     6   ar
    20     7     9   ar
    21     6     8   ar
    22     9     8   ar
