@<TRIPOS>MOLECULE
2dqs_TG1_A_1.pdb
 46 48 0 0 0
SMALL
GASTEIGER

@<TRIPOS>ATOM
      1  C34       31.1040  -24.3100   89.9850 C.3   1003  TG11003     0.0474
      2  C11       31.7900  -23.7260   88.6990 C.3   1003  TG11003     0.2470
      3  C7        30.9210  -23.8260   87.3690 C.3   1003  TG11003     0.2380
      4  C8        29.7550  -22.6890   87.2130 C.3   1003  TG11003     0.2067
      5  C9        28.8480  -22.7050   85.9560 C.3   1003  TG11003     0.0869
      6  C10       29.4880  -22.7310   84.5040 C.3   1003  TG11003     0.1465
      7  C1        30.4390  -24.0970   84.2160 C.3   1003  TG11003     0.1022
      8  C2        30.6590  -24.4870   82.6890 C.3   1003  TG11003     0.2195
      9  O1        30.3430  -25.8960   82.4980 O.3   1003  TG11003    -0.4477
     10  C13       29.7390  -26.4420   81.3710 C.2   1003  TG11003     0.3170
     11  O2        29.2590  -25.8110   80.4370 O.2   1003  TG11003    -0.2501
     12  C14       29.7580  -27.9750   81.4700 C.3   1003  TG11003     0.1096
     13  C15       30.5950  -28.7500   80.4460 C.3   1003  TG11003     0.0116
     14  C16       30.1280  -28.7340   78.9760 C.3   1003  TG11003     0.0006
     15  C17       30.8980  -27.7100   78.1230 C.3   1003  TG11003     0.0000
     16  C18       30.6260  -27.8670   76.6180 C.3   1003  TG11003     0.0000
     17  C19       31.1120  -26.6790   75.7700 C.3   1003  TG11003     0.0000
     18  C20       30.7770  -26.8290   74.2860 C.3   1003  TG11003     0.0000
     19  C3        32.1600  -24.3470   82.4050 C.3   1003  TG11003     0.2271
     20  O3        32.2220  -23.1440   81.5780 O.3   1003  TG11003    -0.4414
     21  C21       32.9960  -23.1590   80.4840 C.2   1003  TG11003     0.3372
     22  O4        33.8590  -24.0660   80.1150 O.2   1003  TG11003    -0.2453
     23  C22       32.6100  -22.0380   79.4970 C.2   1003  TG11003     0.0495
     24  C23       32.0220  -22.6290   78.2380 C.3   1003  TG11003     0.0375
     25  C24       32.6910  -20.7070   79.6010 C.2   1003  TG11003    -0.0236
     26  C25       33.1720  -19.8320   80.7580 C.3   1003  TG11003     0.0306
     27  C4        32.7960  -24.1350   83.8040 C.2   1003  TG11003    -0.0052
     28  C26       34.2990  -24.0040   83.9290 C.3   1003  TG11003     0.0296
     29  C5        31.8720  -24.0430   84.7900 C.2   1003  TG11003     0.0000
     30  C6        32.0970  -23.7820   86.3200 C.3   1003  TG11003     0.2211
     31  O5        33.0580  -24.6570   86.9340 O.3   1003  TG11003    -0.4435
     32  C12       33.0570  -24.4520   88.2700 C.2   1003  TG11003     0.3477
     33  O12       33.9540  -24.7870   89.0450 O.2   1003  TG11003    -0.2473
     34  C31       30.2020  -21.3960   84.1510 C.3   1003  TG11003     0.0443
     35  O9        28.3950  -22.5370   83.5050 O.3   1003  TG11003    -0.4552
     36  C32       27.2340  -23.1770   83.2400 C.2   1003  TG11003     0.3173
     37  O10       26.9530  -24.3180   83.5640 O.2   1003  TG11003    -0.2501
     38  C33       26.3680  -22.3500   82.4240 C.3   1003  TG11003     0.1212
     39  O7        30.3340  -21.3600   87.3490 O.3   1003  TG11003    -0.4493
     40  C27       30.0810  -20.5790   88.4610 C.2   1003  TG11003     0.3169
     41  O8        29.3840  -20.8750   89.4240 O.2   1003  TG11003    -0.2501
     42  C28       30.8580  -19.2890   88.3280 C.3   1003  TG11003     0.1096
     43  C29       32.0540  -19.2130   89.2930 C.3   1003  TG11003     0.0116
     44  C30       32.5570  -17.7790   89.4120 C.3   1003  TG11003     0.0006
     45  O6        30.3190  -25.1760   87.3200 O.3   1003  TG11003    -0.2147
     46  O11       32.3610  -22.4710   89.0500 O.3   1003  TG11003    -0.2114
@<TRIPOS>BOND
     1    18    17    1
     2    17    16    1
     3    16    15    1
     4    15    14    1
     5    24    23    1
     6    14    13    1
     7    23    25    2
     8    23    21    1
     9    25    26    1
    10    22    21    2
    11    11    10    2
    12    13    12    1
    13    21    20    1
    14    10    12    1
    15    10     9    1
    16    20    19    1
    17    19     8    1
    18    19    27    1
    19    38    36    1
    20     9     8    1
    21     8     7    1
    22    36    35    1
    23    36    37    2
    24    35     6    1
    25    27    28    1
    26    27    29    2
    27    34     6    1
    28     7     6    1
    29     7    29    1
    30     6     5    1
    31    29    30    1
    32     5     4    1
    33    30    31    1
    34    30     3    1
    35    31    32    1
    36     4    39    1
    37     4     3    1
    38    45     3    1
    39    39    40    1
    40     3     2    1
    41    32     2    1
    42    32    33    2
    43    42    40    1
    44    42    43    1
    45    40    41    2
    46     2    46    1
    47     2     1    1
    48    43    44    1
