@<TRIPOS>MOLECULE
2dqs_ACP_A_1.pdb
 31 33 0 0 0
SMALL
GASTEIGER

@<TRIPOS>ATOM
      1  PG        38.7840   -1.2140  131.7380 P.3   1002  ACP1002     0.1295
      2  O1G       38.9960    0.2840  131.5810 O.3   1002  ACP1002    -0.3567
      3  O2G       38.8430   -1.8750  130.4030 O.2   1002  ACP1002    -0.4595
      4  O3G       39.7070   -1.8980  132.7310 O.3   1002  ACP1002    -0.3567
      5  PB        36.7830   -0.9860  134.0030 P.3   1002  ACP1002     0.3815
      6  O1B       37.1880    0.4490  134.1040 O.2   1002  ACP1002    -0.2547
      7  O2B       35.4200   -1.2210  134.4770 O.3   1002  ACP1002    -0.1391
      8  C3B       37.1980   -1.5470  132.4000 C.3   1002  ACP1002     0.1768
      9  PA        38.8620   -1.3270  136.1490 P.3   1002  ACP1002     0.2209
     10  O1A       38.7730    0.1470  136.4640 O.3   1002  ACP1002    -0.4371
     11  O2A       40.1670   -1.7310  135.5530 O.2   1002  ACP1002    -0.5170
     12  O3A       37.6760   -1.7730  135.1570 O.3   1002  ACP1002    -0.2483
     13  O5'       38.3620   -2.0120  137.5220 O.3   1002  ACP1002    -0.3111
     14  C5'       36.9730   -1.7790  137.8690 C.3   1002  ACP1002     0.1813
     15  C4'       36.3680   -1.5780  139.2940 C.3   1002  ACP1002     0.1821
     16  O4'       37.1420   -0.6330  139.9810 O.3   1002  ACP1002    -0.3135
     17  C3'       35.1650   -0.7990  138.8240 C.3   1002  ACP1002     0.2184
     18  O3'       34.0830   -1.6680  138.5660 O.3   1002  ACP1002    -0.2174
     19  C2'       34.9580    0.2630  139.9270 C.3   1002  ACP1002     0.2570
     20  O2'       34.0790   -0.2360  140.9170 O.3   1002  ACP1002    -0.2130
     21  C1'       36.3400    0.4850  140.3680 C.3   1002  ACP1002     0.3186
     22  N9        37.0360    1.7350  139.8130 N.pl3 1002  ACP1002    -0.1439
     23  C8        37.2720    2.1350  138.5410 C.3   1002  ACP1002     0.3377
     24  N7        37.9160    3.2890  138.3890 N.2   1002  ACP1002    -0.2095
     25  C5        38.1090    3.6570  139.6500 C.2   1002  ACP1002     0.2526
     26  C6        38.7370    4.7930  140.2920 C.2   1002  ACP1002     0.4393
     27  N6        39.3070    5.7940  139.5670 N.pl3 1002  ACP1002     0.2180
     28  N1        38.7800    4.8990  141.6770 N.2   1002  ACP1002     0.0021
     29  C2        38.2250    3.9200  142.4600 C.3   1002  ACP1002     0.5254
     30  N3        37.6090    2.8080  141.9430 N.2   1002  ACP1002    -0.0055
     31  C4        37.5770    2.7220  140.5710 C.2   1002  ACP1002     0.3518
@<TRIPOS>BOND
     1     3     1    2
     2     2     1    1
     3     1     8    1
     4     1     4    1
     5     8     5    1
     6     5     6    2
     7     5     7    1
     8     5    12    1
     9    12     9    1
    10    11     9    2
    11     9    10    1
    12     9    13    1
    13    13    14    1
    14    14    15    1
    15    24    23    1
    16    24    25    2
    17    23    22    1
    18    18    17    1
    19    17    15    1
    20    17    19    1
    21    15    16    1
    22    27    26    1
    23    25    26    1
    24    25    31    1
    25    22    21    1
    26    22    31    1
    27    19    21    1
    28    19    20    1
    29    16    21    1
    30    26    28    2
    31    31    30    2
    32    28    29    1
    33    30    29    1
