@<TRIPOS>MOLECULE
2dqt_CPD_H_1.pdb
 48 49 0 0 0
SMALL
GASTEIGER

@<TRIPOS>ATOM
      1  C1         2.9850    0.8190  -17.6580 C.3   501  CPD501      0.2356
      2  C2         4.5060    0.9070  -17.7810 C.2   501  CPD501      0.2720
      3  C3         6.5810   -0.4680  -17.8330 C.3   501  CPD501      0.1599
      4  C4         6.7360   -1.3640  -19.0870 C.3   501  CPD501      0.2064
      5  C5         7.1070   -1.1080  -16.4870 C.3   501  CPD501      0.1679
      6  C6         6.9640   -0.1690  -15.2710 C.ar  501  CPD501      0.0069
      7  C7         5.7670   -0.1280  -14.4780 C.ar  501  CPD501     -0.0002
      8  C8         8.0590    0.6730  -14.9320 C.ar  501  CPD501     -0.0002
      9  C9         5.6880    0.7410  -13.3710 C.ar  501  CPD501      0.0238
     10  C10        7.9790    1.5440  -13.8280 C.ar  501  CPD501      0.0238
     11  C11        6.7990    1.5990  -13.0210 C.ar  501  CPD501      0.1429
     12  C12        7.0670   -4.3040  -14.5310 C.3   501  CPD501      0.1330
     13  C13        7.9050   -3.3830  -13.6840 C.ar  501  CPD501     -0.0107
     14  C14        7.2860   -2.6720  -12.6340 C.ar  501  CPD501     -0.0023
     15  C15        9.3020   -3.2120  -13.9460 C.ar  501  CPD501     -0.0023
     16  C16        8.0550   -1.7920  -11.8550 C.ar  501  CPD501      0.0163
     17  C17       10.0670   -2.3310  -13.1620 C.ar  501  CPD501      0.0163
     18  C18        9.4520   -1.6110  -12.1130 C.ar  501  CPD501      0.0736
     19  C19       10.0680    0.0190  -10.2320 C.2   501  CPD501      0.3409
     20  C20       11.2240    0.9170   -9.6960 C.3   501  CPD501      0.4715
     21  C21        4.6920   -5.1150  -16.7560 C.2   501  CPD501      0.3296
     22  C22        2.4670   -6.1550  -16.9790 C.3   501  CPD501      0.1169
     23  C23        2.4200   -7.4080  -16.0850 C.3   501  CPD501      0.0253
     24  C24        6.4290   -5.5540  -18.2410 C.3   501  CPD501      0.1047
     25  C25        7.1990   -6.8200  -17.8100 C.3   501  CPD501      0.0393
     26  C26        7.7400   -7.5430  -19.0620 C.3   501  CPD501      0.0740
     27  C27        8.9990   -9.4170  -19.9270 C.3   501  CPD501      0.0897
     28  C28        7.6040   -9.7540  -17.9960 C.3   501  CPD501      0.0897
     29  N1         5.1240   -0.2700  -17.7320 N.am  501  CPD501     -0.1995
     30  N2         6.7340    2.4290  -11.9680 N.pl3 501  CPD501      0.0577
     31  N3        10.2780   -0.7060  -11.3510 N.am  501  CPD501     -0.1721
     32  N4         5.9550   -4.9340  -17.1650 N.am  501  CPD501     -0.2012
     33  N5         3.8640   -5.9350  -17.4190 N.am  501  CPD501     -0.1881
     34  N6         8.4890   -8.7810  -18.6920 N.3   501  CPD501     -0.2703
     35  O1         5.1190    1.9970  -17.9260 O.2   501  CPD501     -0.2706
     36  O2         8.1030   -1.6780  -19.3330 O.3   501  CPD501     -0.2184
     37  O3         7.6790    3.1480  -11.6880 O.2   501  CPD501     -0.1261
     38  O4         5.7440    2.4710  -11.2900 O.2   501  CPD501     -0.1261
     39  O5         6.3700   -2.3330  -16.2040 O.3   501  CPD501     -0.2961
     40  O6         8.3730   -3.7080  -16.9210 O.2   501  CPD501     -0.2676
     41  O7         4.2960   -4.5110  -15.7460 O.2   501  CPD501     -0.2504
     42  O8         8.9810   -0.0230   -9.6550 O.2   501  CPD501     -0.2638
     43 CL1         2.2150    1.5650  -19.0500 Cl    501  CPD501     -0.0870
     44 CL2         2.4250    1.5490  -16.1570 Cl    501  CPD501     -0.0870
     45  F1        10.9930    2.2080  -10.0210 F     501  CPD501     -0.1620
     46  F2        11.3240    0.8350   -8.3400 F     501  CPD501     -0.1620
     47  F3        12.4160    0.5600  -10.2500 F     501  CPD501     -0.1620
     48  P          7.0260   -3.8060  -16.2080 P.3   501  CPD501      0.3088
@<TRIPOS>BOND
     1    27    34    1
     2    36     4    1
     3     4     3    1
     4    26    34    1
     5    26    25    1
     6    43     1    1
     7    34    28    1
     8    24    25    1
     9    24    32    1
    10    35     2    2
    11     3    29    1
    12     3     5    1
    13     2    29   am
    14     2     1    1
    15     1    44    1
    16    33    22    1
    17    33    21   am
    18    32    21   am
    19    32    48    1
    20    22    23    1
    21    40    48    2
    22    21    41    2
    23     5    39    1
    24     5     6    1
    25    48    39    1
    26    48    12    1
    27     6     8   ar
    28     6     7   ar
    29     8    10   ar
    30    12    13    1
    31     7     9   ar
    32    15    13   ar
    33    15    17   ar
    34    10    11   ar
    35    13    14   ar
    36     9    11   ar
    37    17    18   ar
    38    11    30    1
    39    14    16   ar
    40    18    16   ar
    41    18    31    1
    42    30    37    2
    43    30    38    2
    44    31    19   am
    45    47    20    1
    46    19    20    1
    47    19    42    2
    48    45    20    1
    49    20    46    1
