@<TRIPOS>MOLECULE
2dqu_CPD_H_1.pdb
 48 49 0 0 0
SMALL
GASTEIGER

@<TRIPOS>ATOM
      1  C1         1.8880    2.3330  -13.9850 C.3   501  CPD501      0.2356
      2  C2         3.3280    2.6040  -14.4470 C.2   501  CPD501      0.2720
      3  C3         5.5050    1.5380  -15.0540 C.3   501  CPD501      0.1599
      4  C4         5.4840    0.7490  -16.3920 C.3   501  CPD501      0.2064
      5  C5         6.3950    0.8900  -13.9400 C.3   501  CPD501      0.1679
      6  C6         6.4260    1.7270  -12.6300 C.ar  501  CPD501      0.0069
      7  C7         5.3770    1.6440  -11.6620 C.ar  501  CPD501     -0.0002
      8  C8         7.5280    2.5960  -12.4000 C.ar  501  CPD501     -0.0002
      9  C9         5.4290    2.4220  -10.4820 C.ar  501  CPD501      0.0238
     10  C10        7.5870    3.3740  -11.2250 C.ar  501  CPD501      0.0238
     11  C11        6.5370    3.3050  -10.2370 C.ar  501  CPD501      0.1429
     12  C12        7.0830   -2.4630  -12.3680 C.3   501  CPD501      0.1330
     13  C13        8.0050   -1.5230  -11.5990 C.ar  501  CPD501     -0.0107
     14  C14        9.3090   -1.2530  -12.0850 C.ar  501  CPD501     -0.0023
     15  C15        7.5440   -0.8980  -10.4100 C.ar  501  CPD501     -0.0023
     16  C16       10.1480   -0.3650  -11.4030 C.ar  501  CPD501      0.0163
     17  C17        8.3870   -0.0040   -9.7240 C.ar  501  CPD501      0.0163
     18  C18        9.7060    0.2740  -10.2230 C.ar  501  CPD501      0.0736
     19  C19       10.4220    1.9200   -8.3570 C.2   501  CPD501      0.3409
     20  C20       11.5800    2.8550   -7.9620 C.3   501  CPD501      0.4715
     21  C21        4.3950   -3.3510  -14.0680 C.2   501  CPD501      0.3296
     22  C22        2.2960   -4.6180  -13.8340 C.3   501  CPD501      0.1169
     23  C23        2.4000   -6.1000  -13.4130 C.3   501  CPD501      0.0253
     24  C24        5.7890   -3.4790  -15.9510 C.3   501  CPD501      0.1047
     25  C25        6.6710   -4.7450  -15.8280 C.3   501  CPD501      0.0393
     26  C26        7.0180   -5.2860  -17.2390 C.3   501  CPD501      0.0740
     27  C27        8.1990   -6.9650  -18.5340 C.3   501  CPD501      0.0897
     28  C28        7.1620   -7.6250  -16.4700 C.3   501  CPD501      0.0897
     29  N1         4.0870    1.5290  -14.6120 N.am  501  CPD501     -0.1995
     30  N2         6.5890    4.0470   -9.1190 N.pl3 501  CPD501      0.0577
     31  N3        10.5350    1.2200   -9.5010 N.am  501  CPD501     -0.1721
     32  N4         5.5020   -2.9950  -14.7360 N.am  501  CPD501     -0.2012
     33  N5         3.5190   -4.2180  -14.5860 N.am  501  CPD501     -0.1881
     34  N6         7.8740   -6.5140  -17.1620 N.3   501  CPD501     -0.2703
     35  O1         3.7330    3.7510  -14.6400 O.2   501  CPD501     -0.2706
     36  O2         6.7850    0.6850  -16.9830 O.3   501  CPD501     -0.2184
     37  O3         7.5320    4.7980   -8.9110 O.2   501  CPD501     -0.1261
     38  O4         5.6930    3.9750   -8.2950 O.2   501  CPD501     -0.1261
     39  O5         5.8740   -0.4330  -13.6440 O.3   501  CPD501     -0.2961
     40  O6         7.8060   -1.5550  -14.8940 O.2   501  CPD501     -0.2676
     41  O7         4.1950   -2.8600  -12.9410 O.2   501  CPD501     -0.2504
     42  O8         9.4390    1.8310   -7.6400 O.2   501  CPD501     -0.2638
     43 CL1         0.7220    3.0180  -15.1580 Cl    501  CPD501     -0.0870
     44 CL2         1.6790    3.0340  -12.3910 Cl    501  CPD501     -0.0870
     45  F1        11.2140    4.1630   -8.1270 F     501  CPD501     -0.1620
     46  F2        11.9190    2.6430   -6.6640 F     501  CPD501     -0.1620
     47  F3        12.6580    2.6330   -8.7460 F     501  CPD501     -0.1620
     48  P          6.6340   -1.8210  -13.9390 P.3   501  CPD501      0.3088
@<TRIPOS>BOND
     1    27    34    1
     2    26    34    1
     3    26    25    1
     4    34    28    1
     5    36     4    1
     6     4     3    1
     7    24    25    1
     8    24    32    1
     9    43     1    1
    10     3    29    1
    11     3     5    1
    12    40    48    2
    13    32    21   am
    14    32    48    1
    15    35     2    2
    16    29     2   am
    17    33    21   am
    18    33    22    1
    19     2     1    1
    20    21    41    2
    21     1    44    1
    22     5    39    1
    23     5     6    1
    24    48    39    1
    25    48    12    1
    26    22    23    1
    27     6     8   ar
    28     6     7   ar
    29     8    10   ar
    30    12    13    1
    31    14    13   ar
    32    14    16   ar
    33     7     9   ar
    34    13    15   ar
    35    16    18   ar
    36    10    11   ar
    37     9    11   ar
    38    15    17   ar
    39    11    30    1
    40    18    17   ar
    41    18    31    1
    42    31    19   am
    43    30    37    2
    44    30    38    2
    45    47    20    1
    46    19    20    1
    47    19    42    2
    48    45    20    1
    49    20    46    1
