@<TRIPOS>MOLECULE
2dqv_NAG_A_1.pdb
 14 14 0 0 0
SMALL
GASTEIGER

@<TRIPOS>ATOM
      1  C1        42.8880    9.8400   20.6760 C.3     1  NAG1        0.1665
      2  C2        43.1810   10.0590   19.1910 C.3     1  NAG1        0.1576
      3  C3        44.3330   11.0350   18.9840 C.3     1  NAG1        0.2069
      4  C4        44.1960   12.3150   19.8200 C.3     1  NAG1        0.2134
      5  C5        43.1410   12.3140   20.9570 C.3     1  NAG1        0.1809
      6  C6        42.0490   13.3390   20.6330 C.3     1  NAG1        0.2141
      7  C7        42.7630    8.4700   17.3930 C.2     1  NAG1        0.2420
      8  C8        43.3940    7.4130   16.4810 C.3     1  NAG1        0.0964
      9  N2        43.4600    8.8170   18.4790 N.am    1  NAG1       -0.2019
     10  O3        44.3860   11.4050   17.6190 O.3     1  NAG1       -0.2184
     11  O4        45.4740   12.6970   20.3220 O.3     1  NAG1       -0.2176
     12  O5        42.4960   11.0750   21.2850 O.3     1  NAG1       -0.3489
     13  O6        42.5090   14.6450   20.9080 O.3     1  NAG1       -0.2176
     14  O7        41.6540    8.9620   17.1320 O.2     1  NAG1       -0.2733
@<TRIPOS>BOND
     1     8     7    1
     2    14     7    2
     3     7     9   am
     4    10     3    1
     5     9     2    1
     6     3     2    1
     7     3     4    1
     8     2     1    1
     9     4    11    1
    10     4     5    1
    11     6    13    1
    12     6     5    1
    13     1    12    1
    14     5    12    1
