@<TRIPOS>MOLECULE
2dqv_GAL_A_1.pdb
 12 12 0 0 0
SMALL
GASTEIGER

@<TRIPOS>ATOM
      1  C1        10.9790   18.9050   17.7380 C.3   3015  GAL3015     0.3024
      2  C2        10.4680   19.5230   16.4250 C.3   3015  GAL3015     0.2434
      3  C3        11.6020   19.8880   15.4400 C.3   3015  GAL3015     0.2199
      4  C4        12.8530   20.4760   16.1290 C.3   3015  GAL3015     0.2144
      5  C5        13.1790   19.6790   17.3920 C.3   3015  GAL3015     0.1836
      6  C6        14.3690   20.1510   18.1860 C.3   3015  GAL3015     0.2142
      7  O1         9.9600   18.8850   18.6760 O.3   3015  GAL3015    -0.1869
      8  O2         9.5950   18.5950   15.7920 O.3   3015  GAL3015    -0.2148
      9  O3        11.1080   20.8430   14.5110 O.3   3015  GAL3015    -0.2174
     10  O4        12.6230   21.8350   16.4630 O.3   3015  GAL3015    -0.2176
     11  O5        12.0510   19.6790   18.2760 O.3   3015  GAL3015    -0.3236
     12  O6        15.0390   19.0550   18.8010 O.3   3015  GAL3015    -0.2176
@<TRIPOS>BOND
     1     9     3    1
     2     3     4    1
     3     3     2    1
     4     8     2    1
     5     4    10    1
     6     4     5    1
     7     2     1    1
     8     5     6    1
     9     5    11    1
    10     1    11    1
    11     1     7    1
    12     6    12    1
