@<TRIPOS>MOLECULE
2dqy_SIA_A_1.pdb
 21 21 0 0 0
SMALL
GASTEIGER

@<TRIPOS>ATOM
      1  C1       -10.4280   31.9340   70.4520 C.2   182  SIA182      0.4179
      2  C2        -9.9840   33.4040   70.5030 C.3   182  SIA182      0.3155
      3  C3        -8.5610   33.5280   71.0920 C.3   182  SIA182      0.1056
      4  C4        -7.8720   34.8060   70.5840 C.3   182  SIA182      0.1798
      5  C5        -7.7480   34.7660   69.0550 C.3   182  SIA182      0.1554
      6  C6        -8.7870   33.8100   68.4350 C.3   182  SIA182      0.1734
      7  C7        -8.9990   34.1250   66.9500 C.3   182  SIA182      0.2135
      8  C8        -9.5130   32.9280   66.1660 C.3   182  SIA182      0.2173
      9  C9        -9.8980   33.4160   64.7830 C.3   182  SIA182      0.2175
     10  C10       -5.5530   35.1780   68.1920 C.2   182  SIA182      0.2420
     11  C11       -4.5560   35.8290   69.1470 C.3   182  SIA182      0.0964
     12  N5        -6.4190   34.3210   68.7100 N.am  182  SIA182     -0.2020
     13  O1A      -10.6210   31.3200   71.5250 O.co2 182  SIA182     -0.2401
     14  O1B      -10.6330   31.4090   69.3360 O.co2 182  SIA182     -0.2401
     15  O2       -10.8670   34.1250   71.2880 O.3   182  SIA182     -0.1830
     16  O4        -8.5940   35.9680   70.9810 O.3   182  SIA182     -0.2210
     17  O6       -10.0420   33.9220   69.1530 O.3   182  SIA182     -0.3220
     18  O7        -9.9300   35.1880   66.7960 O.3   182  SIA182     -0.2176
     19  O8        -8.5100   31.9340   66.0610 O.3   182  SIA182     -0.2175
     20  O9        -8.8620   34.2440   64.2750 O.3   182  SIA182     -0.2175
     21  O10       -5.5380   35.4520   66.9890 O.2   182  SIA182     -0.2733
@<TRIPOS>BOND
     1    20     9    1
     2     9     8    1
     3    19     8    1
     4     8     7    1
     5    18     7    1
     6     7     6    1
     7    21    10    2
     8    10    12   am
     9    10    11    1
    10     6     5    1
    11     6    17    1
    12    12     5    1
    13     5     4    1
    14    17     2    1
    15    14     1   ar
    16     1     2    1
    17     1    13   ar
    18     2     3    1
    19     2    15    1
    20     4    16    1
    21     4     3    1
