@<TRIPOS>MOLECULE
2dqz_SIA_A_1.pdb
 21 21 0 0 0
SMALL
GASTEIGER

@<TRIPOS>ATOM
      1  C1       -10.0340   34.6390   71.4070 C.2   182  SIA182      0.4179
      2  C2        -8.9380   35.2870   70.5590 C.3   182  SIA182      0.3155
      3  C3        -7.7390   35.6410   71.4530 C.3   182  SIA182      0.1056
      4  C4        -6.4520   35.8230   70.6330 C.3   182  SIA182      0.1798
      5  C5        -6.7730   35.9980   69.1480 C.3   182  SIA182      0.1554
      6  C6        -7.5510   34.7770   68.6000 C.3   182  SIA182      0.1734
      7  C7        -8.2080   35.1140   67.2520 C.3   182  SIA182      0.2135
      8  C8        -8.6490   33.8800   66.4540 C.3   182  SIA182      0.2173
      9  C9        -9.0910   34.3030   65.0500 C.3   182  SIA182      0.2175
     10  C10       -4.9090   37.3660   68.4700 C.2   182  SIA182      0.2420
     11  C11       -3.5330   37.3950   69.1310 C.3   182  SIA182      0.0964
     12  N5        -5.5400   36.1950   68.4050 N.am  182  SIA182     -0.2020
     13  O1A      -10.4870   35.2680   72.3970 O.co2 182  SIA182     -0.2401
     14  O1B      -10.4540   33.4990   71.0730 O.co2 182  SIA182     -0.2401
     15  O2        -9.4250   36.4360   69.9550 O.3   182  SIA182     -0.1830
     16  O4        -5.7410   36.9670   71.0980 O.3   182  SIA182     -0.2210
     17  O6        -8.5680   34.3240   69.5400 O.3   182  SIA182     -0.3220
     18  O7        -9.3430   35.9410   67.4700 O.3   182  SIA182     -0.2176
     19  O8        -7.5910   32.9440   66.3530 O.3   182  SIA182     -0.2175
     20  O9        -8.0310   34.9820   64.3860 O.3   182  SIA182     -0.2175
     21  O10       -5.3990   38.4100   68.0260 O.2   182  SIA182     -0.2733
@<TRIPOS>BOND
     1    20     9    1
     2     9     8    1
     3    19     8    1
     4     8     7    1
     5     7    18    1
     6     7     6    1
     7    21    10    2
     8    12    10   am
     9    12     5    1
    10    10    11    1
    11     6     5    1
    12     6    17    1
    13     5     4    1
    14    17     2    1
    15    15     2    1
    16     2     1    1
    17     2     3    1
    18     4    16    1
    19     4     3    1
    20    14     1   ar
    21     1    13   ar
