@<TRIPOS>MOLECULE
2dqz_HTQ_A_1.pdb
 20 22 0 0 0
SMALL
GASTEIGER

@<TRIPOS>ATOM
      1  C1         2.5560   60.5080   34.5230 C.3    11  HTQ11       0.0611
      2  C2         2.6560   59.6820   33.1620 C.3    11  HTQ11       0.0596
      3  C3         1.3360   59.0230   32.6830 C.3    11  HTQ11       0.1716
      4  C4         0.0630   59.1700   33.6860 C.3    11  HTQ11       0.0596
      5  C5         0.3480   59.9680   35.0460 C.3    11  HTQ11       0.0611
      6  C6         0.3390   61.4880   34.7890 C.3    11  HTQ11       0.0175
      7  C7         1.7650   61.8960   34.3650 C.3    11  HTQ11       0.0175
      8  N8         1.7650   59.6940   35.4950 N.3    11  HTQ11      -0.2738
      9  C9         2.0300   60.0960   36.9610 C.3    11  HTQ11       0.0896
     10  O10        1.5580   57.5980   32.4860 O.3    11  HTQ11      -0.4502
     11  C11        0.7300   56.6830   31.8270 C.2    11  HTQ11       0.3520
     12  O12       -0.3660   56.9080   31.2700 O.2    11  HTQ11      -0.2469
     13  C13        1.3520   55.2810   31.8780 C.3    11  HTQ11       0.2719
     14  C14        1.6330   54.7790   33.3440 C.ar   11  HTQ11       0.0186
     15  C15        3.0110   54.3750   33.5960 C.ar   11  HTQ11      -0.0013
     16  C16        0.6460   54.6830   34.4120 C.ar   11  HTQ11      -0.0013
     17  C17        3.3940   53.8800   34.9030 C.ar   11  HTQ11      -0.0002
     18  C18        1.0400   54.1870   35.7120 C.ar   11  HTQ11      -0.0002
     19  C19        2.4080   53.7870   35.9550 C.ar   11  HTQ11      -0.0000
     20  O20        0.4590   54.3660   31.2020 O.3    11  HTQ11      -0.2061
@<TRIPOS>BOND
     1    20    13    1
     2    12    11    2
     3    11    13    1
     4    11    10    1
     5    13    14    1
     6    10     3    1
     7     3     2    1
     8     3     4    1
     9     2     1    1
    10    14    15   ar
    11    14    16   ar
    12    15    17   ar
    13     4     5    1
    14     7     1    1
    15     7     6    1
    16    16    18   ar
    17     1     8    1
    18     6     5    1
    19    17    19   ar
    20     5     8    1
    21     8     9    1
    22    18    19   ar
