@<TRIPOS>MOLECULE
2dr0_SIA_A_1.pdb
 21 21 0 0 0
SMALL
GASTEIGER

@<TRIPOS>ATOM
      1  C1        -9.7660   34.7350   70.6460 C.2   182  SIA182      0.4179
      2  C2        -8.9480   35.2480   69.4490 C.3   182  SIA182      0.3155
      3  C3        -7.7980   36.1300   69.9510 C.3   182  SIA182      0.1056
      4  C4        -6.6500   36.1620   68.9400 C.3   182  SIA182      0.1798
      5  C5        -7.1630   35.8450   67.5250 C.3   182  SIA182      0.1554
      6  C6        -7.8060   34.4380   67.4680 C.3   182  SIA182      0.1734
      7  C7        -8.8440   34.3470   66.3390 C.3   182  SIA182      0.2135
      8  C8        -8.2630   33.7750   65.0540 C.3   182  SIA182      0.2173
      9  C9        -9.2940   33.9790   63.9670 C.3   182  SIA182      0.2175
     10  C10       -6.0790   36.9110   65.6570 C.2   182  SIA182      0.2420
     11  C11       -5.2820   38.1700   65.9760 C.3   182  SIA182      0.0964
     12  N5        -6.0780   35.9380   66.5640 N.am  182  SIA182     -0.2020
     13  O1A       -9.8870   35.4670   71.6560 O.co2 182  SIA182     -0.2401
     14  O1B      -10.2970   33.6000   70.5750 O.co2 182  SIA182     -0.2401
     15  O2        -9.7600   35.9740   68.5870 O.3   182  SIA182     -0.1830
     16  O4        -6.0470   37.4470   68.9550 O.3   182  SIA182     -0.2210
     17  O6        -8.4320   34.1040   68.7410 O.3   182  SIA182     -0.3220
     18  O7        -9.9310   33.5270   66.7410 O.3   182  SIA182     -0.2176
     19  O8        -7.0630   34.4440   64.7110 O.3   182  SIA182     -0.2175
     20  O9        -9.7890   35.3070   64.0460 O.3   182  SIA182     -0.2175
     21  O10       -6.6950   36.8290   64.5940 O.2   182  SIA182     -0.2733
@<TRIPOS>BOND
     1     9    20    1
     2     9     8    1
     3    21    10    2
     4    19     8    1
     5     8     7    1
     6    10    11    1
     7    10    12   am
     8     7    18    1
     9     7     6    1
    10    12     5    1
    11     6     5    1
    12     6    17    1
    13     5     4    1
    14    15     2    1
    15    17     2    1
    16     4    16    1
    17     4     3    1
    18     2     3    1
    19     2     1    1
    20    14     1   ar
    21     1    13   ar
