@<TRIPOS>MOLECULE
2dr0_TCH_A_1.pdb
 35 38 0 0 0
SMALL
GASTEIGER

@<TRIPOS>ATOM
      1  C1         0.3640   55.2020   31.3910 C.3   101  TCH101      0.0026
      2  C2        -0.7690   54.7170   30.4560 C.3   101  TCH101      0.0329
      3  C3        -1.9890   55.5560   30.6540 C.3   101  TCH101      0.1520
      4  O3        -3.1920   55.0300   30.1350 O.3   101  TCH101     -0.2232
      5  C4        -1.5440   56.9790   30.1930 C.3   101  TCH101      0.0330
      6  C5        -0.5160   57.5530   31.1860 C.3   101  TCH101      0.0050
      7  C6        -0.1530   58.9710   31.0280 C.3   101  TCH101      0.0330
      8  C7         0.3300   59.4910   32.3510 C.3   101  TCH101      0.1519
      9  O7        -0.6580   59.5340   33.3440 O.3   101  TCH101     -0.2232
     10  C8         1.5850   58.7120   32.9410 C.3   101  TCH101      0.0306
     11  C9         1.7240   57.2060   32.3540 C.3   101  TCH101      0.0050
     12  C10        0.7580   56.6900   31.1900 C.3   101  TCH101      0.0004
     13  C11        2.7780   56.2300   32.7370 C.3   101  TCH101      0.0330
     14  C12        2.9060   56.3560   34.3450 C.3   101  TCH101      0.1519
     15  O12        1.9770   55.6390   35.2110 O.3   101  TCH101     -0.2232
     16  C13        3.0180   57.8790   34.9350 C.3   101  TCH101      0.0282
     17  C14        1.7060   58.6890   34.5080 C.3   101  TCH101      0.0048
     18  C15        1.5960   60.0260   35.3400 C.3   101  TCH101      0.0002
     19  C16        2.2910   59.6040   36.6120 C.3   101  TCH101      0.0001
     20  C17        2.7740   58.1350   36.5000 C.3   101  TCH101      0.0024
     21  C18        4.2560   58.7230   34.3230 C.3   101  TCH101      0.0025
     22  C19        1.5480   56.7250   29.8840 C.3   101  TCH101      0.0000
     23  O1S        6.8670   60.9980   34.0360 O.3   101  TCH101     -0.3071
     24  C20        3.8970   57.8670   37.6540 C.3   101  TCH101      0.0002
     25  C21        4.2180   56.4210   37.7160 C.3   101  TCH101      0.0000
     26  C22        5.2710   58.6920   37.4990 C.3   101  TCH101      0.0047
     27  C23        5.8170   59.6460   38.6700 C.3   101  TCH101      0.0585
     28  C24        7.1280   60.3860   38.2810 C.3   101  TCH101      0.2539
     29  N24        7.1180   61.0830   37.1040 N.2   101  TCH101     -0.2422
     30  O24        7.5760   61.1530   39.2310 O.3   101  TCH101     -0.1962
     31  C25        6.2920   62.2800   36.8570 C.2   101  TCH101      0.0911
     32  C26        6.2570   63.0810   35.4610 C.3   101  TCH101      0.1515
     33  S26        7.3730   62.3140   34.2230 S.3   101  TCH101     -0.1902
     34  O2S        7.4490   62.9640   32.8610 O.3   101  TCH101     -0.3071
     35  O3S        8.7340   62.2360   34.8300 O.3   101  TCH101     -0.3071
@<TRIPOS>BOND
     1    22    12    1
     2     4     3    1
     3     5     3    1
     4     5     6    1
     5     2     3    1
     6     2     1    1
     7     7     6    1
     8     7     8    1
     9     6    12    1
    10    12     1    1
    11    12    11    1
    12     8    10    1
    13     8     9    1
    14    11    13    1
    15    11    10    1
    16    13    14    1
    17    34    33    1
    18    10    17    1
    19    23    33    1
    20    33    35    1
    21    33    32    1
    22    21    16    1
    23    14    16    1
    24    14    15    1
    25    17    16    1
    26    17    18    1
    27    16    20    1
    28    18    19    1
    29    32    31    1
    30    20    19    1
    31    20    24    1
    32    31    29    2
    33    29    28    1
    34    26    24    1
    35    26    27    1
    36    24    25    1
    37    28    27    1
    38    28    30    1
