@<TRIPOS>MOLECULE
2dr1_PLP_A_1.pdb
 15 15 0 0 0
SMALL
GASTEIGER

@<TRIPOS>ATOM
      1  N1       117.0300   46.1960   -0.4680 N.ar  1001  PLP1001    -0.2452
      2  C2       118.1390   46.9500   -0.5520 C.ar  1001  PLP1001     0.0978
      3  C2A      118.1250   48.3600   -0.0080 C.3   1001  PLP1001     0.0555
      4  C3       119.3170   46.4270   -1.1440 C.ar  1001  PLP1001     0.2049
      5  O3       120.4470   47.1650   -1.2390 O.3   1001  PLP1001    -0.2857
      6  C4       119.3060   45.0970   -1.6440 C.ar  1001  PLP1001     0.0182
      7  C4A      120.5670   44.5570   -2.2510 C.3   1001  PLP1001     0.0342
      8  C5       118.0790   44.3270   -1.5310 C.ar  1001  PLP1001     0.0261
      9  C6       116.9630   44.9290   -0.9290 C.ar  1001  PLP1001     0.0965
     10  C5A      118.0000   42.9090   -2.0410 C.3   1001  PLP1001     0.1815
     11  O4P      118.8650   42.1340   -1.2280 O.3   1001  PLP1001    -0.2653
     12  P        118.8490   40.6030   -1.7160 P.3   1001  PLP1001     0.5329
     13  O1P      119.7750   39.8640   -0.8410 O.3   1001  PLP1001    -0.1145
     14  O2P      117.3810   39.9790   -1.6210 O.3   1001  PLP1001    -0.1145
     15  O3P      119.3500   40.5060   -3.2330 O.2   1001  PLP1001    -0.2224
@<TRIPOS>BOND
     1    15    12    2
     2     7     6    1
     3    10     8    1
     4    10    11    1
     5    12    14    1
     6    12    11    1
     7    12    13    1
     8     6     8   ar
     9     6     4   ar
    10     8     9   ar
    11     5     4    1
    12     4     2   ar
    13     9     1   ar
    14     2     1   ar
    15     2     3    1
