@<TRIPOS>MOLECULE
2dr2_TRP_A_1.pdb
 15 16 0 0 0
SMALL
GASTEIGER

@<TRIPOS>ATOM
      1  N         32.6530   79.2440  126.6920 N.3   479  TRP479     -0.1205
      2  CA        32.4540   77.8480  127.0630 C.3   479  TRP479      0.1984
      3  C         32.1970   77.6820  128.5670 C.2   479  TRP479      0.3822
      4  O         32.1830   78.6940  129.2850 O.co2 479  TRP479     -0.2440
      5  CB        33.7490   77.0970  126.7200 C.3   479  TRP479      0.0549
      6  CG        33.9290   76.6560  125.2990 C.2   479  TRP479     -0.0138
      7  CD1       34.9540   77.0150  124.4560 C.2   479  TRP479      0.0907
      8  CD2       33.0820   75.7820  124.5510 C.3   479  TRP479      0.0819
      9  NE1       34.8130   76.4250  123.2190 N.2   479  TRP479     -0.2482
     10  CE2       33.6750   75.6560  123.2330 C.2   479  TRP479      0.0665
     11  CE3       31.8560   75.0650  124.8410 C.2   479  TRP479     -0.0164
     12  CZ2       33.0770   74.8330  122.2120 C.2   479  TRP479      0.0153
     13  CZ3       31.2670   74.2540  123.8340 C.2   479  TRP479     -0.0038
     14  CH2       31.8810   74.1430  122.5290 C.2   479  TRP479      0.0009
     15  OXT       31.9750   76.3200  129.1380 O.co2 479  TRP479     -0.2440
@<TRIPOS>BOND
     1    12    14    2
     2    12    10    1
     3    14    13    1
     4     9    10    2
     5     9     7    1
     6    10     8    1
     7    13    11    2
     8     7     6    2
     9     8    11    1
    10     8     6    1
    11     6     5    1
    12     1     2    1
    13     5     2    1
    14     2     3    1
    15     3    15   ar
    16     3     4   ar
