@<TRIPOS>MOLECULE
2dr3_ADP_A_1.pdb
 27 29 0 0 0
SMALL
GASTEIGER

@<TRIPOS>ATOM
      1  PB        -1.6260  -13.0790  130.5270 P.3   3801  ADP3801     0.5373
      2  O1B       -0.2990  -12.5460  130.9010 O.3   3801  ADP3801    -0.1143
      3  O2B       -1.5190  -14.5840  129.9830 O.3   3801  ADP3801    -0.1143
      4  O3B       -2.2840  -12.2090  129.3660 O.2   3801  ADP3801    -0.2221
      5  PA        -3.8150  -12.1290  132.1090 P.3   3801  ADP3801     0.2231
      6  O1A       -3.3050  -10.7660  131.8880 O.3   3801  ADP3801    -0.4370
      7  O2A       -5.0070  -12.5430  131.3290 O.2   3801  ADP3801    -0.5169
      8  O3A       -2.6600  -13.1890  131.7540 O.3   3801  ADP3801    -0.2261
      9  O5'       -4.0980  -12.4150  133.6540 O.3   3801  ADP3801    -0.3111
     10  C5'       -4.7400  -13.6410  134.0350 C.3   3801  ADP3801     0.1813
     11  C4'       -4.7130  -13.8350  135.5360 C.3   3801  ADP3801     0.1821
     12  O4'       -5.4480  -12.8050  136.2150 O.3   3801  ADP3801    -0.3135
     13  C3'       -5.3930  -15.1240  135.9650 C.3   3801  ADP3801     0.2184
     14  O3'       -4.5150  -16.2340  135.7530 O.3   3801  ADP3801    -0.2174
     15  C2'       -5.6780  -14.8570  137.4320 C.3   3801  ADP3801     0.2570
     16  O2'       -4.6810  -15.4390  138.2750 O.3   3801  ADP3801    -0.2130
     17  C1'       -5.7020  -13.3230  137.5410 C.3   3801  ADP3801     0.3186
     18  N9        -7.0390  -12.8250  137.9850 N.pl3 3801  ADP3801    -0.1439
     19  C8        -8.1200  -12.6590  137.2000 C.3   3801  ADP3801     0.3377
     20  N7        -9.1340  -12.1870  137.9240 N.2   3801  ADP3801    -0.2095
     21  C5        -8.7020  -12.0640  139.1810 C.2   3801  ADP3801     0.2526
     22  C6        -9.2870  -11.6040  140.3710 C.2   3801  ADP3801     0.4393
     23  N6       -10.5620  -11.2160  140.3920 N.pl3 3801  ADP3801     0.2180
     24  N1        -8.5420  -11.6000  141.5170 N.2   3801  ADP3801     0.0021
     25  C2        -7.2640  -11.9840  141.5200 C.3   3801  ADP3801     0.5254
     26  N3        -6.6740  -12.4160  140.3990 N.2   3801  ADP3801    -0.0055
     27  C4        -7.3590  -12.4410  139.2160 C.2   3801  ADP3801     0.3518
@<TRIPOS>BOND
     1     4     1    2
     2     3     1    1
     3     1     2    1
     4     1     8    1
     5     7     5    2
     6     8     5    1
     7     6     5    1
     8     5     9    1
     9     9    10    1
    10    10    11    1
    11    11    13    1
    12    11    12    1
    13    14    13    1
    14    13    15    1
    15    12    17    1
    16    19    20    1
    17    19    18    1
    18    15    17    1
    19    15    16    1
    20    17    18    1
    21    20    21    2
    22    18    27    1
    23    21    27    1
    24    21    22    1
    25    27    26    2
    26    22    23    1
    27    22    24    2
    28    26    25    1
    29    24    25    1
