@<TRIPOS>MOLECULE
2dr6_DM2_A_1.pdb
 39 43 0 0 0
SMALL
GASTEIGER

@<TRIPOS>ATOM
      1  C1       159.2210  129.3040   27.5550 C.ar  2002  DM22002     0.0035
      2  C2       158.2630  128.5170   27.6290 C.ar  2002  DM22002     0.0032
      3  C3       158.0860  127.3990   27.8650 C.ar  2002  DM22002     0.0370
      4  C4       158.7370  126.4900   28.3940 C.ar  2002  DM22002     0.1418
      5  O4       158.5080  125.0480   28.2190 O.3   2002  DM22002    -0.4713
      6  C5       160.0500  127.1590   28.8870 C.ar  2002  DM22002     0.0760
      7  C6       161.1490  126.5330   29.6880 C.2   2002  DM22002     0.2019
      8  O6       160.9750  125.3450   30.0920 O.2   2002  DM22002    -0.2864
      9  C7       162.3350  127.2430   30.0020 C.ar  2002  DM22002     0.0838
     10  C8       163.2550  126.5690   30.7580 C.ar  2002  DM22002     0.1970
     11  O8       162.8590  125.2720   31.1110 O.3   2002  DM22002    -0.2867
     12  C9       164.5900  127.2550   31.1140 C.ar  2002  DM22002     0.0430
     13  C10      165.7410  126.6620   31.8940 C.3   2002  DM22002     0.1457
     14  O10      166.2590  125.5310   31.1280 O.3   2002  DM22002    -0.3283
     15  C11      166.9380  127.6560   32.1970 C.3   2002  DM22002     0.0723
     16  C12      167.2950  128.7090   31.0940 C.3   2002  DM22002     0.1865
     17  O12      167.7820  128.0190   29.9100 O.3   2002  DM22002    -0.2176
     18  C13      168.2590  129.7880   31.5470 C.2   2002  DM22002     0.2114
     19  O13      167.7350  130.8620   31.9640 O.2   2002  DM22002    -0.2907
     20  C14      169.7620  129.3920   31.4100 C.3   2002  DM22002     0.2484
     21  O14      170.7920  130.4200   31.4850 O.3   2002  DM22002    -0.2118
     22  C15      166.0600  129.5570   30.8420 C.3   2002  DM22002     0.0672
     23  C16      164.8590  128.6340   30.6320 C.ar  2002  DM22002     0.0211
     24  C17      163.9170  129.2200   29.9340 C.ar  2002  DM22002     0.1949
     25  O17      164.4650  130.4800   29.6950 O.3   2002  DM22002    -0.2868
     26  C18      162.6540  128.5490   29.6040 C.ar  2002  DM22002     0.0837
     27  C19      161.6700  129.1970   28.8270 C.2   2002  DM22002     0.1990
     28  O19      161.9740  130.3550   28.4700 O.2   2002  DM22002    -0.2865
     29  C20      160.3160  128.5900   28.4050 C.ar  2002  DM22002     0.0451
     30  C21      157.8610  124.5570   27.0440 C.3   2002  DM22002     0.2525
     31  C1'      165.4490  124.2910   31.0860 C.3   2002  DM22002     0.2369
     32  C2'      164.8110  124.0550   29.6770 C.3   2002  DM22002     0.0830
     33  C3'      165.7060  123.2010   28.7940 C.3   2002  DM22002     0.1295
     34  N3'      165.0800  123.0890   27.4600 N.3   2002  DM22002    -0.1300
     35  C4'      166.0530  121.9160   29.6440 C.3   2002  DM22002     0.1965
     36  O4'      166.5620  120.8060   28.8770 O.3   2002  DM22002    -0.2190
     37  C5'      166.9450  122.3000   30.8940 C.3   2002  DM22002     0.1495
     38  O5'      166.0870  123.1080   31.7270 O.3   2002  DM22002    -0.3303
     39  C6'      167.6970  121.2890   31.8070 C.3   2002  DM22002     0.0349
@<TRIPOS>BOND
     1    30     5    1
     2    34    33    1
     3     1     2   ar
     4     1    29   ar
     5     2     3   ar
     6     3     4   ar
     7     5     4    1
     8     4     6   ar
     9    29    27    1
    10    29     6   ar
    11    28    27    2
    12    33    35    1
    13    33    32    1
    14    27    26    1
    15    36    35    1
    16     6     7    1
    17    26    24   ar
    18    26     9   ar
    19    35    37    1
    20    32    31    1
    21     7     9    1
    22     7     8    2
    23    25    24    1
    24    17    16    1
    25    24    23   ar
    26     9    10   ar
    27    23    22    1
    28    23    12   ar
    29    10    11    1
    30    10    12   ar
    31    22    16    1
    32    37    38    1
    33    37    39    1
    34    31    14    1
    35    31    38    1
    36    16    18    1
    37    16    15    1
    38    12    13    1
    39    14    13    1
    40    20    21    1
    41    20    18    1
    42    18    19    2
    43    13    15    1
