@<TRIPOS>MOLECULE
2dr8_CTP_A_1.pdb
 29 30 0 0 0
SMALL
GASTEIGER

@<TRIPOS>ATOM
      1  N1        12.4140   -7.5120  -32.5980 N.am  501  CTP501     -0.1778
      2  C2        12.2310   -8.6310  -31.7720 C.1   501  CTP501      0.2756
      3  N3        13.1530   -8.8990  -30.8120 N.2   501  CTP501     -0.3024
      4  C4        14.2100   -8.0900  -30.6540 C.2   501  CTP501      0.2346
      5  C5        14.3940   -6.9290  -31.4550 C.2   501  CTP501      0.0687
      6  C6        13.4840   -6.6820  -32.4040 C.2   501  CTP501      0.0836
      7  O2        11.2280   -9.3430  -31.9310 O.2   501  CTP501     -0.1925
      8  N4        15.1110   -8.4030  -29.7180 N.pl3 501  CTP501     -0.0921
      9  C1'       11.4590   -7.2420  -33.6920 C.3   501  CTP501      0.2400
     10  C2'       10.0120   -7.0150  -33.2390 C.3   501  CTP501      0.2319
     11  O2'        9.0890   -7.2460  -34.2840 O.3   501  CTP501     -0.2157
     12  C3'       10.0630   -5.5530  -32.8380 C.3   501  CTP501      0.2158
     13  C4'       11.0370   -4.9450  -33.8260 C.3   501  CTP501      0.1799
     14  O4'       11.8730   -6.0330  -34.3010 O.3   501  CTP501     -0.3320
     15  O3'        8.8250   -4.8770  -32.9500 O.3   501  CTP501     -0.2175
     16  C5'       11.8760   -3.9300  -33.1010 C.3   501  CTP501      0.1813
     17  O5'       12.7910   -3.3120  -33.9710 O.3   501  CTP501     -0.3112
     18  PA        13.7360   -2.1560  -33.4300 P.3   501  CTP501      0.2189
     19  O1A       13.8960   -1.2000  -34.5570 O.2   501  CTP501     -0.5170
     20  O2A       14.9370   -2.8010  -32.8320 O.3   501  CTP501     -0.4371
     21  O3A       12.9540   -1.4470  -32.2200 O.3   501  CTP501     -0.2700
     22  PB        11.4750   -0.8550  -32.3610 P.3   501  CTP501      0.2277
     23  O1B       10.5350   -1.9630  -32.0360 O.3   501  CTP501     -0.4368
     24  O2B       11.3270   -0.1410  -33.6630 O.2   501  CTP501     -0.5168
     25  O3B       11.3340    0.2090  -31.1750 O.3   501  CTP501     -0.2258
     26  PG        12.4160    1.3540  -30.8970 P.3   501  CTP501      0.5373
     27  O1G       11.7290    2.5530  -30.3620 O.3   501  CTP501     -0.1143
     28  O2G       13.5230    0.7480  -30.1150 O.3   501  CTP501     -0.1143
     29  O3G       12.9440    1.7650  -32.3410 O.2   501  CTP501     -0.2221
@<TRIPOS>BOND
     1    19    18    2
     2    14    13    1
     3    14     9    1
     4    11    10    1
     5    17    18    1
     6    17    16    1
     7    13    16    1
     8    13    12    1
     9     9    10    1
    10     9     1    1
    11    24    22    2
    12    18    20    1
    13    18    21    1
    14    10    12    1
    15    15    12    1
    16     1     6    1
    17     1     2   am
    18     6     5    2
    19    22    21    1
    20    22    23    1
    21    22    25    1
    22    29    26    2
    23     7     2    2
    24     2     3    2
    25     5     4    1
    26    25    26    1
    27    26    27    1
    28    26    28    1
    29     3     4    2
    30     4     8    1
