@<TRIPOS>MOLECULE
2dra_ATP_A_1.pdb
 31 33 0 0 0
SMALL
GASTEIGER

@<TRIPOS>ATOM
      1  PG        16.8170  -30.7310  -30.9470 P.3   501  ATP501      0.5373
      2  O1G       17.5780  -31.8210  -30.2810 O.3   501  ATP501     -0.1143
      3  O2G       15.5780  -30.2260  -30.3080 O.3   501  ATP501     -0.1143
      4  O3G       16.4310  -31.2400  -32.4070 O.2   501  ATP501     -0.2221
      5  PB        17.7480  -28.4600  -32.3680 P.3   501  ATP501      0.2277
      6  O1B       18.5840  -27.3070  -31.9860 O.3   501  ATP501     -0.4368
      7  O2B       18.0220  -29.1530  -33.6620 O.2   501  ATP501     -0.5168
      8  O3B       17.8460  -29.5160  -31.1610 O.3   501  ATP501     -0.2258
      9  PA        15.5620  -27.3130  -33.6550 P.3   501  ATP501      0.2189
     10  O1A       15.6370  -28.2800  -34.7720 O.2   501  ATP501     -0.5170
     11  O2A       14.2330  -26.7650  -33.2530 O.3   501  ATP501     -0.4371
     12  O3A       16.2270  -27.9770  -32.3640 O.3   501  ATP501     -0.2700
     13  O5'       16.4960  -26.0660  -34.0000 O.3   501  ATP501     -0.3112
     14  C5'       17.4930  -26.1350  -35.0220 C.3   501  ATP501      0.1813
     15  C4'       18.4580  -24.9820  -34.8740 C.3   501  ATP501      0.1821
     16  O4'       17.7590  -23.7390  -35.1620 O.3   501  ATP501     -0.3135
     17  C3'       19.0020  -24.8150  -33.4630 C.3   501  ATP501      0.2184
     18  O3'       20.1900  -25.5830  -33.2760 O.3   501  ATP501     -0.2174
     19  C2'       19.2570  -23.3150  -33.3780 C.3   501  ATP501      0.2570
     20  O2'       20.4620  -22.9190  -33.9970 O.3   501  ATP501     -0.2130
     21  C1'       18.0790  -22.7690  -34.1830 C.3   501  ATP501      0.3186
     22  N9        16.8790  -22.5130  -33.3820 N.pl3 501  ATP501     -0.1439
     23  C8        15.6370  -23.0780  -33.5140 C.3   501  ATP501      0.3377
     24  N7        14.7470  -22.6030  -32.6770 N.2   501  ATP501     -0.2095
     25  C5        15.4550  -21.6680  -31.9310 C.2   501  ATP501      0.2526
     26  C6        15.0820  -20.8020  -30.8720 C.2   501  ATP501      0.4393
     27  N6        13.8490  -20.7320  -30.3550 N.pl3 501  ATP501      0.2180
     28  N1        16.0380  -20.0000  -30.3530 N.2   501  ATP501      0.0021
     29  C2        17.2760  -20.0680  -30.8560 C.3   501  ATP501      0.5254
     30  N3        17.7460  -20.8320  -31.8420 N.2   501  ATP501     -0.0055
     31  C4        16.7740  -21.6150  -32.3440 C.2   501  ATP501      0.3518
@<TRIPOS>BOND
     1    16    15    1
     2    16    21    1
     3    14    15    1
     4    14    13    1
     5    15    17    1
     6    10     9    2
     7    21    22    1
     8    21    19    1
     9    13     9    1
    10    20    19    1
    11     7     5    2
    12     9    11    1
    13     9    12    1
    14    23    22    1
    15    23    24    1
    16    17    19    1
    17    17    18    1
    18    22    31    1
    19    24    25    2
    20     4     1    2
    21     5    12    1
    22     5     6    1
    23     5     8    1
    24    31    25    1
    25    31    30    2
    26    25    26    1
    27    30    29    1
    28     8     1    1
    29     1     3    1
    30     1     2    1
    31    26    27    1
    32    26    28    2
    33    29    28    1
