@<TRIPOS>MOLECULE
2drc_MTX_A_1.pdb
 33 35 0 0 0
SMALL
GASTEIGER

@<TRIPOS>ATOM
      1  N1        23.0230   58.4460   24.3200 N.2   161  MTX161     -0.2684
      2  C2        23.6230   58.0070   23.1830 C.1   161  MTX161      0.2519
      3  NA2       24.8920   57.9810   23.1230 N.pl3 161  MTX161     -0.0226
      4  N3        22.8720   57.6110   22.1630 N.2   161  MTX161     -0.3033
      5  C4        21.4910   57.5980   22.0130 C.2   161  MTX161      0.2728
      6  NA4       20.8320   57.1650   20.9160 N.pl3 161  MTX161     -0.0887
      7  C4A       20.8840   58.1090   23.2530 C.2   161  MTX161      0.2518
      8  N5        19.6330   58.2890   23.1960 N.2   161  MTX161     -0.3917
      9  C6        19.0030   58.7430   24.3000 C.2   161  MTX161      0.1330
     10  C7        19.7690   59.0280   25.5170 C.3   161  MTX161      0.1930
     11  N8        21.1540   58.8710   25.4730 N.2   161  MTX161     -0.1998
     12  C8A       21.6290   58.4210   24.2970 C.1   161  MTX161      0.1314
     13  C9        17.5280   58.9390   24.2540 C.3   161  MTX161      0.1481
     14  N10       16.9500   59.7110   25.4790 N.pl3 161  MTX161     -0.2999
     15  CM        16.0930   59.0840   26.6230 C.3   161  MTX161      0.1125
     16  C11       18.0040   63.8460   25.7430 C.ar  161  MTX161      0.0551
     17  C12       17.2420   63.2360   26.6640 C.ar  161  MTX161      0.0058
     18  C13       16.8580   61.8160   26.5780 C.ar  161  MTX161      0.0147
     19  C14       17.3140   61.1250   25.5220 C.ar  161  MTX161      0.0482
     20  C15       18.1730   61.8040   24.5010 C.ar  161  MTX161      0.0147
     21  C16       18.4990   63.0280   24.5970 C.ar  161  MTX161      0.0058
     22  C         18.3240   65.3520   25.8220 C.2   161  MTX161      0.2652
     23  O         17.5880   66.0760   26.5760 O.2   161  MTX161     -0.2684
     24  N         19.2960   65.8690   25.0640 N.am  161  MTX161     -0.1918
     25  CA        19.7260   67.3230   25.0800 C.3   161  MTX161      0.1986
     26  CT        19.9910   67.4480   23.5680 C.2   161  MTX161      0.3842
     27  O1        20.3360   66.4020   22.7980 O.co2 161  MTX161     -0.2437
     28  O2        19.8720   68.5830   23.0950 O.co2 161  MTX161     -0.2437
     29  CB        21.0650   67.5020   25.8280 C.3   161  MTX161      0.0451
     30  CG        21.0490   67.3830   27.3470 C.3   161  MTX161      0.1164
     31  CD        19.8620   68.4730   27.9400 C.2   161  MTX161      0.3649
     32  OE1       19.3260   68.1540   29.3380 O.co2 161  MTX161     -0.2457
     33  OE2       19.4570   69.3850   27.3180 O.co2 161  MTX161     -0.2457
@<TRIPOS>BOND
     1     6     5    1
     2     5     4    2
     3     5     7    1
     4     4     2    2
     5    27    26   ar
     6    28    26   ar
     7     3     2    1
     8     2     1    2
     9     8     7    2
    10     8     9    2
    11     7    12    1
    12    26    25    1
    13    13     9    1
    14    13    14    1
    15    12     1    2
    16    12    11    2
    17     9    10    1
    18    20    21   ar
    19    20    19   ar
    20    21    16   ar
    21    24    25    1
    22    24    22   am
    23    25    29    1
    24    11    10    1
    25    14    19    1
    26    14    15    1
    27    19    18   ar
    28    16    22    1
    29    16    17   ar
    30    22    23    2
    31    29    30    1
    32    18    17   ar
    33    33    31   ar
    34    30    31    1
    35    31    32   ar
