@<TRIPOS>MOLECULE
2drd_MIY_A_1.pdb
 33 36 0 0 0
SMALL
GASTEIGER

@<TRIPOS>ATOM
      1  O8       171.7080  124.5790   24.8380 O.2   2001  MIY2001    -0.2665
      2  C21      170.6630  125.0940   25.2670 C.2   2001  MIY2001     0.2899
      3  N2       169.7460  125.6810   24.4650 N.am  2001  MIY2001    -0.0835
      4  C2       170.3380  125.1270   26.7260 C.2   2001  MIY2001     0.1300
      5  C1       170.5440  126.3780   27.4930 C.2   2001  MIY2001     0.2148
      6  O1       170.8910  127.3810   26.9010 O.2   2001  MIY2001    -0.2880
      7  C3       169.8440  124.0340   27.3830 C.2   2001  MIY2001     0.1948
      8  O2       169.7890  122.8690   26.7130 O.2   2001  MIY2001    -0.2897
      9  C4       169.3180  124.0450   28.8530 C.3   2001  MIY2001     0.1235
     10  N1       169.8910  122.8940   29.7340 N.3   2001  MIY2001    -0.2651
     11  C20      169.2760  122.6760   31.0860 C.3   2001  MIY2001     0.0900
     12  C19      171.3650  122.7490   29.8610 C.3   2001  MIY2001     0.0900
     13  C5       169.2540  125.4600   29.5210 C.3   2001  MIY2001     0.0649
     14  C18      170.3830  126.3850   29.0340 C.3   2001  MIY2001     0.2367
     15  O7       171.6200  125.8790   29.5570 O.3   2001  MIY2001    -0.2098
     16  C17      170.2150  127.7250   29.7810 C.2   2001  MIY2001     0.2066
     17  O6       171.3070  128.4990   29.8890 O.2   2001  MIY2001    -0.2885
     18  C16      169.1100  128.1730   30.4230 C.2   2001  MIY2001     0.0543
     19  C7       167.8440  127.3660   30.5220 C.3   2001  MIY2001     0.0330
     20  C6       167.8800  126.1690   29.5420 C.3   2001  MIY2001     0.0100
     21  C15      169.1650  129.5230   31.0250 C.2   2001  MIY2001     0.1973
     22  O5       170.1950  130.2030   31.1410 O.2   2001  MIY2001    -0.2867
     23  C14      167.9010  130.1850   31.4190 C.ar  2001  MIY2001     0.0748
     24  C9       166.6860  129.6370   31.0160 C.ar  2001  MIY2001    -0.0024
     25  C8       166.6710  128.3250   30.2080 C.3   2001  MIY2001     0.0324
     26  C13      168.0060  131.3680   32.1430 C.ar  2001  MIY2001     0.1985
     27  O4       169.2560  131.8320   32.4990 O.3   2001  MIY2001    -0.2865
     28  C12      166.8450  132.0490   32.5040 C.ar  2001  MIY2001     0.0434
     29  C11      165.6150  131.5240   32.1100 C.ar  2001  MIY2001     0.0175
     30  C10      165.5230  130.3310   31.3750 C.ar  2001  MIY2001     0.0442
     31  N7       164.2660  129.8950   30.9700 N.pl3 2001  MIY2001    -0.3043
     32  CN7      163.8330  130.9500   30.0450 C.3   2001  MIY2001     0.1122
     33  C71      163.3040  129.9060   32.0930 C.3   2001  MIY2001     0.1122
@<TRIPOS>BOND
     1     3     2   am
     2     1     2    2
     3     2     4    1
     4     8     7    1
     5     4     7    2
     6     4     5    1
     7     6     5    2
     8     7     9    1
     9     5    14    1
    10     9    13    1
    11     9    10    1
    12    14    13    1
    13    14    15    1
    14    14    16    1
    15    13    20    1
    16    20    19    1
    17    10    12    1
    18    10    11    1
    19    16    17    1
    20    16    18    2
    21    32    31    1
    22    25    19    1
    23    25    24    1
    24    18    19    1
    25    18    21    1
    26    31    30    1
    27    31    33    1
    28    24    30   ar
    29    24    23   ar
    30    21    22    2
    31    21    23    1
    32    30    29   ar
    33    23    26   ar
    34    29    28   ar
    35    26    27    1
    36    26    28   ar
