@<TRIPOS>MOLECULE
2drj_CSF_A_1.pdb
 42 44 0 0 0
SMALL
GASTEIGER

@<TRIPOS>ATOM
      1  C5A       -8.0050  -30.6870  -10.5490 C.3   1001  CSF1001     0.1582
      2  C4A       -7.1880  -31.8280   -9.8630 C.3   1001  CSF1001     0.2121
      3  C2A       -7.9620  -30.9610   -7.6080 C.3   1001  CSF1001     0.3216
      4  O6A       -8.7440  -29.9620   -8.3560 O.3   1001  CSF1001    -0.3217
      5  C6A       -9.1900  -30.3550   -9.6690 C.3   1001  CSF1001     0.1735
      6  C3A       -6.7250  -31.3320   -8.4630 C.3   1001  CSF1001     0.2551
      7  O4A       -6.0240  -32.2960  -10.5710 O.3   1001  CSF1001    -0.2181
      8  N5A       -8.6300  -30.9460  -11.8580 N.am  1001  CSF1001    -0.2019
      9  C7A       -9.9550  -29.2220  -10.3330 C.3   1001  CSF1001     0.2135
     10  C8A      -11.0930  -28.6850   -9.4400 C.3   1001  CSF1001     0.2173
     11  C9A      -11.8350  -27.5380  -10.1010 C.3   1001  CSF1001     0.2175
     12  O9A      -12.9090  -27.1860   -9.2450 O.3   1001  CSF1001    -0.2175
     13  O8A      -12.0490  -29.7130   -9.2100 O.3   1001  CSF1001    -0.2175
     14  O7A       -9.0160  -28.1970  -10.6690 O.3   1001  CSF1001    -0.2176
     15  C1A       -7.4320  -30.2020   -6.4060 C.2   1001  CSF1001     0.4183
     16  OBA       -6.8160  -30.8260   -5.5450 O.co2 1001  CSF1001    -0.2401
     17  OAA       -7.6550  -28.9880   -6.3900 O.co2 1001  CSF1001    -0.2401
     18  O1A       -8.8120  -32.1440   -7.2540 O.3   1001  CSF1001    -0.2813
     19  O2A      -11.1430  -32.0940   -8.0410 O.2   1001  CSF1001    -0.5171
     20  N1        -9.8820  -37.1250   -5.6770 N.am  1001  CSF1001    -0.1778
     21  C2        -9.1910  -38.3480   -6.0190 C.1   1001  CSF1001     0.2756
     22  N3        -9.6630  -39.1140   -7.1190 N.2   1001  CSF1001    -0.3024
     23  C4       -10.8000  -38.6980   -7.8550 C.2   1001  CSF1001     0.2346
     24  C5       -11.4580  -37.5130   -7.5090 C.2   1001  CSF1001     0.0687
     25  C6       -11.0150  -36.7360   -6.4390 C.2   1001  CSF1001     0.0836
     26  C3'       -8.0440  -34.2380   -4.4070 C.3   1001  CSF1001     0.2158
     27  C2'       -7.9980  -35.7610   -4.7300 C.3   1001  CSF1001     0.2319
     28  C1'       -9.4390  -36.2700   -4.5100 C.3   1001  CSF1001     0.2400
     29  O4'      -10.3270  -35.0940   -4.1340 O.3   1001  CSF1001    -0.3320
     30  C4'       -9.4600  -33.9680   -3.8130 C.3   1001  CSF1001     0.1799
     31  PA       -10.4000  -31.9520   -6.7860 P.3   1001  CSF1001     0.2163
     32  O5'      -10.7290  -33.0570   -5.6860 O.3   1001  CSF1001    -0.3113
     33  C5'      -10.2200  -32.7770   -4.3620 C.3   1001  CSF1001     0.1813
     34  O3'       -7.0590  -33.8360   -3.4250 O.3   1001  CSF1001    -0.2175
     35  O2'       -7.0880  -36.6020   -3.9350 O.3   1001  CSF1001    -0.2157
     36  N4       -11.2370  -39.4270   -8.8740 N.pl3 1001  CSF1001    -0.0921
     37  O2        -8.2050  -38.7540   -5.3830 O.2   1001  CSF1001    -0.1925
     38  O3A      -10.5400  -30.7060   -5.9950 O.3   1001  CSF1001    -0.4372
     39  C10       -7.9870  -30.9450  -13.0240 C.2   1001  CSF1001     0.2420
     40  O10       -6.7670  -30.7610  -13.2030 O.2   1001  CSF1001    -0.2733
     41  C11       -8.9450  -31.2420  -14.1790 C.3   1001  CSF1001     0.0964
     42  F3A       -5.7950  -30.2500   -8.5280 F     1001  CSF1001    -0.2285
@<TRIPOS>BOND
     1    41    39    1
     2    40    39    2
     3    39     8   am
     4     8     1    1
     5    14     9    1
     6     7     2    1
     7     1     2    1
     8     1     5    1
     9     9     5    1
    10     9    10    1
    11    11    10    1
    12    11    12    1
    13     2     6    1
    14     5     4    1
    15    10    13    1
    16    36    23    1
    17    42     6    1
    18     6     3    1
    19     4     3    1
    20    19    31    2
    21    23    24    1
    22    23    22    2
    23     3    18    1
    24     3    15    1
    25    24    25    2
    26    18    31    1
    27    22    21    2
    28    31    38    1
    29    31    32    1
    30    25    20    1
    31    15    17   ar
    32    15    16   ar
    33    21    20   am
    34    21    37    2
    35    32    33    1
    36    20    28    1
    37    27    28    1
    38    27    26    1
    39    27    35    1
    40    28    29    1
    41    26    30    1
    42    26    34    1
    43    33    30    1
    44    29    30    1
