@<TRIPOS>MOLECULE
2drz_GAL_A_1.pdb
 11 11 0 0 0
SMALL
GASTEIGER

@<TRIPOS>ATOM
      1  C1       -19.5330   -6.2840   24.0460 C.3   271  GAL271      0.1777
      2  C2       -18.4660   -6.5350   22.9780 C.3   271  GAL271      0.2141
      3  C3       -17.1180   -6.6920   23.6730 C.3   271  GAL271      0.2173
      4  C4       -16.8220   -5.4150   24.4480 C.3   271  GAL271      0.2142
      5  C5       -17.9350   -5.1840   25.4690 C.3   271  GAL271      0.1810
      6  C6       -17.7170   -3.8710   26.2060 C.3   271  GAL271      0.2141
      7  O2       -18.7790   -7.7320   22.2740 O.3   271  GAL271     -0.2176
      8  O3       -16.1070   -6.9150   22.7060 O.3   271  GAL271     -0.2175
      9  O4       -16.7430   -4.3120   23.5600 O.3   271  GAL271     -0.2176
     10  O5       -19.2120   -5.0920   24.7900 O.3   271  GAL271     -0.3481
     11  O6       -18.6810   -3.6730   27.2270 O.3   271  GAL271     -0.2176
@<TRIPOS>BOND
     1     7     2    1
     2     8     3    1
     3     2     3    1
     4     2     1    1
     5     9     4    1
     6     3     4    1
     7     1    10    1
     8     4     5    1
     9    10     5    1
    10     5     6    1
    11     6    11    1
