@<TRIPOS>MOLECULE
2ds0_GAL_A_1.pdb
 11 11 0 0 0
SMALL
GASTEIGER

@<TRIPOS>ATOM
      1  C1       -19.6260   -6.6670   23.2260 C.3   281  GAL281      0.1777
      2  C2       -18.6480   -6.8220   22.0600 C.3   281  GAL281      0.2141
      3  C3       -17.2410   -6.9750   22.6210 C.3   281  GAL281      0.2173
      4  C4       -16.9070   -5.7380   23.4590 C.3   281  GAL281      0.2142
      5  C5       -17.9420   -5.6340   24.5790 C.3   281  GAL281      0.1810
      6  C6       -17.7390   -4.4420   25.4800 C.3   281  GAL281      0.2141
      7  O2       -18.9860   -7.9850   21.3160 O.3   281  GAL281     -0.2176
      8  O3       -16.3120   -7.1160   21.5560 O.3   281  GAL281     -0.2175
      9  O4       -16.9540   -4.5680   22.6530 O.3   281  GAL281     -0.2176
     10  O5       -19.2710   -5.5240   24.0200 O.3   281  GAL281     -0.3481
     11  O6       -18.5500   -4.6010   26.6620 O.3   281  GAL281     -0.2176
@<TRIPOS>BOND
     1     7     2    1
     2     8     3    1
     3     2     3    1
     4     2     1    1
     5     3     4    1
     6     9     4    1
     7     1    10    1
     8     4     5    1
     9    10     5    1
    10     5     6    1
    11     6    11    1
