@<TRIPOS>MOLECULE
2ds0_SIA_A_1.pdb
 20 20 0 0 0
SMALL
GASTEIGER

@<TRIPOS>ATOM
      1  C1       -17.7750   -2.5970   27.6820 C.2   280  SIA280      0.3914
      2  C2       -18.9810   -3.4380   27.2740 C.3   280  SIA280      0.2203
      3  C3       -19.8280   -3.7790   28.5070 C.3   280  SIA280      0.0760
      4  C4       -20.3420   -2.4820   29.1280 C.3   280  SIA280      0.1773
      5  C5       -21.1690   -1.7390   28.0800 C.3   280  SIA280      0.1552
      6  C6       -20.2750   -1.4530   26.8680 C.3   280  SIA280      0.1710
      7  C7       -21.0520   -0.7120   25.7860 C.3   280  SIA280      0.2134
      8  C8       -20.1350   -0.3910   24.6090 C.3   280  SIA280      0.2173
      9  C9       -20.9130    0.3490   23.5270 C.3   280  SIA280      0.2175
     10  C10      -22.8300    0.0390   28.2930 C.2   280  SIA280      0.2420
     11  C11      -23.2200    1.3470   28.9630 C.3   280  SIA280      0.0964
     12  N5       -21.6630   -0.4960   28.6410 N.am  280  SIA280     -0.2020
     13  O1A      -17.1030   -2.9580   28.6670 O.co2 280  SIA280     -0.2430
     14  O1B      -17.4800   -1.5930   27.0000 O.co2 280  SIA280     -0.2430
     15  O4       -21.1480   -2.7790   30.2570 O.3   280  SIA280     -0.2211
     16  O6       -19.7650   -2.6950   26.3260 O.3   280  SIA280     -0.3429
     17  O7       -22.1310   -1.5220   25.3400 O.3   280  SIA280     -0.2176
     18  O8       -19.0530    0.4130   25.0530 O.3   280  SIA280     -0.2175
     19  O9       -20.0520    0.6410   22.4360 O.3   280  SIA280     -0.2175
     20  O10      -23.5840   -0.4740   27.4650 O.2   280  SIA280     -0.2733
@<TRIPOS>BOND
     1    19     9    1
     2     9     8    1
     3     8    18    1
     4     8     7    1
     5    17     7    1
     6     7     6    1
     7    16     6    1
     8    16     2    1
     9     6     5    1
    10    14     1   ar
    11     2     1    1
    12     2     3    1
    13    20    10    2
    14     1    13   ar
    15     5    12    1
    16     5     4    1
    17    10    12   am
    18    10    11    1
    19     3     4    1
    20     4    15    1
