@<TRIPOS>MOLECULE
2ds1_1CD_A_1.pdb
 30 35 0 0 0
SMALL
GASTEIGER

@<TRIPOS>ATOM
      1  C1        -6.7810   10.0080   12.8240 C.3   501  1CD501      0.0175
      2  N2        -6.9360    8.2690   14.5930 N.3   501  1CD501     -0.2693
      3  C3        -7.6640    6.9900   14.3740 C.3   501  1CD501      0.1162
      4  C4        -8.1390    7.0520   12.9180 C.3   501  1CD501      0.1832
      5  C5        -6.7440    7.4970   12.5030 C.3   501  1CD501      0.0609
      6  C6        -6.2410    8.6700   13.3410 C.3   501  1CD501      0.0613
      7  C7       -10.4200    9.5770   11.5360 C.ar  501  1CD501      0.1959
      8  C8        -9.7580    8.2790   11.5480 C.ar  501  1CD501      0.1704
      9  C9       -11.2410    9.9780   10.3760 C.ar  501  1CD501      0.1768
     10  N10      -10.2140   10.3950   12.6260 N.2   501  1CD501     -0.3871
     11  C11       -9.8580    7.3430   10.4130 C.ar  501  1CD501      0.0397
     12  O12       -9.1010    8.0920   12.7620 O.3   501  1CD501     -0.4750
     13  C13      -11.3400    9.0350    9.2620 C.ar  501  1CD501      0.0359
     14  N14      -11.7780   11.2250   10.5350 N.2   501  1CD501     -0.3284
     15  C15      -10.6960   11.6760   12.8380 C.2   501  1CD501      0.2118
     16  C16      -10.6590    7.7260    9.2510 C.ar  501  1CD501      0.0059
     17  C17      -11.5920   12.0950   11.6420 C.1   501  1CD501      0.2316
     18  C18      -10.1150   12.5160   13.9300 C.3   501  1CD501      0.1286
     19  O19      -12.1290   13.1970   11.7080 O.2   501  1CD501     -0.2070
     20  C20       -9.1810   11.8710   14.9830 C.2   501  1CD501      0.0921
     21  C21      -10.2300   13.9710   13.8410 C.2   501  1CD501     -0.0126
     22  C22       -8.3650   12.7480   15.8740 C.2   501  1CD501      0.0710
     23  N23       -8.7960   10.6110   15.3440 N.2   501  1CD501     -0.1789
     24  C24       -9.4210   14.7740   14.7440 C.2   501  1CD501     -0.0036
     25  C25       -7.5560   11.8010   16.6560 C.2   501  1CD501      0.2690
     26  C26       -8.5010   14.2040   15.7380 C.2   501  1CD501      0.0055
     27  N27       -7.8330   10.4980   16.3140 N.am  501  1CD501     -0.1761
     28  C28       -7.2100    9.2910   16.8760 C.3   501  1CD501      0.1368
     29  O29       -6.7310   12.1390   17.5080 O.2   501  1CD501     -0.2681
     30  C30       -6.2780    8.6110   15.8740 C.3   501  1CD501      0.0961
@<TRIPOS>BOND
     1    16    13   ar
     2    16    11   ar
     3    13     9   ar
     4     9    14    2
     5     9     7   ar
     6    11     8   ar
     7    14    17    2
     8     7     8   ar
     9     7    10    2
    10     8    12    1
    11    17    19    2
    12    17    15    1
    13     5     4    1
    14     5     6    1
    15    10    15    2
    16    12     4    1
    17     1     6    1
    18    15    18    1
    19     4     3    1
    20     6     2    1
    21    21    18    1
    22    21    24    2
    23    18    20    1
    24     3     2    1
    25     2    30    1
    26    24    26    1
    27    20    23    2
    28    20    22    1
    29    23    27    1
    30    26    22    2
    31    22    25    1
    32    30    28    1
    33    27    25   am
    34    27    28    1
    35    25    29    2
