@<TRIPOS>MOLECULE
2ds8_III_P_1.pdb
 48 47 0 0 0
SMALL
GASTEIGER

@<TRIPOS>ATOM
      1  N         -3.5920   21.4760  -11.6870 N.3   160  ALA160     -0.1231
      2  CA        -2.8670   21.7040  -12.9660 C.3   160  ALA160      0.1694
      3  C         -1.9830   20.5110  -13.3240 C.2   160  ALA160      0.2592
      4  O         -1.4470   19.8250  -12.4510 O.2   160  ALA160     -0.2718
      5  CB        -2.0240   22.9740  -12.8670 C.3   160  ALA160      0.0304
      6  N         -1.8440   20.2660  -14.6200 N.am  161  LEU161     -0.1966
      7  CA        -1.0240   19.1690  -15.1130 C.3   161  LEU161      0.1728
      8  C         -0.1340   19.7120  -16.2130 C.2   161  LEU161      0.2616
      9  O         -0.4410   20.7360  -16.8250 O.2   161  LEU161     -0.2715
     10  CB        -1.9050   18.0530  -15.6870 C.3   161  LEU161      0.0311
     11  CG        -2.8220   17.3030  -14.7210 C.3   161  LEU161      0.0022
     12  CD1       -3.7740   16.4120  -15.5080 C.3   161  LEU161      0.0001
     13  CD2       -1.9840   16.4800  -13.7520 C.3   161  LEU161      0.0001
     14  N          0.9780   19.0340  -16.4580 N.am  162  ARG162     -0.1963
     15  CA         1.8790   19.4520  -17.5140 C.3   162  ARG162      0.1729
     16  C          2.3500   18.2270  -18.2690 C.2   162  ARG162      0.2616
     17  O          2.4380   17.1320  -17.7110 O.2   162  ARG162     -0.2715
     18  CB         3.0760   20.2290  -16.9490 C.3   162  ARG162      0.0348
     19  CG         4.0510   19.4320  -16.0980 C.3   162  ARG162      0.0492
     20  CD         5.1240   20.3630  -15.5300 C.3   162  ARG162      0.2205
     21  NE         6.0130   19.7060  -14.5750 N.pl3 162  ARG162     -0.0865
     22  CZ         7.2080   19.2080  -14.8760 C.cat 162  ARG162      0.5346
     23  NH1        7.6750   19.2870  -16.1150 N.pl3 162  ARG162      0.1354
     24  NH2        7.9440   18.6390  -13.9300 N.pl3 162  ARG162      0.1354
     25  N          2.6190   18.4130  -19.5530 N.am  163  VAL163     -0.1963
     26  CA         3.0930   17.3240  -20.3880 C.3   163  VAL163      0.1727
     27  C          4.6140   17.3230  -20.3710 C.2   163  VAL163      0.2616
     28  O          5.2510   18.3110  -20.7400 O.2   163  VAL163     -0.2715
     29  CB         2.6050   17.4840  -21.8460 C.3   163  VAL163      0.0290
     30  CG1        3.1710   16.3660  -22.7120 C.3   163  VAL163      0.0023
     31  CG2        1.0850   17.4600  -21.8890 C.3   163  VAL163      0.0023
     32  N          5.1970   16.2180  -19.9190 N.am  164  VAL164     -0.1963
     33  CA         6.6450   16.0930  -19.8790 C.3   164  VAL164      0.1727
     34  C          7.0610   15.4940  -21.2140 C.2   164  VAL164      0.2617
     35  O          8.0590   15.9010  -21.8120 O.2   164  VAL164     -0.2715
     36  CB         7.0970   15.1660  -18.7360 C.3   164  VAL164      0.0290
     37  CG1        8.6070   14.9960  -18.7690 C.3   164  VAL164      0.0023
     38  CG2        6.6640   15.7470  -17.3990 C.3   164  VAL164      0.0023
     39  N          6.2710   14.5290  -21.6740 N.am  165  LYS165     -0.1942
     40  CA         6.5050   13.8520  -22.9450 C.3   165  LYS165      0.1978
     41  C          5.1650   13.5100  -23.5830 C.2   165  LYS165      0.3842
     42  O          4.9750   13.8370  -24.7730 O.co2 165  LYS165     -0.2437
     43  CB         7.3160   12.5700  -22.7330 C.3   165  LYS165      0.0333
     44  CG         7.5360   11.7710  -24.0070 C.3   165  LYS165      0.0039
     45  CD         8.4600   10.5880  -23.7760 C.3   165  LYS165      0.0206
     46  CE         8.6410    9.7840  -25.0490 C.3   165  LYS165      0.1093
     47  NZ         9.6090    8.6730  -24.8630 N.3   165  LYS165     -0.1314
     48  OXT        4.3190   12.9150  -22.8810 O.co2 165  LYS165     -0.2437
@<TRIPOS>BOND
     1    46    47    1
     2    46    45    1
     3    42    41   ar
     4    44    45    1
     5    44    43    1
     6    41    40    1
     7    41    48   ar
     8    40    43    1
     9    40    39    1
    10    30    29    1
    11    31    29    1
    12    29    26    1
    13    35    34    2
    14    39    34   am
    15    34    33    1
    16    28    27    2
    17    26    27    1
    18    26    25    1
    19    27    32   am
    20    32    33    1
    21    33    36    1
    22    25    16   am
    23    37    36    1
    24    36    38    1
    25    16    17    2
    26    16    15    1
    27    15    18    1
    28    15    14    1
    29    18    19    1
    30     9     8    2
    31    14     8   am
    32     8     7    1
    33    23    22    1
    34    19    20    1
    35    10     7    1
    36    10    11    1
    37    20    21    1
    38    12    11    1
    39     7     6    1
    40    22    21    2
    41    22    24    1
    42    11    13    1
    43     6     3   am
    44     3     2    1
    45     3     4    2
    46     2     5    1
    47     2     1    1
