@<TRIPOS>MOLECULE
2ds9_MAN_A_1.pdb
 11 11 0 0 0
SMALL
GASTEIGER

@<TRIPOS>ATOM
      1  C1        20.7520    2.0880   -6.5990 C.3     9  MAN9        0.1777
      2  C2        19.9960    1.0400   -5.7750 C.3     9  MAN9        0.2141
      3  C3        20.6200   -0.3570   -5.7460 C.3     9  MAN9        0.2173
      4  C4        21.8160   -0.5610   -6.6790 C.3     9  MAN9        0.2142
      5  C5        21.6950    0.2620   -7.9730 C.3     9  MAN9        0.1810
      6  C6        20.7730   -0.3940   -9.0000 C.3     9  MAN9        0.2141
      7  O2        18.6780    0.9430   -6.2770 O.3     9  MAN9       -0.2176
      8  O3        19.6270   -1.3080   -6.0680 O.3     9  MAN9       -0.2175
      9  O4        23.0400   -0.3600   -5.9660 O.3     9  MAN9       -0.2176
     10  O5        21.2580    1.6070   -7.8280 O.3     9  MAN9       -0.3481
     11  O6        19.9340    0.5760   -9.5950 O.3     9  MAN9       -0.2176
@<TRIPOS>BOND
     1    11     6    1
     2     6     5    1
     3     5    10    1
     4     5     4    1
     5    10     1    1
     6     4     9    1
     7     4     3    1
     8     1     2    1
     9     7     2    1
    10     8     3    1
    11     2     3    1
