@<TRIPOS>MOLECULE
2dsa_GSH_A_1.pdb
 20 19 0 0 0
SMALL
GASTEIGER

@<TRIPOS>ATOM
      1  N1        31.2490   12.8080   -1.2190 N.3   1224  GSH1224    -0.1208
      2  CA1       32.3450   13.4550   -1.9520 C.3   1224  GSH1224     0.1948
      3  C1        32.0020   14.8820   -2.2810 C.2   1224  GSH1224     0.3819
      4  O11       30.8290   15.1880   -2.6070 O.co2 1224  GSH1224    -0.2441
      5  O12       32.8870   15.7770   -2.2570 O.co2 1224  GSH1224    -0.2441
      6  CB1       32.6830   12.7590   -3.2660 C.3   1224  GSH1224     0.0402
      7  CG1       33.9590   13.3560   -3.8810 C.3   1224  GSH1224     0.0889
      8  CD1       34.4440   12.4790   -5.0020 C.2   1224  GSH1224     0.2418
      9  OE1       33.6750   11.3640   -5.3160 O.2   1224  GSH1224    -0.2733
     10  N2        35.5710   12.8140   -5.6370 N.am  1224  GSH1224    -0.1968
     11  CA2       36.1830   12.0380   -6.7040 C.3   1224  GSH1224     0.1843
     12  C2        37.5050   11.4720   -6.2940 C.2   1224  GSH1224     0.2627
     13  O2        38.4500   12.2730   -5.6590 O.2   1224  GSH1224    -0.2714
     14  CB2       36.4070   12.8790   -7.9610 C.3   1224  GSH1224     0.0997
     15  SG2       34.8300   13.4500   -8.6230 S.3   1224  GSH1224    -0.0797
     16  N3        37.7320   10.2010   -6.5620 N.am  1224  GSH1224    -0.1917
     17  CA3       37.6550    9.1890   -5.5190 C.3   1224  GSH1224     0.2285
     18  C3        39.0260    8.6280   -5.3420 C.2   1224  GSH1224     0.3865
     19  O31       39.9620    9.1950   -5.9520 O.co2 1224  GSH1224    -0.2437
     20  O32       39.2380    7.6330   -4.6120 O.co2 1224  GSH1224    -0.2437
@<TRIPOS>BOND
     1    15    14    1
     2    14    11    1
     3    11    12    1
     4    11    10    1
     5    16    12   am
     6    16    17    1
     7    12    13    2
     8    19    18   ar
     9    10     8   am
    10    17    18    1
    11    18    20   ar
    12     9     8    2
    13     8     7    1
    14     7     6    1
    15     6     2    1
    16     4     3   ar
    17     3     5   ar
    18     3     2    1
    19     2     1    1
