@<TRIPOS>MOLECULE
2dsa_HPX_A_1.pdb
 16 16 0 0 0
SMALL
GASTEIGER

@<TRIPOS>ATOM
      1  CB3       37.9540   14.3250  -16.4150 C.ar  1225  HPX1225     0.0001
      2  CB4       36.8230   14.1160  -17.2000 C.ar  1225  HPX1225     0.0000
      3  CB5       35.7150   13.4540  -16.6650 C.ar  1225  HPX1225     0.0001
      4  CB6       35.7460   13.0130  -15.3450 C.ar  1225  HPX1225     0.0032
      5  CB1       36.8730   13.2230  -14.5620 C.ar  1225  HPX1225     0.0390
      6  CB2       37.9780   13.8780  -15.0980 C.ar  1225  HPX1225     0.0032
      7  CA6       36.9160   12.7380  -13.1450 C.2   1225  HPX1225     0.1956
      8  OA4       38.0010   12.5470  -12.6150 O.2   1225  HPX1225    -0.2866
      9  CA5       35.6840   12.4780  -12.3790 C.2   1225  HPX1225     0.0421
     10  CA4       35.6630   11.3980  -11.6080 C.2   1225  HPX1225     0.0068
     11  CA3       34.4910   11.0560  -10.7880 C.2   1225  HPX1225     0.0491
     12  CA2       34.5750   10.1670   -9.7900 C.2   1225  HPX1225     0.2747
     13  OA3       35.6920    9.5210   -9.4760 O.2   1225  HPX1225    -0.2795
     14  CA1       33.3950    9.8890   -9.0090 C.2   1225  HPX1225     0.4260
     15  OA2       33.5160    9.2380   -7.9490 O.co2 1225  HPX1225    -0.2369
     16  OA1       32.3050   10.3240   -9.4250 O.co2 1225  HPX1225    -0.2369
@<TRIPOS>BOND
     1     2     3   ar
     2     2     1   ar
     3     3     4   ar
     4     1     6   ar
     5     4     5   ar
     6     6     5   ar
     7     5     7    1
     8     7     8    2
     9     7     9    1
    10     9    10    2
    11    10    11    1
    12    11    12    2
    13    12    13    1
    14    12    14    1
    15    16    14   ar
    16    14    15   ar
