@<TRIPOS>MOLECULE
2dsc_APR_A_1.pdb
 36 39 0 0 0
SMALL
GASTEIGER

@<TRIPOS>ATOM
      1  N1       -18.7840   24.2420   78.6970 N.2   402  APR402      0.0021
      2  C2       -20.0560   24.7890   79.2520 C.3   402  APR402      0.5254
      3  N3       -21.1870   23.8490   79.0850 N.2   402  APR402     -0.0055
      4  C4       -21.0430   22.5830   78.4630 C.2   402  APR402      0.3518
      5  C5       -19.8080   22.1500   77.9690 C.2   402  APR402      0.2526
      6  C6       -18.6800   22.9770   78.0850 C.2   402  APR402      0.4393
      7  N6       -17.4980   22.5750   77.6180 N.pl3 402  APR402      0.2180
      8  N7       -19.9990   20.9260   77.4490 N.2   402  APR402     -0.2095
      9  C8       -21.2780   20.6050   77.6060 C.3   402  APR402      0.3377
     10  N9       -21.9290   21.6040   78.2200 N.pl3 402  APR402     -0.1439
     11  C1'      -23.3910   21.6520   78.5890 C.3   402  APR402      0.3186
     12  C2'      -24.0910   22.7670   77.7960 C.3   402  APR402      0.2570
     13  O2'      -25.2300   23.2320   78.5380 O.3   402  APR402     -0.2130
     14  C3'      -24.4520   22.0110   76.5180 C.3   402  APR402      0.2184
     15  O3'      -25.4620   22.7130   75.8080 O.3   402  APR402     -0.2174
     16  O4'      -24.0900   20.4290   78.2150 O.3   402  APR402     -0.3135
     17  C4'      -24.9490   20.6910   77.0880 C.3   402  APR402      0.1821
     18  C5'      -24.8840   19.5320   76.0670 C.3   402  APR402      0.1813
     19  O5'      -25.6930   19.7790   74.8900 O.3   402  APR402     -0.3112
     20  PA       -25.7470   18.6560   73.7190 P.3   402  APR402      0.2189
     21  O1A      -26.5850   19.1340   72.5870 O.2   402  APR402     -0.5170
     22  O2A      -26.2210   17.3920   74.3340 O.3   402  APR402     -0.4371
     23  O3A      -24.1820   18.4480   73.3240 O.3   402  APR402     -0.2703
     24  PB       -23.3260   19.3010   72.2400 P.3   402  APR402      0.2189
     25  O1B      -22.8040   20.5420   72.8280 O.3   402  APR402     -0.4371
     26  O2B      -24.1470   19.4480   70.9980 O.2   402  APR402     -0.5170
     27  O5D      -22.1080   18.3130   71.9940 O.3   402  APR402     -0.3112
     28  C5D      -22.2880   17.1220   71.2450 C.3   402  APR402      0.1813
     29  O4D      -20.8450   18.1000   69.6270 O.3   402  APR402     -0.3237
     30  O1D      -18.6140   18.4460   69.0190 O.3   402  APR402     -0.1869
     31  C1D      -19.6140   18.7700   70.0060 C.3   402  APR402      0.3023
     32  O2D      -17.8450   18.4000   71.7020 O.3   402  APR402     -0.2148
     33  C2D      -19.2600   18.2720   71.4270 C.3   402  APR402      0.2433
     34  O3D      -18.8260   15.9030   70.8340 O.3   402  APR402     -0.2175
     35  C3D      -19.8010   16.8250   71.3790 C.3   402  APR402      0.2168
     36  C4D      -21.0190   16.9060   70.4570 C.3   402  APR402      0.1807
@<TRIPOS>BOND
     1    30    31    1
     2    29    31    1
     3    29    36    1
     4    31    33    1
     5    36    28    1
     6    36    35    1
     7    34    35    1
     8    26    24    2
     9    28    27    1
    10    35    33    1
    11    33    32    1
    12    27    24    1
    13    24    25    1
    14    24    23    1
    15    21    20    2
    16    23    20    1
    17    20    22    1
    18    20    19    1
    19    19    18    1
    20    15    14    1
    21    18    17    1
    22    14    17    1
    23    14    12    1
    24    17    16    1
    25     8     9    1
    26     8     5    2
    27     9    10    1
    28     7     6    1
    29    12    13    1
    30    12    11    1
    31     5     6    1
    32     5     4    1
    33     6     1    2
    34    16    11    1
    35    10     4    1
    36    10    11    1
    37     4     3    2
    38     1     2    1
    39     3     2    1
