@<TRIPOS>MOLECULE
2dsd_AMP_A_1.pdb
 23 25 0 0 0
SMALL
GASTEIGER

@<TRIPOS>ATOM
      1  P          1.2390   13.4750   63.7000 P.3   401  AMP401      0.5327
      2  O1P        2.1060   13.9190   62.5560 O.2   401  AMP401     -0.2224
      3  O2P        0.4660   12.0400   63.4110 O.3   401  AMP401     -0.1145
      4  O3P        0.0630   14.5530   64.0420 O.3   401  AMP401     -0.1145
      5  O5'        2.1220   13.3350   65.0530 O.3   401  AMP401     -0.2675
      6  C5'        2.0460   14.3620   66.0380 C.3   401  AMP401      0.1860
      7  C4'        2.9340   14.1280   67.2570 C.3   401  AMP401      0.1823
      8  O4'        2.8030   15.2420   68.1820 O.3   401  AMP401     -0.3135
      9  C3'        2.5610   12.8950   68.1030 C.3   401  AMP401      0.2184
     10  O3'        3.1080   11.6980   67.4620 O.3   401  AMP401     -0.2174
     11  C2'        3.2340   13.2690   69.4590 C.3   401  AMP401      0.2570
     12  O2'        4.6330   12.9040   69.5320 O.3   401  AMP401     -0.2130
     13  C1'        2.9950   14.7930   69.5310 C.3   401  AMP401      0.3186
     14  N9         1.7400   15.0860   70.2830 N.pl3 401  AMP401     -0.1439
     15  C8         0.5950   15.6370   69.7900 C.3   401  AMP401      0.3377
     16  N7        -0.3130   15.7500   70.7690 N.2   401  AMP401     -0.2095
     17  C5         0.2350   15.2680   71.9000 C.2   401  AMP401      0.2526
     18  C6        -0.2420   15.1110   73.2340 C.2   401  AMP401      0.4393
     19  N6        -1.5020   15.5010   73.5390 N.pl3 401  AMP401      0.2180
     20  N1         0.5810   14.5500   74.2360 N.2   401  AMP401      0.0021
     21  C2         1.9870   14.0880   73.9910 C.3   401  AMP401      0.5254
     22  N3         2.4040   14.2850   72.5770 N.2   401  AMP401     -0.0055
     23  C4         1.5400   14.8460   71.5960 C.2   401  AMP401      0.3518
@<TRIPOS>BOND
     1     2     1    2
     2     3     1    1
     3     1     4    1
     4     1     5    1
     5     5     6    1
     6     6     7    1
     7     7     9    1
     8     7     8    1
     9    10     9    1
    10     9    11    1
    11     8    13    1
    12    11    13    1
    13    11    12    1
    14    13    14    1
    15    15    14    1
    16    15    16    1
    17    14    23    1
    18    16    17    2
    19    23    17    1
    20    23    22    2
    21    17    18    1
    22    22    21    1
    23    18    19    1
    24    18    20    2
    25    21    20    1
