@<TRIPOS>MOLECULE
2dsf_LXC_A_1.pdb
 10 10 0 0 0
SMALL
GASTEIGER

@<TRIPOS>ATOM
      1  C5         8.7290   19.4300   15.6290 C.3   3937  LXC3937     0.2496
      2  O5        10.0640   19.2230   16.1130 O.3   3937  LXC3937    -0.4399
      3  C1        10.2530   19.3740   17.4870 C.2   3937  LXC3937     0.3839
      4  O1        11.5290   19.6630   18.0270 O.2   3937  LXC3937    -0.2412
      5  C2         9.1910   19.0220   18.4750 C.2   3937  LXC3937     0.3074
      6  O2         9.3970   18.9860   19.8650 O.2   3937  LXC3937    -0.2764
      7  C3         7.8500   18.6640   17.9620 C.2   3937  LXC3937     0.2521
      8  O3         6.9430   18.0260   18.8440 O.2   3937  LXC3937    -0.2849
      9  C4         7.6870   18.6950   16.4730 C.3   3937  LXC3937     0.2598
     10  O4         6.4360   18.4050   15.9330 O.3   3937  LXC3937    -0.2106
@<TRIPOS>BOND
     1     1     2    1
     2     1     9    1
     3    10     9    1
     4     2     3    1
     5     9     7    1
     6     3     4    2
     7     3     5    1
     8     7     5    2
     9     7     8    1
    10     5     6    1
