@<TRIPOS>MOLECULE
2dsg_SAH_A_1.pdb
 26 28 0 0 0
SMALL
GASTEIGER

@<TRIPOS>ATOM
      1  N         33.7750   92.9760   66.1500 N.3   1300  SAH1300    -0.1208
      2  CA        32.3340   92.5070   65.9450 C.3   1300  SAH1300     0.1952
      3  CB        31.6800   91.7650   67.0750 C.3   1300  SAH1300     0.0422
      4  CG        32.3270   90.4950   67.6050 C.3   1300  SAH1300     0.0597
      5  SD        31.1660   89.7730   68.8380 S.3   1300  SAH1300    -0.1375
      6  C         31.4900   93.7940   65.5690 C.2   1300  SAH1300     0.3819
      7  O         32.0730   94.8920   65.5210 O.co2 1300  SAH1300    -0.2441
      8  OXT       30.2220   93.6100   65.3310 O.co2 1300  SAH1300    -0.2441
      9  C5'       30.2580   88.6920   67.8080 C.3   1300  SAH1300     0.0899
     10  C4'       28.7750   88.5890   68.3440 C.3   1300  SAH1300     0.1630
     11  O4'       28.1530   89.8790   68.1430 O.3   1300  SAH1300    -0.3153
     12  C3'       27.9160   87.5860   67.6550 C.3   1300  SAH1300     0.2168
     13  O3'       28.0440   86.3100   68.2730 O.3   1300  SAH1300    -0.2175
     14  C2'       26.5180   88.2340   67.7830 C.3   1300  SAH1300     0.2569
     15  O2'       25.9080   87.9400   69.0410 O.3   1300  SAH1300    -0.2130
     16  C1'       26.7850   89.7330   67.5530 C.3   1300  SAH1300     0.3185
     17  N9        26.7680   90.1150   66.2560 N.pl3 1300  SAH1300    -0.1439
     18  C8        27.7350   90.4380   65.3170 C.3   1300  SAH1300     0.3377
     19  N7        27.2810   90.7690   64.1470 N.2   1300  SAH1300    -0.2095
     20  C5        25.8640   90.6720   64.2760 C.2   1300  SAH1300     0.2526
     21  C6        24.7950   90.9140   63.3350 C.2   1300  SAH1300     0.4393
     22  N6        24.9860   91.3030   62.0660 N.pl3 1300  SAH1300     0.2180
     23  N1        23.5260   90.7120   63.8350 N.2   1300  SAH1300     0.0021
     24  C2        23.2780   90.3150   65.1150 C.3   1300  SAH1300     0.5254
     25  N3        24.2710   90.0770   66.0390 N.2   1300  SAH1300    -0.0055
     26  C4        25.5340   90.2750   65.5500 C.2   1300  SAH1300     0.3518
@<TRIPOS>BOND
     1    22    21    1
     2    21    23    2
     3    21    20    1
     4    23    24    1
     5    19    20    2
     6    19    18    1
     7    20    26    1
     8    24    25    1
     9    18    17    1
    10     8     6   ar
    11     7     6   ar
    12    26    25    2
    13    26    17    1
    14     6     2    1
    15     2     1    1
    16     2     3    1
    17    17    16    1
    18     3     4    1
    19    16    14    1
    20    16    11    1
    21     4     5    1
    22    12    14    1
    23    12    13    1
    24    12    10    1
    25    14    15    1
    26     9    10    1
    27     9     5    1
    28    11    10    1
