@<TRIPOS>MOLECULE
2dsh_SAH_A_1.pdb
 26 28 0 0 0
SMALL
GASTEIGER

@<TRIPOS>ATOM
      1  N         33.5280   92.4080   65.0810 N.3   1300  SAH1300    -0.1208
      2  CA        32.0770   91.9410   64.9560 C.3   1300  SAH1300     0.1952
      3  CB        31.4770   91.2340   66.1390 C.3   1300  SAH1300     0.0422
      4  CG        32.1500   89.9800   66.6790 C.3   1300  SAH1300     0.0597
      5  SD        30.9930   89.2370   67.9060 S.3   1300  SAH1300    -0.1375
      6  C         31.2130   93.2230   64.5760 C.2   1300  SAH1300     0.3819
      7  O         31.7890   94.3190   64.4650 O.co2 1300  SAH1300    -0.2441
      8  OXT       29.9420   93.0370   64.3990 O.co2 1300  SAH1300    -0.2441
      9  C5'       30.0340   88.2340   66.8460 C.3   1300  SAH1300     0.0899
     10  C4'       28.5800   88.0750   67.4370 C.3   1300  SAH1300     0.1630
     11  O4'       27.8960   89.3410   67.2510 O.3   1300  SAH1300    -0.3153
     12  C3'       27.7520   87.0270   66.7750 C.3   1300  SAH1300     0.2168
     13  O3'       27.9210   85.7680   67.4180 O.3   1300  SAH1300    -0.2175
     14  C2'       26.3250   87.6290   66.8700 C.3   1300  SAH1300     0.2569
     15  O2'       25.6870   87.3140   68.1070 O.3   1300  SAH1300    -0.2130
     16  C1'       26.5420   89.1390   66.6460 C.3   1300  SAH1300     0.3185
     17  N9        26.5170   89.5210   65.3480 N.pl3 1300  SAH1300    -0.1439
     18  C8        27.4780   89.8230   64.3940 C.3   1300  SAH1300     0.3377
     19  N7        27.0110   90.1610   63.2280 N.2   1300  SAH1300    -0.2095
     20  C5        25.5920   90.0900   63.3810 C.2   1300  SAH1300     0.2526
     21  C6        24.5130   90.3490   62.4540 C.2   1300  SAH1300     0.4393
     22  N6        24.6950   90.7280   61.1790 N.pl3 1300  SAH1300     0.2180
     23  N1        23.2470   90.1750   62.9740 N.2   1300  SAH1300     0.0021
     24  C2        23.0110   89.7870   64.2600 C.3   1300  SAH1300     0.5254
     25  N3        24.0150   89.5310   65.1680 N.2   1300  SAH1300    -0.0055
     26  C4        25.2740   89.7040   64.6590 C.2   1300  SAH1300     0.3518
@<TRIPOS>BOND
     1    22    21    1
     2    21    23    2
     3    21    20    1
     4    23    24    1
     5    19    20    2
     6    19    18    1
     7    20    26    1
     8    24    25    1
     9    18    17    1
    10     8     6   ar
    11     7     6   ar
    12     6     2    1
    13    26    25    2
    14    26    17    1
    15     2     1    1
    16     2     3    1
    17    17    16    1
    18     3     4    1
    19    16    14    1
    20    16    11    1
    21     4     5    1
    22    12    14    1
    23    12    13    1
    24    12    10    1
    25     9    10    1
    26     9     5    1
    27    14    15    1
    28    11    10    1
