@<TRIPOS>MOLECULE
2dsi_SAH_A_1.pdb
 26 28 0 0 0
SMALL
GASTEIGER

@<TRIPOS>ATOM
      1  N         33.8310   92.9940   66.4980 N.3   1300  SAH1300    -0.1208
      2  CA        32.3960   92.5020   66.3340 C.3   1300  SAH1300     0.1952
      3  CB        31.7640   91.7710   67.4800 C.3   1300  SAH1300     0.0422
      4  CG        32.4210   90.5230   68.0310 C.3   1300  SAH1300     0.0597
      5  SD        31.2240   89.7900   69.2170 S.3   1300  SAH1300    -0.1375
      6  C         31.5290   93.7680   65.9450 C.2   1300  SAH1300     0.3819
      7  O         32.0970   94.8760   65.8520 O.co2 1300  SAH1300    -0.2441
      8  OXT       30.2580   93.5570   65.7410 O.co2 1300  SAH1300    -0.2441
      9  C5'       30.3510   88.6970   68.1810 C.3   1300  SAH1300     0.0899
     10  C4'       28.8630   88.5850   68.7060 C.3   1300  SAH1300     0.1630
     11  O4'       28.2300   89.8600   68.4590 O.3   1300  SAH1300    -0.3153
     12  C3'       28.0310   87.5480   68.0400 C.3   1300  SAH1300     0.2168
     13  O3'       28.1580   86.2970   68.7150 O.3   1300  SAH1300    -0.2175
     14  C2'       26.6160   88.1810   68.1020 C.3   1300  SAH1300     0.2569
     15  O2'       25.9380   87.8800   69.3210 O.3   1300  SAH1300    -0.2130
     16  C1'       26.8620   89.6850   67.8860 C.3   1300  SAH1300     0.3185
     17  N9        26.8110   90.0750   66.5930 N.pl3 1300  SAH1300    -0.1439
     18  C8        27.7500   90.3980   65.6230 C.3   1300  SAH1300     0.3377
     19  N7        27.2520   90.7390   64.4700 N.2   1300  SAH1300    -0.2095
     20  C5        25.8370   90.6460   64.6510 C.2   1300  SAH1300     0.2526
     21  C6        24.7270   90.8950   63.7510 C.2   1300  SAH1300     0.4393
     22  N6        24.8610   91.2890   62.4770 N.pl3 1300  SAH1300     0.2180
     23  N1        23.4770   90.6930   64.3010 N.2   1300  SAH1300     0.0021
     24  C2        23.2790   90.2910   65.5880 C.3   1300  SAH1300     0.5254
     25  N3        24.3070   90.0450   66.4710 N.2   1300  SAH1300    -0.0055
     26  C4        25.5540   90.2440   65.9330 C.2   1300  SAH1300     0.3518
@<TRIPOS>BOND
     1    22    21    1
     2    21    23    2
     3    21    20    1
     4    23    24    1
     5    19    20    2
     6    19    18    1
     7    20    26    1
     8    24    25    1
     9    18    17    1
    10     8     6   ar
    11     7     6   ar
    12    26    25    2
    13    26    17    1
    14     6     2    1
    15     2     1    1
    16     2     3    1
    17    17    16    1
    18     3     4    1
    19    16    14    1
    20    16    11    1
    21     4     5    1
    22    12    14    1
    23    12    10    1
    24    12    13    1
    25    14    15    1
    26     9    10    1
    27     9     5    1
    28    11    10    1
