@<TRIPOS>MOLECULE
2dsu_NAG_A_1.pdb
 14 14 0 0 0
SMALL
GASTEIGER

@<TRIPOS>ATOM
      1  C1        13.5290   50.9900    7.4260 C.3   363  NAG363      0.1665
      2  C2        14.3060   51.6300    8.5400 C.3   363  NAG363      0.1576
      3  C3        13.2980   52.5040    9.3310 C.3   363  NAG363      0.2069
      4  C4        12.5770   53.5010    8.3490 C.3   363  NAG363      0.2134
      5  C5        12.2090   52.9020    6.9800 C.3   363  NAG363      0.1809
      6  C6        12.0690   54.0020    5.9440 C.3   363  NAG363      0.2141
      7  C7        14.8080   50.1810   10.5010 C.2   363  NAG363      0.2420
      8  C8        13.3740   50.1110   10.9920 C.3   363  NAG363      0.0964
      9  N2        15.0910   50.6450    9.2840 N.am  363  NAG363     -0.2019
     10  O3        14.0030   53.2410   10.3170 O.3   363  NAG363     -0.2184
     11  O4        11.3590   54.0700    8.9200 O.3   363  NAG363     -0.2176
     12  O5        13.2290   52.0140    6.4970 O.3   363  NAG363     -0.3489
     13  O6        11.3470   53.5560    4.8080 O.3   363  NAG363     -0.2176
     14  O7        15.6950   49.7510   11.2330 O.2   363  NAG363     -0.2733
@<TRIPOS>BOND
     1    13     6    1
     2     6     5    1
     3    12     5    1
     4    12     1    1
     5     5     4    1
     6     1     2    1
     7     4    11    1
     8     4     3    1
     9     2     9    1
    10     2     3    1
    11     9     7   am
    12     3    10    1
    13     7     8    1
    14     7    14    2
