@<TRIPOS>MOLECULE
2dsv_NAG_A_1.pdb
 14 14 0 0 0
SMALL
GASTEIGER

@<TRIPOS>ATOM
      1  C1        13.5030   50.8070    7.9230 C.3   363  NAG363      0.1665
      2  C2        14.3750   51.4990    8.9550 C.3   363  NAG363      0.1576
      3  C3        13.4910   52.3710    9.8440 C.3   363  NAG363      0.2069
      4  C4        12.5520   53.2360    8.9530 C.3   363  NAG363      0.2134
      5  C5        12.1150   52.7030    7.5850 C.3   363  NAG363      0.1809
      6  C6        12.0190   53.8610    6.6210 C.3   363  NAG363      0.2141
      7  C7        14.9610   49.7950   10.6810 C.2   363  NAG363      0.2420
      8  C8        13.5250   49.6890   11.1730 C.3   363  NAG363      0.0964
      9  N2        15.2850   50.5980    9.6620 N.am  363  NAG363     -0.2019
     10  O3        14.3350   53.2440   10.5870 O.3   363  NAG363     -0.2184
     11  O4        11.3530   53.6310    9.6460 O.3   363  NAG363     -0.2176
     12  O5        13.0700   51.8070    7.0160 O.3   363  NAG363     -0.3489
     13  O6        11.1440   53.5630    5.5480 O.3   363  NAG363     -0.2176
     14  O7        15.8260   49.1130   11.2420 O.2   363  NAG363     -0.2733
@<TRIPOS>BOND
     1    13     6    1
     2     6     5    1
     3    12     5    1
     4    12     1    1
     5     5     4    1
     6     1     2    1
     7     4    11    1
     8     4     3    1
     9     2     9    1
    10     2     3    1
    11     9     7   am
    12     3    10    1
    13     7     8    1
    14     7    14    2
