@<TRIPOS>MOLECULE
2dsw_NAG_A_1.pdb
 14 14 0 0 0
SMALL
GASTEIGER

@<TRIPOS>ATOM
      1  C1        13.2440   51.1500    7.5990 C.3   363  NAG363      0.1665
      2  C2        13.8820   51.8220    8.8480 C.3   363  NAG363      0.1576
      3  C3        13.1110   53.0790    9.3940 C.3   363  NAG363      0.2069
      4  C4        12.5000   53.9760    8.2890 C.3   363  NAG363      0.2134
      5  C5        11.8670   53.0370    7.2350 C.3   363  NAG363      0.1809
      6  C6        11.1390   53.7010    6.0840 C.3   363  NAG363      0.2141
      7  C7        15.1610   50.3020   10.1860 C.2   363  NAG363      0.2420
      8  C8        15.3140   49.5490   11.4930 C.3   363  NAG363      0.0964
      9  N2        13.9810   50.8420    9.9120 N.am  363  NAG363     -0.2019
     10  O3        13.9930   53.8670   10.1810 O.3   363  NAG363     -0.2184
     11  O4        11.4610   54.8530    8.8430 O.3   363  NAG363     -0.2176
     12  O5        12.8620   52.1620    6.6700 O.3   363  NAG363     -0.3489
     13  O6        12.0430   54.1380    5.0840 O.3   363  NAG363     -0.2176
     14  O7        16.1200   50.4010    9.4250 O.2   363  NAG363     -0.2733
@<TRIPOS>BOND
     1    13     6    1
     2     6     5    1
     3    12     5    1
     4    12     1    1
     5     5     4    1
     6     1     2    1
     7     4    11    1
     8     4     3    1
     9     2     3    1
    10     2     9    1
    11     3    10    1
    12    14     7    2
    13     9     7   am
    14     7     8    1
