@<TRIPOS>MOLECULE
2dsz_NAG_A_1.pdb
 14 14 0 0 0
SMALL
GASTEIGER

@<TRIPOS>ATOM
      1  C1        13.7120  -17.5740   46.7900 C.3   363  NAG363      0.1665
      2  C2        14.3180  -18.1860   45.5010 C.3   363  NAG363      0.1576
      3  C3        13.4770  -19.3820   45.0530 C.3   363  NAG363      0.2069
      4  C4        13.1020  -20.3460   46.1740 C.3   363  NAG363      0.2134
      5  C5        12.6290  -19.5640   47.3980 C.3   363  NAG363      0.1809
      6  C6        12.3180  -20.4340   48.5820 C.3   363  NAG363      0.2141
      7  C7        15.5140  -17.0270   43.7330 C.2   363  NAG363      0.2420
      8  C8        15.4930  -15.9430   42.6680 C.3   363  NAG363      0.0964
      9  N2        14.3900  -17.1930   44.4340 N.am  363  NAG363     -0.2019
     10  O3        14.1150  -20.0980   44.0130 O.3   363  NAG363     -0.2184
     11  O4        11.9470  -21.0280   45.6880 O.3   363  NAG363     -0.2176
     12  O5        13.5800  -18.5750   47.7970 O.3   363  NAG363     -0.3489
     13  O6        13.3240  -21.4180   48.7460 O.3   363  NAG363     -0.2176
     14  O7        16.5430  -17.6910   43.9190 O.2   363  NAG363     -0.2733
@<TRIPOS>BOND
     1     8     7    1
     2     7    14    2
     3     7     9   am
     4    10     3    1
     5     9     2    1
     6     3     2    1
     7     3     4    1
     8     2     1    1
     9    11     4    1
    10     4     5    1
    11     1    12    1
    12     5    12    1
    13     5     6    1
    14     6    13    1
