@<TRIPOS>MOLECULE
2dt0_NAG_A_1.pdb
 14 14 0 0 0
SMALL
GASTEIGER

@<TRIPOS>ATOM
      1  C1        13.0190  -18.0170   46.3130 C.3   363  NAG363      0.1665
      2  C2        13.5510  -18.6040   44.9820 C.3   363  NAG363      0.1576
      3  C3        12.7740  -19.8300   44.4720 C.3   363  NAG363      0.2069
      4  C4        12.4160  -20.8110   45.5770 C.3   363  NAG363      0.2134
      5  C5        11.8650  -20.0200   46.7530 C.3   363  NAG363      0.1809
      6  C6        11.3530  -20.8390   47.9190 C.3   363  NAG363      0.2141
      7  C7        14.6700  -17.2040   43.4430 C.2   363  NAG363      0.2420
      8  C8        14.6730  -16.3760   42.1760 C.3   363  NAG363      0.0964
      9  N2        13.5150  -17.5990   43.9460 N.am  363  NAG363     -0.2019
     10  O3        13.5390  -20.4950   43.4800 O.3   363  NAG363     -0.2184
     11  O4        11.3620  -21.6560   45.0980 O.3   363  NAG363     -0.2176
     12  O5        12.8440  -19.0910   47.2370 O.3   363  NAG363     -0.3489
     13  O6        12.3630  -21.6900   48.4330 O.3   363  NAG363     -0.2176
     14  O7        15.7280  -17.4950   43.9840 O.2   363  NAG363     -0.2733
@<TRIPOS>BOND
     1     8     7    1
     2     7     9   am
     3     7    14    2
     4    10     3    1
     5     9     2    1
     6     3     2    1
     7     3     4    1
     8     2     1    1
     9    11     4    1
    10     4     5    1
    11     1    12    1
    12     5    12    1
    13     5     6    1
    14     6    13    1
