@<TRIPOS>MOLECULE
2dt1_NAG_A_1.pdb
 14 14 0 0 0
SMALL
GASTEIGER

@<TRIPOS>ATOM
      1  C1        13.2650  -17.6340   46.2280 C.3   363  NAG363      0.1665
      2  C2        13.9780  -18.2470   45.0140 C.3   363  NAG363      0.1576
      3  C3        13.1560  -19.4170   44.4110 C.3   363  NAG363      0.2069
      4  C4        12.6560  -20.3980   45.5040 C.3   363  NAG363      0.2134
      5  C5        11.9640  -19.5780   46.5960 C.3   363  NAG363      0.1809
      6  C6        11.3830  -20.3700   47.7540 C.3   363  NAG363      0.2141
      7  C7        15.3770  -16.9690   43.5020 C.2   363  NAG363      0.2420
      8  C8        15.4440  -16.2400   42.1660 C.3   363  NAG363      0.0964
      9  N2        14.1710  -17.2140   44.0090 N.am  363  NAG363     -0.2019
     10  O3        13.9630  -20.1130   43.4740 O.3   363  NAG363     -0.2184
     11  O4        11.6790  -21.3030   44.9530 O.3   363  NAG363     -0.2176
     12  O5        12.8980  -18.6500   47.1570 O.3   363  NAG363     -0.3489
     13  O6        12.3170  -21.3280   48.2170 O.3   363  NAG363     -0.2176
     14  O7        16.4180  -17.3020   44.0650 O.2   363  NAG363     -0.2733
@<TRIPOS>BOND
     1     8     7    1
     2    10     3    1
     3     7     9   am
     4     7    14    2
     5     9     2    1
     6     3     2    1
     7     3     4    1
     8    11     4    1
     9     2     1    1
    10     4     5    1
    11     1    12    1
    12     5    12    1
    13     5     6    1
    14     6    13    1
