@<TRIPOS>MOLECULE
2dt2_NAG_A_1.pdb
 14 14 0 0 0
SMALL
GASTEIGER

@<TRIPOS>ATOM
      1  C1        13.1030  -17.6740   45.9740 C.3   363  NAG363      0.1665
      2  C2        14.0170  -18.2620   44.8470 C.3   363  NAG363      0.1576
      3  C3        13.4150  -19.4790   44.0510 C.3   363  NAG363      0.2069
      4  C4        12.6980  -20.5050   44.9700 C.3   363  NAG363      0.2134
      5  C5        11.9250  -19.6980   46.0380 C.3   363  NAG363      0.1809
      6  C6        11.1870  -20.6230   46.9270 C.3   363  NAG363      0.2141
      7  C7        15.4860  -16.7840   43.7620 C.2   363  NAG363      0.2420
      8  C8        15.7690  -15.6180   42.8380 C.3   363  NAG363      0.0964
      9  N2        14.2460  -17.2080   43.9000 N.am  363  NAG363     -0.2019
     10  O3        14.4620  -20.1390   43.3860 O.3   363  NAG363     -0.2184
     11  O4        11.6590  -21.2490   44.3520 O.3   363  NAG363     -0.2176
     12  O5        12.7510  -18.7810   46.8210 O.3   363  NAG363     -0.3489
     13  O6        12.1420  -21.2630   47.7340 O.3   363  NAG363     -0.2176
     14  O7        16.4150  -17.3220   44.3660 O.2   363  NAG363     -0.2733
@<TRIPOS>BOND
     1     8     7    1
     2    10     3    1
     3     7     9   am
     4     7    14    2
     5     9     2    1
     6     3     2    1
     7     3     4    1
     8    11     4    1
     9     2     1    1
    10     4     5    1
    11     1    12    1
    12     5    12    1
    13     5     6    1
    14     6    13    1
