@<TRIPOS>MOLECULE
2dt3_NAG_A_1.pdb
 14 14 0 0 0
SMALL
GASTEIGER

@<TRIPOS>ATOM
      1  C1        13.0520  -17.5970   45.6650 C.3   363  NAG363      0.1665
      2  C2        13.6980  -18.1850   44.4070 C.3   363  NAG363      0.1576
      3  C3        12.8980  -19.4230   43.8160 C.3   363  NAG363      0.2069
      4  C4        12.3840  -20.4040   44.9140 C.3   363  NAG363      0.2134
      5  C5        11.6930  -19.5360   45.9890 C.3   363  NAG363      0.1809
      6  C6        11.1840  -20.3360   47.1390 C.3   363  NAG363      0.2141
      7  C7        15.0340  -16.7940   42.9110 C.2   363  NAG363      0.2420
      8  C8        15.0220  -15.9260   41.6620 C.3   363  NAG363      0.0964
      9  N2        13.8470  -17.1020   43.4380 N.am  363  NAG363     -0.2019
     10  O3        13.8250  -20.1460   43.0260 O.3   363  NAG363     -0.2184
     11  O4        11.4890  -21.4600   44.3930 O.3   363  NAG363     -0.2176
     12  O5        12.6410  -18.6160   46.5660 O.3   363  NAG363     -0.3489
     13  O6        12.1930  -21.2380   47.5380 O.3   363  NAG363     -0.2176
     14  O7        16.1060  -17.1820   43.3790 O.2   363  NAG363     -0.2733
@<TRIPOS>BOND
     1     8     7    1
     2     7    14    2
     3     7     9   am
     4    10     3    1
     5     9     2    1
     6     3     2    1
     7     3     4    1
     8    11     4    1
     9     2     1    1
    10     4     5    1
    11     1    12    1
    12     5    12    1
    13     5     6    1
    14     6    13    1
