@<TRIPOS>MOLECULE
2dt5_NAD_A_1.pdb
 44 48 0 0 0
SMALL
GASTEIGER

@<TRIPOS>ATOM
      1  PA        32.1480   33.6900   28.0220 P.3   301  NAD301      0.2189
      2  O1A       32.2100   34.9800   27.2830 O.2   301  NAD301     -0.5170
      3  O2A       32.1100   33.6870   29.5000 O.3   301  NAD301     -0.4371
      4  O5B       30.9250   32.9070   27.4200 O.3   301  NAD301     -0.3112
      5  C5B       30.5030   31.5810   27.8570 C.3   301  NAD301      0.1813
      6  C4B       29.0250   31.4620   27.5320 C.3   301  NAD301      0.1821
      7  O4B       28.6340   30.1060   27.9880 O.3   301  NAD301     -0.3135
      8  C3B       28.1050   32.4280   28.3420 C.3   301  NAD301      0.2184
      9  O3B       27.2740   33.1620   27.4080 O.3   301  NAD301     -0.2174
     10  C2B       27.2780   31.5630   29.2680 C.3   301  NAD301      0.2570
     11  O2B       26.0130   32.0400   29.6170 O.3   301  NAD301     -0.2130
     12  C1B       27.3210   30.2180   28.4970 C.3   301  NAD301      0.3186
     13  N9A       27.1570   29.0620   29.3510 N.pl3 301  NAD301     -0.1439
     14  C8A       27.6660   28.7270   30.5990 C.3   301  NAD301      0.3377
     15  N7A       27.2670   27.5390   31.0280 N.2   301  NAD301     -0.2095
     16  C5A       26.4770   27.0210   30.0820 C.2   301  NAD301      0.2526
     17  C6A       25.7500   25.7570   29.9750 C.2   301  NAD301      0.4393
     18  N6A       25.7810   24.8410   30.9140 N.pl3 301  NAD301      0.2180
     19  N1A       25.0350   25.6030   28.8000 N.2   301  NAD301      0.0021
     20  C2A       24.9590   26.4950   27.8020 C.3   301  NAD301      0.5254
     21  N3A       25.6270   27.7180   27.8580 N.2   301  NAD301     -0.0055
     22  C4A       26.3810   27.9390   29.0150 C.2   301  NAD301      0.3518
     23  O3        33.4110   32.8310   27.5890 O.3   301  NAD301     -0.2703
     24  PN        34.3200   32.9250   26.2570 P.3   301  NAD301      0.2189
     25  O1N       35.3720   33.9680   26.4980 O.3   301  NAD301     -0.4371
     26  O2N       33.3370   33.0960   25.1260 O.2   301  NAD301     -0.5170
     27  O5D       35.0090   31.4760   26.2570 O.3   301  NAD301     -0.3112
     28  C5D       34.2040   30.2800   26.0080 C.3   301  NAD301      0.1813
     29  C4D       35.0630   29.0900   26.1170 C.3   301  NAD301      0.1799
     30  O4D       36.1610   29.2060   25.1120 O.3   301  NAD301     -0.3327
     31  C3D       35.8110   28.9350   27.5130 C.3   301  NAD301      0.2158
     32  O3D       35.9040   27.5370   27.9120 O.3   301  NAD301     -0.2175
     33  C2D       37.1730   29.5040   27.1920 C.3   301  NAD301      0.2309
     34  O2D       38.1700   29.2210   28.1210 O.3   301  NAD301     -0.2158
     35  C1D       37.3920   28.9090   25.7550 C.3   301  NAD301      0.2261
     36  N1N       38.5630   29.5220   25.0750 N.pl3 301  NAD301     -0.2831
     37  C2N       39.1820   28.6700   24.1330 C.2   301  NAD301      0.0633
     38  C3N       39.9340   29.0940   23.1400 C.2   301  NAD301      0.0490
     39  C7N       40.5870   28.0930   22.2280 C.2   301  NAD301      0.2814
     40  O7N       41.4840   28.5080   21.4670 O.2   301  NAD301     -0.2670
     41  N7N       40.2170   26.7860   22.2980 N.am  301  NAD301     -0.0839
     42  C4N       40.1890   30.5790   22.9100 C.3   301  NAD301      0.0341
     43  C5N       39.0380   31.3840   23.4650 C.3   301  NAD301      0.0264
     44  C6N       38.4730   30.9290   24.6940 C.3   301  NAD301      0.0934
@<TRIPOS>BOND
     1    40    39    2
     2    39    41   am
     3    39    38    1
     4    42    38    1
     5    42    43    1
     6    38    37    2
     7    43    44    1
     8    37    36    1
     9    44    36    1
    10    36    35    1
    11    30    35    1
    12    30    29    1
    13    26    24    2
    14    35    33    1
    15    28    29    1
    16    28    27    1
    17    29    31    1
    18    27    24    1
    19    24    25    1
    20    24    23    1
    21    33    31    1
    22    33    34    1
    23     2     1    2
    24     9     8    1
    25     4     5    1
    26     4     1    1
    27    31    32    1
    28     6     5    1
    29     6     7    1
    30     6     8    1
    31    23     1    1
    32    20    21    1
    33    20    19    1
    34    21    22    2
    35     7    12    1
    36     1     3    1
    37     8    10    1
    38    12    10    1
    39    12    13    1
    40    19    17    2
    41    22    13    1
    42    22    16    1
    43    10    11    1
    44    13    14    1
    45    17    16    1
    46    17    18    1
    47    16    15    2
    48    14    15    1
