@<TRIPOS>MOLECULE
2dte_NAI_A_1.pdb
 44 48 0 0 0
SMALL
GASTEIGER

@<TRIPOS>ATOM
      1  PA        36.9850  -24.0850   24.2120 P.3   271  NAI271      0.2189
      2  O1A       37.5010  -24.3700   22.8730 O.2   271  NAI271     -0.5170
      3  O2A       37.9430  -24.3440   25.3140 O.3   271  NAI271     -0.4371
      4  O5B       35.6990  -24.9730   24.5550 O.3   271  NAI271     -0.3112
      5  C5B       34.7500  -25.2460   23.4870 C.3   271  NAI271      0.1813
      6  C4B       33.8680  -26.4300   23.7800 C.3   271  NAI271      0.1821
      7  O4B       33.0530  -26.4920   22.5830 O.3   271  NAI271     -0.3135
      8  C3B       34.6160  -27.7730   23.8210 C.3   271  NAI271      0.2184
      9  O3B       34.1960  -28.4970   24.9960 O.3   271  NAI271     -0.2174
     10  C2B       34.2060  -28.4540   22.5070 C.3   271  NAI271      0.2570
     11  O2B       34.1520  -29.9000   22.6140 O.3   271  NAI271     -0.2130
     12  C1B       32.8650  -27.8310   22.2260 C.3   271  NAI271      0.3186
     13  N9A       32.5210  -27.8750   20.8140 N.pl3 271  NAI271     -0.1439
     14  C8A       33.1350  -27.2470   19.7390 C.3   271  NAI271      0.3377
     15  N7A       32.5450  -27.5010   18.5460 N.2   271  NAI271     -0.2095
     16  C5A       31.4840  -28.3500   18.9050 C.2   271  NAI271      0.2526
     17  C6A       30.4550  -28.9930   18.1190 C.2   271  NAI271      0.4393
     18  N6A       30.3530  -28.8620   16.7880 N.pl3 271  NAI271      0.2180
     19  N1A       29.5440  -29.7810   18.8240 N.2   271  NAI271      0.0021
     20  C2A       29.6580  -29.9130   20.1940 C.3   271  NAI271      0.5254
     21  N3A       30.5610  -29.3680   20.9940 N.2   271  NAI271     -0.0055
     22  C4A       31.4560  -28.5910   20.2980 C.2   271  NAI271      0.3518
     23  O3        36.4820  -22.5870   24.2330 O.3   271  NAI271     -0.2703
     24  PN        35.8820  -21.6280   25.3640 P.3   271  NAI271      0.2189
     25  O1N       36.8990  -20.5280   25.4330 O.2   271  NAI271     -0.5170
     26  O2N       35.7640  -22.3740   26.6260 O.3   271  NAI271     -0.4371
     27  O5D       34.5710  -20.9050   24.8600 O.3   271  NAI271     -0.3112
     28  C5D       33.2800  -21.3730   25.2720 C.3   271  NAI271      0.1813
     29  C4D       32.2570  -20.4020   24.7180 C.3   271  NAI271      0.1799
     30  O4D       32.5650  -19.0910   25.2910 O.3   271  NAI271     -0.3327
     31  C3D       32.2170  -20.1920   23.1940 C.3   271  NAI271      0.2158
     32  O3D       30.8830  -19.9470   22.7240 O.3   271  NAI271     -0.2175
     33  C2D       33.1130  -18.9700   23.0170 C.3   271  NAI271      0.2309
     34  O2D       32.8390  -18.3460   21.7340 O.3   271  NAI271     -0.2158
     35  C1D       32.6880  -18.1730   24.2270 C.3   271  NAI271      0.2263
     36  N1N       33.6140  -17.0760   24.6010 N.pl3 271  NAI271     -0.2787
     37  C2N       34.8960  -17.4530   25.0230 C.3   271  NAI271      0.1244
     38  C3N       35.7550  -16.4110   25.3670 C.2   271  NAI271      0.0544
     39  C7N       37.1810  -16.6440   25.8530 C.2   271  NAI271      0.2818
     40  O7N       37.8770  -15.6590   26.1220 O.2   271  NAI271     -0.2670
     41  N7N       37.6520  -17.8990   25.9820 N.am  271  NAI271     -0.0839
     42  C4N       35.3350  -15.0210   25.2980 C.2   271  NAI271      0.0033
     43  C5N       34.0100  -14.7920   24.8550 C.2   271  NAI271      0.0157
     44  C6N       33.1070  -15.7540   24.4940 C.2   271  NAI271      0.0633
@<TRIPOS>BOND
     1    18    17    1
     2    17    19    2
     3    17    16    1
     4    15    16    2
     5    15    14    1
     6    19    20    1
     7    16    22    1
     8    14    13    1
     9    20    21    1
    10    22    13    1
    11    22    21    2
    12    13    12    1
    13    34    33    1
    14    12    10    1
    15    12     7    1
    16    10    11    1
    17    10     8    1
    18     7     6    1
    19    32    31    1
    20     2     1    2
    21    33    31    1
    22    33    35    1
    23    31    29    1
    24     5     6    1
    25     5     4    1
    26     6     8    1
    27     8     9    1
    28     1    23    1
    29     1     4    1
    30     1     3    1
    31    35    36    1
    32    35    30    1
    33    23    24    1
    34    44    36    1
    35    44    43    2
    36    36    37    1
    37    29    28    1
    38    29    30    1
    39    43    42    1
    40    27    28    1
    41    27    24    1
    42    37    38    1
    43    42    38    2
    44    24    25    2
    45    24    26    1
    46    38    39    1
    47    39    41   am
    48    39    40    2
