@<TRIPOS>MOLECULE
2dth_BTN_A_1.pdb
 16 17 0 0 0
SMALL
GASTEIGER

@<TRIPOS>ATOM
      1  C11       23.8180   32.1720   12.5410 C.2   1401  BTN1401     0.3649
      2  O11       23.2040   32.8870   11.7200 O.co2 1401  BTN1401    -0.2457
      3  O12       23.7290   30.8950   12.5260 O.co2 1401  BTN1401    -0.2457
      4  C10       24.6800   32.7830   13.5910 C.3   1401  BTN1401     0.1141
      5  C9        24.3600   32.3340   14.9900 C.3   1401  BTN1401     0.0118
      6  C8        25.3170   32.8920   16.0040 C.3   1401  BTN1401     0.0015
      7  C7        24.9890   32.4490   17.4110 C.3   1401  BTN1401     0.0129
      8  C2        25.9290   32.9950   18.4980 C.3   1401  BTN1401     0.0729
      9  S1        25.4740   32.4650   20.1210 S.3   1401  BTN1401    -0.1369
     10  C6        26.8170   33.4720   20.7840 C.3   1401  BTN1401     0.0848
     11  C5        26.5850   34.8120   20.0620 C.3   1401  BTN1401     0.1509
     12  N1        25.5420   35.6150   20.7130 N.2   1401  BTN1401    -0.1859
     13  C3        24.5160   35.8230   19.8740 C.1   1401  BTN1401     0.2386
     14  O3        23.4760   36.4670   20.1540 O.2   1401  BTN1401    -0.2023
     15  N2        24.7520   35.2290   18.6530 N.2   1401  BTN1401    -0.1860
     16  C4        26.0260   34.5560   18.6290 C.3   1401  BTN1401     0.1500
@<TRIPOS>BOND
     1     2     1   ar
     2     3     1   ar
     3     1     4    1
     4     4     5    1
     5     5     6    1
     6     6     7    1
     7     7     8    1
     8     8    16    1
     9     8     9    1
    10    16    15    1
    11    16    11    1
    12    15    13    2
    13    13    14    2
    14    13    12    2
    15    11    12    1
    16    11    10    1
    17     9    10    1
