@<TRIPOS>MOLECULE
2dth_ADP_A_1.pdb
 17 19 0 0 0
SMALL
GASTEIGER

@<TRIPOS>ATOM
      1  C4'       16.6210   29.7790   12.1340 C.3   1301  ADP1301     0.1820
      2  O4'       17.7030   29.2740   12.5840 O.3   1301  ADP1301    -0.3135
      3  C3'       15.4510   28.9850   12.7580 C.3   1301  ADP1301     0.2184
      4  O3'       14.3210   29.0450   11.8550 O.3   1301  ADP1301    -0.2174
      5  C2'       16.0960   27.6240   12.9830 C.3   1301  ADP1301     0.2570
      6  O2'       15.8540   26.6800   11.9180 O.3   1301  ADP1301    -0.2130
      7  C1'       17.5690   27.9640   13.1280 C.3   1301  ADP1301     0.3186
      8  N9        18.0630   27.9160   14.5940 N.pl3 1301  ADP1301    -0.1439
      9  C8        17.7140   28.7060   15.6680 C.3   1301  ADP1301     0.3377
     10  N7        18.3550   28.3720   16.8170 N.2   1301  ADP1301    -0.2095
     11  C5        19.1360   27.3350   16.4530 C.2   1301  ADP1301     0.2526
     12  C6        20.0850   26.4990   17.2140 C.2   1301  ADP1301     0.4393
     13  N6        20.3730   26.6160   18.4760 N.pl3 1301  ADP1301     0.2180
     14  N1        20.7150   25.4980   16.4530 N.2   1301  ADP1301     0.0021
     15  C2        20.4740   25.2880   15.0800 C.3   1301  ADP1301     0.5254
     16  N3        19.6100   26.0410   14.3680 N.2   1301  ADP1301    -0.0055
     17  C4        18.9660   27.0370   15.0760 C.2   1301  ADP1301     0.3518
@<TRIPOS>BOND
     1     4     3    1
     2     6     5    1
     3     1     2    1
     4     1     3    1
     5     2     7    1
     6     3     5    1
     7     5     7    1
     8     7     8    1
     9    16    17    2
    10    16    15    1
    11     8    17    1
    12     8     9    1
    13    17    11    1
    14    15    14    1
    15     9    10    1
    16    11    10    2
    17    11    12    1
    18    14    12    2
    19    12    13    1
