@<TRIPOS>MOLECULE
2dti_BT5_B_1.pdb
 38 42 0 0 0
SMALL
GASTEIGER

@<TRIPOS>ATOM
      1  CBB      -18.7600  -10.4320   -7.0410 C.2   1301  BT51301     0.3210
      2  OBB      -19.4380  -11.3560   -6.4650 O.3   1301  BT51301    -0.4101
      3  OCB      -17.4950  -10.3600   -6.9380 O.2   1301  BT51301    -0.2498
      4  CAB      -19.5750   -9.4440   -7.8560 C.3   1301  BT51301     0.1098
      5  C9B      -19.7470   -8.2290   -7.5330 C.3   1301  BT51301     0.0117
      6  C8B      -20.4310   -7.4330   -8.5780 C.3   1301  BT51301     0.0015
      7  C7B      -20.6020   -6.0040   -8.1330 C.3   1301  BT51301     0.0129
      8  C2B      -21.2920   -5.1160   -9.1350 C.3   1301  BT51301     0.0729
      9  S1B      -21.4670   -3.4420   -8.5820 S.3   1301  BT51301    -0.1369
     10  C6B      -22.3210   -3.0940  -10.1310 C.3   1301  BT51301     0.0848
     11  C5B      -23.3480   -4.2410  -10.1580 C.3   1301  BT51301     0.1509
     12  N1B      -24.5390   -3.9640   -9.3210 N.2   1301  BT51301    -0.1859
     13  C3B      -24.6450   -4.9210   -8.3620 C.1   1301  BT51301     0.2386
     14  O3B      -25.5420   -4.9770   -7.4860 O.2   1301  BT51301    -0.2023
     15  N2B      -23.6320   -5.8350   -8.4630 N.2   1301  BT51301    -0.1860
     16  C4B      -22.7460   -5.5250   -9.5560 C.3   1301  BT51301     0.1500
     17  P        -18.8700  -12.6200   -5.5020 P.3   1301  BT51301     0.2722
     18  OP1      -17.7500  -13.3640   -6.1910 O.2   1301  BT51301    -0.5082
     19  OP2      -19.9780  -13.4420   -5.3470 O.3   1301  BT51301    -0.4273
     20  O5'      -18.2880  -12.0540   -4.3320 O.3   1301  BT51301    -0.3024
     21  C5'      -18.9550  -11.2640   -3.3250 C.3   1301  BT51301     0.1823
     22  C4'      -18.0840  -11.3230   -2.1960 C.3   1301  BT51301     0.1822
     23  O4'      -17.0620  -10.3510   -2.1860 O.3   1301  BT51301    -0.3135
     24  C3'      -18.8840  -11.0960   -0.9580 C.3   1301  BT51301     0.2184
     25  O3'      -19.5070  -12.2840   -0.4680 O.3   1301  BT51301    -0.2174
     26  C2'      -17.8780  -10.4700    0.0070 C.3   1301  BT51301     0.2570
     27  O2'      -17.2540  -11.3900    0.8690 O.3   1301  BT51301    -0.2130
     28  C1'      -16.8770   -9.7710   -0.8840 C.3   1301  BT51301     0.3186
     29  N9       -17.0850   -8.2520   -1.0850 N.pl3 1301  BT51301    -0.1439
     30  C8       -18.2260   -7.4950   -0.8630 C.3   1301  BT51301     0.3377
     31  N7       -17.9940   -6.1900   -1.1740 N.2   1301  BT51301    -0.2095
     32  C5       -16.7140   -6.1120   -1.5970 C.2   1301  BT51301     0.2526
     33  C6       -15.9600   -5.0120   -2.0300 C.2   1301  BT51301     0.4393
     34  N6       -16.4960   -3.7990   -2.0940 N.pl3 1301  BT51301     0.2180
     35  N1       -14.6110   -5.2540   -2.4100 N.2   1301  BT51301     0.0021
     36  C2       -14.0210   -6.5340   -2.3570 C.3   1301  BT51301     0.5254
     37  N3       -14.7910   -7.6240   -1.9210 N.2   1301  BT51301    -0.0055
     38  C4       -16.1190   -7.3990   -1.5360 C.2   1301  BT51301     0.3518
@<TRIPOS>BOND
     1    11    10    1
     2    11    16    1
     3    11    12    1
     4    10     9    1
     5    16     8    1
     6    16    15    1
     7    12    13    2
     8     8     9    1
     9     8     7    1
    10     6     7    1
    11     6     5    1
    12    15    13    2
    13    13    14    2
    14     4     5    1
    15     4     1    1
    16     1     3    2
    17     1     2    1
    18     2    17    1
    19    18    17    2
    20    17    19    1
    21    17    20    1
    22    20    21    1
    23    21    22    1
    24    35    36    1
    25    35    33    2
    26    36    37    1
    27    22    23    1
    28    22    24    1
    29    23    28    1
    30    34    33    1
    31    33    32    1
    32    37    38    2
    33    32    38    1
    34    32    31    2
    35    38    29    1
    36    31    30    1
    37    29    28    1
    38    29    30    1
    39    24    25    1
    40    24    26    1
    41    28    26    1
    42    26    27    1
