@<TRIPOS>MOLECULE
2dto_ATP_A_1.pdb
 31 33 0 0 0
SMALL
GASTEIGER

@<TRIPOS>ATOM
      1  PG       -16.8960  -16.3840   -2.8830 P.3   1301  ATP1301     0.5373
      2  O1G      -16.8780  -15.2410   -1.9010 O.3   1301  ATP1301    -0.1143
      3  O2G      -17.5730  -17.5860   -2.2280 O.3   1301  ATP1301    -0.1143
      4  O3G      -15.4730  -16.7320   -3.2820 O.2   1301  ATP1301    -0.2221
      5  PB       -17.4860  -15.0470   -5.4420 P.3   1301  ATP1301     0.2277
      6  O1B      -17.6810  -15.7260   -6.7560 O.2   1301  ATP1301    -0.5168
      7  O2B      -16.0890  -14.5450   -5.3310 O.3   1301  ATP1301    -0.4368
      8  O3B      -17.8440  -16.0700   -4.1910 O.3   1301  ATP1301    -0.2258
      9  PA       -20.0890  -13.9080   -5.0270 P.3   1301  ATP1301     0.2189
     10  O1A      -20.8080  -13.6480   -6.2870 O.2   1301  ATP1301    -0.5170
     11  O2A      -20.4670  -15.2540   -4.5120 O.3   1301  ATP1301    -0.4371
     12  O3A      -18.4720  -13.8030   -5.2090 O.3   1301  ATP1301    -0.2700
     13  O5'      -20.4900  -12.6970   -4.0470 O.3   1301  ATP1301    -0.3112
     14  C5'      -19.5450  -11.7000   -3.5120 C.3   1301  ATP1301     0.1813
     15  C4'      -18.7060  -11.9600   -2.2740 C.3   1301  ATP1301     0.1821
     16  O4'      -17.6730  -10.9090   -2.2940 O.3   1301  ATP1301    -0.3135
     17  C3'      -19.4040  -11.7990   -0.9170 C.3   1301  ATP1301     0.2184
     18  O3'      -19.8610  -13.0680   -0.4340 O.3   1301  ATP1301    -0.2174
     19  C2'      -18.3500  -11.1040   -0.0690 C.3   1301  ATP1301     0.2570
     20  O2'      -17.5980  -12.0080    0.7460 O.3   1301  ATP1301    -0.2130
     21  C1'      -17.3950  -10.3830   -1.0000 C.3   1301  ATP1301     0.3186
     22  N9       -17.5220   -8.8870   -1.1320 N.pl3 1301  ATP1301    -0.1439
     23  C8       -18.5970   -8.0300   -0.8560 C.3   1301  ATP1301     0.3377
     24  N7       -18.3470   -6.7490   -1.0940 N.2   1301  ATP1301    -0.2095
     25  C5       -17.0450   -6.7370   -1.5520 C.2   1301  ATP1301     0.2526
     26  C6       -16.1660   -5.6790   -1.9860 C.2   1301  ATP1301     0.4393
     27  N6       -16.5320   -4.3840   -2.0220 N.pl3 1301  ATP1301     0.2180
     28  N1       -14.8650   -6.0220   -2.3980 N.2   1301  ATP1301     0.0021
     29  C2       -14.4740   -7.3360   -2.3740 C.3   1301  ATP1301     0.5254
     30  N3       -15.2250   -8.4100   -1.9850 N.2   1301  ATP1301    -0.0055
     31  C4       -16.5070   -8.0510   -1.5790 C.2   1301  ATP1301     0.3518
@<TRIPOS>BOND
     1     6     5    2
     2    10     9    2
     3     5     7    1
     4     5    12    1
     5     5     8    1
     6    12     9    1
     7     9    11    1
     8     9    13    1
     9     8     1    1
    10    13    14    1
    11    14    15    1
    12     4     1    2
    13     1     3    1
    14     1     2    1
    15    28    29    1
    16    28    26    2
    17    29    30    1
    18    16    15    1
    19    16    21    1
    20    15    17    1
    21    27    26    1
    22    26    25    1
    23    30    31    2
    24    31    25    1
    25    31    22    1
    26    25    24    2
    27    22    21    1
    28    22    23    1
    29    24    23    1
    30    21    19    1
    31    17    18    1
    32    17    19    1
    33    19    20    1
