@<TRIPOS>MOLECULE
2dto_BTN_A_1.pdb
 16 17 0 0 0
SMALL
GASTEIGER

@<TRIPOS>ATOM
      1  C11      -18.4780  -11.1540   -7.4760 C.2   1401  BTN1401     0.3649
      2  O11      -17.8630  -11.9160   -8.2690 O.co2 1401  BTN1401    -0.2457
      3  O12      -18.0860  -10.9620   -6.2860 O.co2 1401  BTN1401    -0.2457
      4  C10      -19.7150  -10.4050   -7.9040 C.3   1401  BTN1401     0.1141
      5  C9       -19.9320   -8.9800   -7.5270 C.3   1401  BTN1401     0.0118
      6  C8       -20.6080   -8.1460   -8.5640 C.3   1401  BTN1401     0.0015
      7  C7       -20.7520   -6.7190   -8.0860 C.3   1401  BTN1401     0.0129
      8  C2       -21.4120   -5.7340   -9.0470 C.3   1401  BTN1401     0.0729
      9  S1       -21.5020   -4.0780   -8.3820 S.3   1401  BTN1401    -0.1369
     10  C6       -22.3460   -3.6100   -9.9090 C.3   1401  BTN1401     0.0848
     11  C5       -23.4400   -4.7170  -10.0060 C.3   1401  BTN1401     0.1509
     12  N1       -24.6290   -4.4320   -9.1660 N.2   1401  BTN1401    -0.1859
     13  C3       -24.7950   -5.4410   -8.2490 C.1   1401  BTN1401     0.2386
     14  O3       -25.7000   -5.5020   -7.3890 O.2   1401  BTN1401    -0.2023
     15  N2       -23.8130   -6.3970   -8.4010 N.2   1401  BTN1401    -0.1860
     16  C4       -22.8950   -6.0590   -9.4820 C.3   1401  BTN1401     0.1500
@<TRIPOS>BOND
     1    11    10    1
     2    11    16    1
     3    11    12    1
     4    10     9    1
     5    16     8    1
     6    16    15    1
     7    12    13    2
     8     8     9    1
     9     8     7    1
    10     6     7    1
    11     6     5    1
    12    15    13    2
    13     2     1   ar
    14    13    14    2
    15     4     5    1
    16     4     1    1
    17     1     3   ar
