@<TRIPOS>MOLECULE
2dts_BMA_A_1.pdb
 11 11 0 0 0
SMALL
GASTEIGER

@<TRIPOS>ATOM
      1  C1         4.2830    8.0630   59.7530 C.3     3  BMA3        0.1777
      2  C2         4.4910    6.5890   59.4700 C.3     3  BMA3        0.2141
      3  C3         5.4630    6.3500   58.2880 C.3     3  BMA3        0.2173
      4  C4         5.0740    7.1370   57.0870 C.3     3  BMA3        0.2142
      5  C5         4.8710    8.5460   57.4280 C.3     3  BMA3        0.1810
      6  C6         4.5460    9.4120   56.2200 C.3     3  BMA3        0.2141
      7  O2         3.1700    6.0950   59.1630 O.3     3  BMA3       -0.2176
      8  O3         5.3990    5.0580   57.7260 O.3     3  BMA3       -0.2175
      9  O4         6.2030    7.1550   56.2640 O.3     3  BMA3       -0.2176
     10  O5         3.9010    8.6630   58.5110 O.3     3  BMA3       -0.3481
     11  O6         4.8140   10.7220   56.6980 O.3     3  BMA3       -0.2176
@<TRIPOS>BOND
     1     6    11    1
     2     6     5    1
     3     9     4    1
     4     4     5    1
     5     4     3    1
     6     5    10    1
     7     8     3    1
     8     3     2    1
     9    10     1    1
    10     7     2    1
    11     2     1    1
