@<TRIPOS>MOLECULE
2dtt_H4B_A_1.pdb
 17 18 0 0 0
SMALL
GASTEIGER

@<TRIPOS>ATOM
      1  N1        -1.6500   -9.0180   28.7600 N.2   1003  H4B1003    -0.2672
      2  C2        -1.4780   -7.7050   28.8930 C.1   1003  H4B1003     0.2609
      3  N2        -0.2260   -7.2300   29.1920 N.pl3 1003  H4B1003    -0.0220
      4  N3        -2.5170   -6.8010   28.7360 N.2   1003  H4B1003    -0.2466
      5  C4        -3.7930   -7.2290   28.4350 C.1   1003  H4B1003     0.2569
      6  O4        -4.7060   -6.4370   28.2950 O.2   1003  H4B1003    -0.2052
      7  C4A       -4.0120   -8.6960   28.2770 C.2   1003  H4B1003     0.2989
      8  C8A       -2.8690   -9.5620   28.4640 C.1   1003  H4B1003     0.1401
      9  N5        -5.2200   -9.2340   27.9830 N.2   1003  H4B1003    -0.3830
     10  N8        -3.0410  -10.9030   28.3250 N.2   1003  H4B1003    -0.1992
     11  C6        -5.3620  -10.5700   27.8510 C.2   1003  H4B1003     0.1466
     12  C7        -4.2480  -11.4210   28.0300 C.3   1003  H4B1003     0.1940
     13  C9        -6.7100  -11.1710   27.5110 C.3   1003  H4B1003     0.2313
     14  O9        -6.5680  -12.5920   27.4010 O.3   1003  H4B1003    -0.2130
     15  C10       -7.7510  -10.8230   28.5860 C.3   1003  H4B1003     0.1888
     16  C11       -9.1030  -11.4400   28.2180 C.3   1003  H4B1003     0.0387
     17  O10       -7.8930   -9.3990   28.6920 O.3   1003  H4B1003    -0.2200
@<TRIPOS>BOND
     1    14    13    1
     2    13    11    1
     3    13    15    1
     4    11     9    2
     5    11    12    1
     6     9     7    2
     7    12    10    1
     8    16    15    1
     9     7     5    1
    10     7     8    1
    11     6     5    2
    12    10     8    2
    13     5     4    2
    14     8     1    2
    15    15    17    1
    16     4     2    2
    17     1     2    2
    18     2     3    1
