@<TRIPOS>MOLECULE
2dtw_2GS_A_1.pdb
 13 13 0 0 0
SMALL
GASTEIGER

@<TRIPOS>ATOM
      1  C1       127.3350    7.6410   -2.7950 C.3   1401  2GS1401     0.2990
      2  C2       125.9700    7.4790   -2.0040 C.3   1401  2GS1401     0.2070
      3  C3       126.2060    7.7630   -0.4640 C.3   1401  2GS1401     0.2166
      4  C4       127.3180    6.7920    0.0850 C.3   1401  2GS1401     0.2143
      5  C5       128.6330    7.0070   -0.7410 C.3   1401  2GS1401     0.1836
      6  C6       129.7240    6.0810   -0.2770 C.3   1401  2GS1401     0.2142
      7  C7       123.5370    8.0330   -2.5290 C.3   1401  2GS1401     0.1743
      8  O1       127.7870    9.0060   -2.8160 O.3   1401  2GS1401    -0.1871
      9  O2       124.9540    8.3460   -2.5630 O.3   1401  2GS1401    -0.3457
     10  O3       125.0030    7.6120    0.2460 O.3   1401  2GS1401    -0.2175
     11  O4       126.8750    5.4310    0.0060 O.3   1401  2GS1401    -0.2176
     12  O5       128.3800    6.7600   -2.1820 O.3   1401  2GS1401    -0.3237
     13  O6       130.9150    6.2830   -1.0340 O.3   1401  2GS1401    -0.2176
@<TRIPOS>BOND
     1     8     1    1
     2     1    12    1
     3     1     2    1
     4     9     7    1
     5     9     2    1
     6    12     5    1
     7     2     3    1
     8    13     6    1
     9     5     6    1
    10     5     4    1
    11     3     4    1
    12     3    10    1
    13    11     4    1
