@<TRIPOS>MOLECULE
2dtw_NAG_A_1.pdb
 14 14 0 0 0
SMALL
GASTEIGER

@<TRIPOS>ATOM
      1  C1       140.7200    1.8790    3.1140 C.3   501  NAG501      0.1665
      2  C2       141.7380    3.0160    2.9740 C.3   501  NAG501      0.1576
      3  C3       143.1550    2.4810    3.1890 C.3   501  NAG501      0.2069
      4  C4       143.2430    1.7650    4.5420 C.3   501  NAG501      0.2134
      5  C5       142.1680    0.6680    4.5950 C.3   501  NAG501      0.1809
      6  C6       142.1350   -0.0570    5.9170 C.3   501  NAG501      0.2141
      7  C7       141.1270    4.8310    1.5140 C.2   501  NAG501      0.2420
      8  C8       140.4780    5.1580    0.1770 C.3   501  NAG501      0.0964
      9  N2       141.6300    3.6090    1.6570 N.am  501  NAG501     -0.2019
     10  O3       144.1070    3.5640    3.1220 O.3   501  NAG501     -0.2184
     11  O4       144.5500    1.1800    4.7070 O.3   501  NAG501     -0.2176
     12  O5       140.8560    1.2410    4.3940 O.3   501  NAG501     -0.3489
     13  O6       142.0980    0.8640    6.9910 O.3   501  NAG501     -0.2176
     14  O7       141.1660    5.6850    2.4060 O.2   501  NAG501     -0.2733
@<TRIPOS>BOND
     1     8     7    1
     2     7     9   am
     3     7    14    2
     4     9     2    1
     5     2     1    1
     6     2     3    1
     7     1    12    1
     8    10     3    1
     9     3     4    1
    10    12     5    1
    11     4     5    1
    12     4    11    1
    13     5     6    1
    14     6    13    1
