@<TRIPOS>MOLECULE
2dtx_BMA_A_1.pdb
 10 10 0 0 0
SMALL
GASTEIGER

@<TRIPOS>ATOM
      1  C1        36.4490  -13.4270   23.0210 C.3   301  BMA301      0.1750
      2  C2        37.5640  -14.3550   22.5490 C.3   301  BMA301      0.1840
      3  C3        38.8480  -14.0540   23.3170 C.3   301  BMA301      0.0710
      4  C4        39.2660  -12.5760   23.2620 C.3   301  BMA301      0.1841
      5  C5        38.0150  -11.7750   23.6470 C.3   301  BMA301      0.1784
      6  C6        38.2330  -10.2740   23.5620 C.3   301  BMA301      0.2140
      7  O2        37.7490  -14.5160   21.4160 O.3   301  BMA301     -0.2204
      8  O4        40.4220  -12.3410   24.0960 O.3   301  BMA301     -0.2204
      9  O5        36.9110  -12.1150   22.7990 O.3   301  BMA301     -0.3483
     10  O6        38.3990   -9.8130   24.8770 O.3   301  BMA301     -0.2176
@<TRIPOS>BOND
     1     7     2    1
     2     2     1    1
     3     2     3    1
     4     9     1    1
     5     9     5    1
     6     4     3    1
     7     4     5    1
     8     4     8    1
     9     6     5    1
    10     6    10    1
