@<TRIPOS>MOLECULE
2dty_A2G_A_1.pdb
 15 15 0 0 0
SMALL
GASTEIGER

@<TRIPOS>ATOM
      1  O        128.4680    7.0650   -2.0110 O.3   1401  A2G1401    -0.3242
      2  C1       127.4080    7.9490   -2.5770 C.3   1401  A2G1401     0.2917
      3  O1       127.7720    9.3420   -2.5150 O.3   1401  A2G1401    -0.1879
      4  C2       126.0630    7.7040   -1.8030 C.3   1401  A2G1401     0.1871
      5  N2       125.0160    8.5790   -2.3220 N.am  1401  A2G1401    -0.1991
      6  C3       126.2950    7.9300   -0.2620 C.3   1401  A2G1401     0.2095
      7  O3       125.0900    7.7130    0.4490 O.3   1401  A2G1401    -0.2183
      8  C4       127.4000    6.9680    0.2370 C.3   1401  A2G1401     0.2136
      9  O4       126.9810    5.6090    0.0880 O.3   1401  A2G1401    -0.2176
     10  C5       128.7040    7.2340   -0.5610 C.3   1401  A2G1401     0.1835
     11  C6       129.8200    6.2930   -0.1340 C.3   1401  A2G1401     0.2142
     12  O6       131.1070    6.6590   -0.6310 O.3   1401  A2G1401    -0.2176
     13  C7       123.7710    8.1530   -2.5800 C.2   1401  A2G1401     0.2421
     14  O7       123.3790    6.9900   -2.4140 O.2   1401  A2G1401    -0.2733
     15  C8       122.8000    9.1960   -3.1100 C.3   1401  A2G1401     0.0964
@<TRIPOS>BOND
     1    15    13    1
     2    13    14    2
     3    13     5   am
     4     2     3    1
     5     2     1    1
     6     2     4    1
     7     5     4    1
     8     1    10    1
     9     4     6    1
    10    12    11    1
    11    10    11    1
    12    10     8    1
    13     6     8    1
    14     6     7    1
    15     9     8    1
