@<TRIPOS>MOLECULE
2dty_NAG_A_1.pdb
 14 14 0 0 0
SMALL
GASTEIGER

@<TRIPOS>ATOM
      1  C1       141.0590    2.0340    3.5590 C.3   501  NAG501      0.1665
      2  C2       142.1000    3.1330    3.2980 C.3   501  NAG501      0.1576
      3  C3       143.5100    2.5540    3.4210 C.3   501  NAG501      0.2069
      4  C4       143.6860    1.8820    4.7730 C.3   501  NAG501      0.2134
      5  C5       142.6150    0.8060    4.9170 C.3   501  NAG501      0.1809
      6  C6       142.6790    0.0940    6.2530 C.3   501  NAG501      0.2141
      7  C7       141.3230    4.8710    1.8180 C.2   501  NAG501      0.2420
      8  C8       140.6650    5.1350    0.4700 C.3   501  NAG501      0.0964
      9  N2       141.9200    3.6920    1.9720 N.am  501  NAG501     -0.2019
     10  O3       144.4910    3.5940    3.2460 O.3   501  NAG501     -0.2184
     11  O4       144.9930    1.2860    4.8560 O.3   501  NAG501     -0.2176
     12  O5       141.3070    1.4040    4.8230 O.3   501  NAG501     -0.3489
     13  O6       142.2770    0.9510    7.3110 O.3   501  NAG501     -0.2176
     14  O7       141.2820    5.7290    2.7090 O.2   501  NAG501     -0.2733
@<TRIPOS>BOND
     1     8     7    1
     2     7     9   am
     3     7    14    2
     4     9     2    1
     5    10     3    1
     6     2     3    1
     7     2     1    1
     8     3     4    1
     9     1    12    1
    10     4    11    1
    11     4     5    1
    12    12     5    1
    13     5     6    1
    14     6    13    1
