@<TRIPOS>MOLECULE
2du0_NAG_A_1.pdb
 14 14 0 0 0
SMALL
GASTEIGER

@<TRIPOS>ATOM
      1  C1       140.8320    1.9660    2.9120 C.3   501  NAG501      0.1665
      2  C2       141.8260    3.1220    2.8510 C.3   501  NAG501      0.1576
      3  C3       143.2240    2.5600    3.0170 C.3   501  NAG501      0.2069
      4  C4       143.3210    1.8250    4.3420 C.3   501  NAG501      0.2134
      5  C5       142.2350    0.7510    4.4300 C.3   501  NAG501      0.1809
      6  C6       142.2040    0.1460    5.8080 C.3   501  NAG501      0.2141
      7  C7       141.0190    4.9450    1.5170 C.2   501  NAG501      0.2420
      8  C8       140.1980    5.1680    0.2570 C.3   501  NAG501      0.0964
      9  N2       141.7160    3.8180    1.5870 N.am  501  NAG501     -0.2019
     10  O3       144.1940    3.6200    2.9600 O.3   501  NAG501     -0.2184
     11  O4       144.6080    1.1980    4.4400 O.3   501  NAG501     -0.2176
     12  O5       140.9260    1.3220    4.1870 O.3   501  NAG501     -0.3489
     13  O6       142.4420    1.1430    6.7890 O.3   501  NAG501     -0.2176
     14  O7       141.0120    5.7850    2.4220 O.2   501  NAG501     -0.2733
@<TRIPOS>BOND
     1     8     7    1
     2     7     9   am
     3     7    14    2
     4     9     2    1
     5     2     1    1
     6     2     3    1
     7     1    12    1
     8    10     3    1
     9     3     4    1
    10    12     5    1
    11     4     5    1
    12     4    11    1
    13     5     6    1
    14     6    13    1
