@<TRIPOS>MOLECULE
2du0_GLA_A_1.pdb
 12 12 0 0 0
SMALL
GASTEIGER

@<TRIPOS>ATOM
      1  C1       127.3610    7.6200   -2.7960 C.3   1401  GLA1401     0.3024
      2  C2       126.0420    7.3200   -2.0370 C.3   1401  GLA1401     0.2434
      3  C3       126.2630    7.5840   -0.5400 C.3   1401  GLA1401     0.2199
      4  C4       127.4120    6.6770   -0.0360 C.3   1401  GLA1401     0.2144
      5  C5       128.6880    7.0140   -0.8550 C.3   1401  GLA1401     0.1836
      6  C6       129.8450    6.1220   -0.3760 C.3   1401  GLA1401     0.2142
      7  O1       127.7200    9.0060   -2.6790 O.3   1401  GLA1401    -0.1869
      8  O2       124.9780    8.1400   -2.5260 O.3   1401  GLA1401    -0.2148
      9  O3       125.0600    7.3070    0.1840 O.3   1401  GLA1401    -0.2174
     10  O4       127.0630    5.2990   -0.2300 O.3   1401  GLA1401    -0.2176
     11  O5       128.4490    6.7790   -2.2800 O.3   1401  GLA1401    -0.3236
     12  O6       131.0350    6.4160   -1.1150 O.3   1401  GLA1401    -0.2176
@<TRIPOS>BOND
     1     1     7    1
     2     1    11    1
     3     1     2    1
     4     8     2    1
     5    11     5    1
     6     2     3    1
     7    12     6    1
     8     5     6    1
     9     5     4    1
    10     3     4    1
    11     3     9    1
    12    10     4    1
