@<TRIPOS>MOLECULE
2du1_MGC_A_1.pdb
 16 16 0 0 0
SMALL
GASTEIGER

@<TRIPOS>ATOM
      1  O6       131.0820    6.6060   -1.0440 O.3   1401  MGC1401    -0.2176
      2  C6       129.9100    6.3800   -0.2620 C.3   1401  MGC1401     0.2142
      3  C5       128.7570    7.2590   -0.7150 C.3   1401  MGC1401     0.1834
      4  O5       128.4920    6.9850   -2.1310 O.3   1401  MGC1401    -0.3262
      5  C1       127.4020    7.8060   -2.7120 C.3   1401  MGC1401     0.2586
      6  O1       127.6880    9.2230   -2.7900 O.3   1401  MGC1401    -0.3265
      7  CM       128.8590    9.6310   -3.5090 C.3   1401  MGC1401     0.1769
      8  C2       126.0950    7.5850   -1.9050 C.3   1401  MGC1401     0.1842
      9  N2       125.0300    8.4060   -2.4580 N.am  1401  MGC1401    -0.1992
     10  C7       123.8150    7.9130   -2.7370 C.2   1401  MGC1401     0.2420
     11  O7       123.4890    6.7360   -2.5540 O.2   1401  MGC1401    -0.2733
     12  C8       122.7970    8.8950   -3.3110 C.3   1401  MGC1401     0.0964
     13  C3       126.3470    7.9220   -0.4110 C.3   1401  MGC1401     0.2094
     14  O3       125.1610    7.7310    0.3470 O.3   1401  MGC1401    -0.2183
     15  C4       127.4770    7.0220    0.1280 C.3   1401  MGC1401     0.2136
     16  O4       127.0770    5.6400    0.0710 O.3   1401  MGC1401    -0.2176
@<TRIPOS>BOND
     1     7     6    1
     2    12    10    1
     3     6     5    1
     4    10    11    2
     5    10     9   am
     6     5     4    1
     7     5     8    1
     8     9     8    1
     9     4     3    1
    10     8    13    1
    11     1     2    1
    12     3     2    1
    13     3    15    1
    14    13    15    1
    15    13    14    1
    16    16    15    1
