@<TRIPOS>MOLECULE
2du1_NAG_A_1.pdb
 14 14 0 0 0
SMALL
GASTEIGER

@<TRIPOS>ATOM
      1  C1       140.9260    2.0310    3.0690 C.3   501  NAG501      0.1665
      2  C2       141.9050    3.2050    2.9980 C.3   501  NAG501      0.1576
      3  C3       143.3080    2.6680    3.2250 C.3   501  NAG501      0.2069
      4  C4       143.3950    1.9780    4.5820 C.3   501  NAG501      0.2134
      5  C5       142.3270    0.8720    4.6480 C.3   501  NAG501      0.1809
      6  C6       142.2500    0.2070    6.0100 C.3   501  NAG501      0.2141
      7  C7       141.2370    5.0370    1.5760 C.2   501  NAG501      0.2420
      8  C8       140.8500    5.4500    0.1680 C.3   501  NAG501      0.0964
      9  N2       141.8290    3.8540    1.7030 N.am  501  NAG501     -0.2019
     10  O3       144.2740    3.7270    3.1270 O.3   501  NAG501     -0.2184
     11  O4       144.7050    1.3960    4.7260 O.3   501  NAG501     -0.2176
     12  O5       141.0100    1.4120    4.3620 O.3   501  NAG501     -0.3489
     13  O6       142.0440    1.1630    7.0390 O.3   501  NAG501     -0.2176
     14  O7       140.9980    5.7860    2.5290 O.2   501  NAG501     -0.2733
@<TRIPOS>BOND
     1     8     7    1
     2     7     9   am
     3     7    14    2
     4     9     2    1
     5     2     1    1
     6     2     3    1
     7     1    12    1
     8    10     3    1
     9     3     4    1
    10    12     5    1
    11     4     5    1
    12     4    11    1
    13     5     6    1
    14     6    13    1
