@<TRIPOS>MOLECULE
2du2_FMN_A_1.pdb
 31 33 0 0 0
SMALL
GASTEIGER

@<TRIPOS>ATOM
      1  N1       -55.7710  -32.7620  -73.6340 N.2   512  FMN512     -0.2887
      2  C2       -55.8330  -31.3800  -73.5370 C.1   512  FMN512      0.3669
      3  O2       -55.7170  -30.8420  -72.4480 O.2   512  FMN512     -0.1744
      4  N3       -55.9850  -30.6040  -74.6870 N.2   512  FMN512     -0.2300
      5  C4       -56.1050  -31.1790  -75.9430 C.1   512  FMN512      0.2513
      6  O4       -56.5860  -30.5500  -76.9050 O.2   512  FMN512     -0.2057
      7  C4A      -56.0450  -32.5590  -76.0370 C.2   512  FMN512      0.2706
      8  N5       -56.1770  -33.1430  -77.2940 N.2   512  FMN512     -0.3841
      9  C5A      -56.2050  -34.5170  -77.3910 C.2   512  FMN512      0.1452
     10  C6       -56.3530  -35.1210  -78.6500 C.2   512  FMN512      0.0252
     11  C7       -56.3990  -36.5110  -78.7660 C.2   512  FMN512     -0.0375
     12  C7M      -56.7600  -37.1310  -80.1180 C.3   512  FMN512      0.0268
     13  C8       -56.2880  -37.2950  -77.6050 C.3   512  FMN512      0.0417
     14  C8M      -56.9810  -38.6560  -77.5500 C.3   512  FMN512      0.0091
     15  C9       -56.1220  -36.6900  -76.3570 C.2   512  FMN512     -0.0049
     16  C9A      -56.0980  -35.2980  -76.2350 C.2   512  FMN512      0.0795
     17  N10      -55.9200  -34.7060  -74.9930 N.pl3 512  FMN512     -0.2545
     18  C10      -55.9010  -33.3320  -74.8860 C.2   512  FMN512      0.2449
     19  C1'      -55.7670  -35.4970  -73.7360 C.3   512  FMN512      0.1336
     20  C2'      -57.1490  -35.7740  -73.1270 C.3   512  FMN512      0.2048
     21  O2'      -57.5540  -34.5990  -72.4170 O.3   512  FMN512     -0.2185
     22  C3'      -57.0700  -36.9200  -72.1290 C.3   512  FMN512      0.2165
     23  O3'      -55.9950  -36.6470  -71.2240 O.3   512  FMN512     -0.2175
     24  C4'      -56.7910  -38.2890  -72.7610 C.3   512  FMN512      0.2147
     25  O4'      -57.6930  -38.5060  -73.8170 O.3   512  FMN512     -0.2176
     26  C5'      -56.9740  -39.4170  -71.7360 C.3   512  FMN512      0.1892
     27  O5'      -56.5360  -40.6480  -72.3220 O.3   512  FMN512     -0.2674
     28  P        -57.6090  -41.7030  -72.8780 P.3   512  FMN512      0.5327
     29  O1P      -56.7870  -42.7930  -73.5270 O.3   512  FMN512     -0.1145
     30  O2P      -58.4150  -40.9940  -73.9250 O.2   512  FMN512     -0.2224
     31  O3P      -58.4220  -42.3110  -71.7410 O.3   512  FMN512     -0.1145
@<TRIPOS>BOND
     1    12    11    1
     2    11    10    2
     3    11    13    1
     4    10     9    1
     5    13    14    1
     6    13    15    1
     7     9     8    2
     8     9    16    1
     9     8     7    2
    10     6     5    2
    11    15    16    2
    12    16    17    1
    13     7     5    1
    14     7    18    1
    15     5     4    2
    16    17    18    1
    17    17    19    1
    18    18     1    2
    19     4     2    2
    20    30    28    2
    21    25    24    1
    22    19    20    1
    23     1     2    2
    24     2     3    2
    25    29    28    1
    26    20    21    1
    27    20    22    1
    28    28    27    1
    29    28    31    1
    30    24    22    1
    31    24    26    1
    32    27    26    1
    33    22    23    1
