@<TRIPOS>MOLECULE
2du3_SEP_A_1.pdb
 11 10 0 0 0
SMALL
GASTEIGER

@<TRIPOS>ATOM
      1  N         35.3490   89.2080  -18.9520 N.3   1001  SEP1001    -0.1181
      2  CA        36.3100   88.2460  -19.5110 C.3   1001  SEP1001     0.2242
      3  CB        36.4710   87.0640  -18.5540 C.3   1001  SEP1001     0.1842
      4  OG        35.2440   86.3450  -18.3950 O.3   1001  SEP1001    -0.2681
      5  C         35.7990   87.7480  -20.8640 C.2   1001  SEP1001     0.3844
      6  O         34.5840   87.9050  -21.1080 O.co2 1001  SEP1001    -0.2440
      7  OXT       36.6360   87.2210  -21.6290 O.co2 1001  SEP1001    -0.2440
      8  P         34.1820   86.7180  -17.2420 P.3   1001  SEP1001     0.5327
      9  O1P       35.0430   87.0930  -15.9360 O.3   1001  SEP1001    -0.1145
     10  O2P       33.4240   88.0730  -17.6700 O.2   1001  SEP1001    -0.2224
     11  O3P       33.2230   85.6180  -16.9880 O.3   1001  SEP1001    -0.1145
@<TRIPOS>BOND
     1     7     5   ar
     2     6     5   ar
     3     5     2    1
     4     2     1    1
     5     2     3    1
     6     3     4    1
     7     4     8    1
     8    10     8    2
     9     8    11    1
    10     8     9    1
