@<TRIPOS>MOLECULE
2du5_SEP_A_1.pdb
 11 10 0 0 0
SMALL
GASTEIGER

@<TRIPOS>ATOM
      1  N         35.0080   88.3820  -18.3200 N.3   1001  SEP1001    -0.1181
      2  CA        35.5910   87.4460  -19.2930 C.3   1001  SEP1001     0.2242
      3  CB        35.6250   86.0340  -18.7050 C.3   1001  SEP1001     0.1842
      4  OG        34.3170   85.5630  -18.3680 O.3   1001  SEP1001    -0.2681
      5  C         34.7570   87.4540  -20.5750 C.2   1001  SEP1001     0.3844
      6  O         34.8230   86.4420  -21.3040 O.co2 1001  SEP1001    -0.2440
      7  OXT       34.0750   88.4800  -20.7990 O.co2 1001  SEP1001    -0.2440
      8  P         33.5600   86.1040  -17.0530 P.3   1001  SEP1001     0.5327
      9  O1P       34.6880   86.7610  -16.1110 O.3   1001  SEP1001    -0.1145
     10  O2P       32.6080   87.3160  -17.5190 O.2   1001  SEP1001    -0.2224
     11  O3P       32.8000   85.0420  -16.3570 O.3   1001  SEP1001    -0.1145
@<TRIPOS>BOND
     1     6     5   ar
     2     7     5   ar
     3     5     2    1
     4     2     3    1
     5     2     1    1
     6     3     4    1
     7     4     8    1
     8    10     8    2
     9     8    11    1
    10     8     9    1
