@<TRIPOS>MOLECULE
2du6_SEP_A_1.pdb
 11 10 0 0 0
SMALL
GASTEIGER

@<TRIPOS>ATOM
      1  N         35.2910   88.0470  -19.2190 N.3   1001  SEP1001    -0.1181
      2  CA        35.5430   86.7610  -19.8840 C.3   1001  SEP1001     0.2242
      3  CB        35.3920   85.6060  -18.8900 C.3   1001  SEP1001     0.1842
      4  OG        34.1040   85.6000  -18.2670 O.3   1001  SEP1001    -0.2681
      5  C         34.5670   86.5740  -21.0500 C.2   1001  SEP1001     0.3844
      6  O         34.6080   85.4770  -21.6520 O.co2 1001  SEP1001    -0.2440
      7  OXT       33.8100   87.5280  -21.3170 O.co2 1001  SEP1001    -0.2440
      8  P         33.9060   86.2560  -16.8100 P.3   1001  SEP1001     0.5327
      9  O1P       35.0850   87.3360  -16.6230 O.3   1001  SEP1001    -0.1145
     10  O2P       32.5370   87.1000  -16.8780 O.2   1001  SEP1001    -0.2224
     11  O3P       33.8890   85.2600  -15.7160 O.3   1001  SEP1001    -0.1145
@<TRIPOS>BOND
     1     6     5   ar
     2     7     5   ar
     3     5     2    1
     4     2     1    1
     5     2     3    1
     6     3     4    1
     7     4     8    1
     8    10     8    2
     9     8     9    1
    10     8    11    1
