@<TRIPOS>MOLECULE
2dua_XYS_A_1.pdb
 10 10 0 0 0
SMALL
GASTEIGER

@<TRIPOS>ATOM
      1  C1        54.9560   46.0060   27.3630 C.3   293  XYS293      0.3024
      2  C2        54.0030   47.1530   27.2650 C.3   293  XYS293      0.2434
      3  C3        52.7140   46.7200   26.5510 C.3   293  XYS293      0.2199
      4  C4        52.9990   46.0400   25.1800 C.3   293  XYS293      0.2143
      5  C5        54.2400   45.1330   25.1140 C.3   293  XYS293      0.1804
      6  O1        54.5670   44.9280   28.1870 O.3   293  XYS293     -0.1869
      7  O2        53.6790   47.6380   28.5690 O.3   293  XYS293     -0.2148
      8  O3        51.8220   47.8380   26.3980 O.3   293  XYS293     -0.2174
      9  O4        51.8720   45.5080   24.4640 O.3   293  XYS293     -0.2176
     10  O5        55.3120   45.4970   26.0580 O.3   293  XYS293     -0.3237
@<TRIPOS>BOND
     1     9     4    1
     2     5     4    1
     3     5    10    1
     4     4     3    1
     5    10     1    1
     6     8     3    1
     7     3     2    1
     8     2     1    1
     9     2     7    1
    10     1     6    1
