@<TRIPOS>MOLECULE
2duj_III_P_1.pdb
 43 43 0 0 0
SMALL
GASTEIGER

@<TRIPOS>ATOM
      1  N         24.3860  -16.4120  -18.3180 N.3     1  LEU1       -0.1231
      2  CA        24.0780  -16.7450  -16.8900 C.3     1  LEU1        0.1693
      3  C         23.2170  -15.6820  -16.1580 C.2     1  LEU1        0.2592
      4  O         23.7410  -14.6610  -15.6860 O.2     1  LEU1       -0.2718
      5  CB        25.3810  -17.0070  -16.1170 C.3     1  LEU1        0.0284
      6  CG        25.2270  -17.9430  -14.9130 C.3     1  LEU1        0.0019
      7  CD1       26.5760  -18.3910  -14.3830 C.3     1  LEU1        0.0001
      8  CD2       24.4090  -17.2890  -13.8140 C.3     1  LEU1        0.0001
      9  N         21.9040  -15.9400  -16.0750 N.am    2  LEU2       -0.1966
     10  CA        20.9310  -15.0880  -15.3560 C.3     2  LEU2        0.1728
     11  C         20.0760  -15.9900  -14.3640 C.2     2  LEU2        0.2616
     12  O         19.9530  -17.1890  -14.5770 O.2     2  LEU2       -0.2715
     13  CB        20.0560  -14.3120  -16.3770 C.3     2  LEU2        0.0311
     14  CG        20.6800  -13.3580  -17.4370 C.3     2  LEU2        0.0022
     15  CD1       20.1730  -13.6040  -18.8760 C.3     2  LEU2        0.0001
     16  CD2       20.4770  -11.8910  -17.0650 C.3     2  LEU2        0.0001
     17  N         19.5470  -15.4140  -13.2780 N.am    3  PHE3       -0.1960
     18  CA        18.6680  -16.0190  -12.2000 C.3     3  PHE3        0.1771
     19  C         18.9190  -14.8510  -11.2230 C.2     3  PHE3        0.2620
     20  O         19.6130  -14.8290  -10.2100 O.2     3  PHE3       -0.2715
     21  CB        18.9600  -17.4620  -11.7040 C.3     3  PHE3        0.0574
     22  CG        18.0270  -18.6050  -12.2880 C.ar    3  PHE3       -0.0200
     23  CD1       16.6110  -18.5940  -12.2290 C.ar    3  PHE3       -0.0042
     24  CD2       18.6240  -19.7550  -12.8150 C.ar    3  PHE3       -0.0042
     25  CE1       15.8300  -19.7230  -12.7430 C.ar    3  PHE3       -0.0003
     26  CE2       17.8650  -20.8600  -13.3200 C.ar    3  PHE3       -0.0003
     27  CZ        16.4810  -20.8500  -13.2800 C.ar    3  PHE3       -0.0000
     28  N         18.3370  -13.8830  -11.8280 N.am    4  ASN4       -0.1958
     29  CA        18.2440  -12.4520  -11.8160 C.3     4  ASN4        0.1819
     30  C         18.0210  -11.3650  -10.8420 C.2     4  ASN4        0.2621
     31  O         17.6620  -11.4050   -9.6750 O.2     4  ASN4       -0.2715
     32  CB        17.2080  -12.2450  -12.8540 C.3     4  ASN4        0.1195
     33  CG        16.5410  -13.5590  -13.1490 C.2     4  ASN4        0.2630
     34  OD1       15.8140  -14.1200  -12.3420 O.2     4  ASN4       -0.2716
     35  ND2       16.8050  -14.0880  -14.3440 N.am    4  ASN4       -0.0877
     36  N         18.3340  -10.3130  -11.6510 N.am    5  ASP5       -0.1971
     37  CA        18.3780   -8.8640  -11.5500 C.3     5  ASP5        0.1709
     38  C         17.0090   -8.2640  -11.2240 C.2     5  ASP5        0.2293
     39  O         16.5280   -7.3780  -11.9400 O.2     5  ASP5       -0.2864
     40  CB        18.9260   -8.2660  -12.8950 C.3     5  ASP5        0.1436
     41  CG        18.9000   -9.0890  -14.1910 C.2     5  ASP5        0.3671
     42  OD1       17.8520   -9.7010  -14.4920 O.co2   5  ASP5       -0.2456
     43  OD2       19.9220   -9.1230  -14.8980 O.co2   5  ASP5       -0.2456
@<TRIPOS>BOND
     1    15    14    1
     2     1     2    1
     3    14    16    1
     4    14    13    1
     5     2     3    1
     6     2     5    1
     7    13    10    1
     8     3     9   am
     9     3     4    2
    10     5     6    1
    11     9    10    1
    12    10    11    1
    13     6     7    1
    14     6     8    1
    15    43    41   ar
    16    12    11    2
    17    42    41   ar
    18    11    17   am
    19    35    33   am
    20    41    40    1
    21    26    27   ar
    22    26    24   ar
    23    27    25   ar
    24    17    18    1
    25    33    32    1
    26    33    34    2
    27    40    37    1
    28    32    29    1
    29    24    22   ar
    30    25    23   ar
    31    22    23   ar
    32    22    21    1
    33    18    21    1
    34    18    19    1
    35    39    38    2
    36    28    29    1
    37    28    19   am
    38    29    30    1
    39    36    37    1
    40    36    30   am
    41    37    38    1
    42    19    20    2
    43    30    31    2
