@<TRIPOS>MOLECULE
2duq_MAN_A_1.pdb
 12 12 0 0 0
SMALL
GASTEIGER

@<TRIPOS>ATOM
      1  C1       115.7910   12.9390   51.7270 C.3    16  MAN16       0.3024
      2  C2       114.6860   13.4710   50.8170 C.3    16  MAN16       0.2434
      3  C3       113.4180   12.6150   50.9800 C.3    16  MAN16       0.2199
      4  C4       113.7310   11.1290   50.7680 C.3    16  MAN16       0.2144
      5  C5       114.8320   10.7150   51.7540 C.3    16  MAN16       0.1836
      6  C6       115.2310    9.2320   51.6340 C.3    16  MAN16       0.2142
      7  O1       115.5010   13.2440   53.0950 O.3    16  MAN16      -0.1869
      8  O2       115.1540   13.5070   49.4680 O.3    16  MAN16      -0.2148
      9  O3       112.4230   13.0620   50.0890 O.3    16  MAN16      -0.2174
     10  O4       112.5820   10.3460   50.9550 O.3    16  MAN16      -0.2176
     11  O5       115.9730   11.5370   51.5300 O.3    16  MAN16      -0.3236
     12  O6       115.9220    9.0050   50.4190 O.3    16  MAN16      -0.2176
@<TRIPOS>BOND
     1     8     2    1
     2     9     3    1
     3    12     6    1
     4     4    10    1
     5     4     3    1
     6     4     5    1
     7     2     3    1
     8     2     1    1
     9    11     1    1
    10    11     5    1
    11     6     5    1
    12     1     7    1
