@<TRIPOS>MOLECULE
2dur_MAN_A_1.pdb
 12 12 0 0 0
SMALL
GASTEIGER

@<TRIPOS>ATOM
      1  C1       114.7940   13.0150   51.0820 C.3    13  MAN13       0.3024
      2  C2       113.5530   13.5150   50.3460 C.3    13  MAN13       0.2434
      3  C3       112.3760   12.5500   50.5510 C.3    13  MAN13       0.2199
      4  C4       112.7750   11.0950   50.2590 C.3    13  MAN13       0.2144
      5  C5       113.9280   10.7560   51.1880 C.3    13  MAN13       0.1836
      6  C6       114.3630    9.2960   51.0460 C.3    13  MAN13       0.2142
      7  O1       114.6960   13.3140   52.4720 O.3    13  MAN13      -0.1869
      8  O2       113.8480   13.5890   48.9730 O.3    13  MAN13      -0.2148
      9  O3       111.2790   12.9530   49.7450 O.3    13  MAN13      -0.2174
     10  O4       111.7110   10.1920   50.4660 O.3    13  MAN13      -0.2176
     11  O5       114.9930   11.6240   50.8280 O.3    13  MAN13      -0.3236
     12  O6       114.9560    9.0880   49.7820 O.3    13  MAN13      -0.2176
@<TRIPOS>BOND
     1     8     2    1
     2     9     3    1
     3    12     6    1
     4     4    10    1
     5     4     3    1
     6     4     5    1
     7     2     3    1
     8     2     1    1
     9    11     1    1
    10    11     5    1
    11     6     5    1
    12     1     7    1
