@<TRIPOS>MOLECULE
2duv_371_A_1.pdb
 28 31 0 0 0
SMALL
GASTEIGER

@<TRIPOS>ATOM
      1  O1        26.7820   29.0830   26.8430 O.2   501  371501     -0.4487
      2  C1        27.3150   30.3250   27.1130 C.ar  501  371501      0.1873
      3  C2        26.7270   31.1880   28.0230 C.ar  501  371501      0.2684
      4  C3        25.4570   30.7340   28.7240 C.ar  501  371501      0.2402
      5  C4        23.7360   28.8650   28.9870 C.ar  501  371501      0.0022
      6  C5        23.2560   27.5740   28.6410 C.ar  501  371501     -0.0203
      7  C6        23.9780   26.7840   27.6850 C.ar  501  371501      0.0150
      8  C7        25.1690   27.2930   27.0840 C.ar  501  371501      0.1026
      9  C8        25.6240   28.5910   27.4430 C.ar  501  371501      0.1632
     10  C9        24.9140   29.3780   28.3940 C.ar  501  371501      0.0778
     11  O2        24.9810   31.5560   29.5170 O.2   501  371501     -0.2829
     12  C10       28.5350   30.6160   26.3370 C.ar  501  371501      0.0413
     13  C11       28.8470   31.9240   25.8360 C.ar  501  371501      0.0066
     14  C12       30.0220   32.1400   25.0780 C.ar  501  371501      0.0455
     15  C13       30.8760   31.0490   24.8190 C.ar  501  371501      0.2343
     16  C14       30.5740   29.7360   25.3140 C.ar  501  371501      0.2344
     17  C15       29.4110   29.5290   26.0660 C.ar  501  371501      0.0485
     18  C16       21.9930   27.0560   29.2860 C.3   501  371501      0.0311
     19  O3        27.1770   32.4440   28.3640 O.3   501  371501     -0.2798
     20  O4        31.4670   28.7080   25.0110 O.3   501  371501     -0.2831
     21  O5        32.0230   31.2020   24.0840 O.3   501  371501     -0.2831
     22  C17       26.5620   25.5410   24.0630 C.3   501  371501      0.0507
     23  C18       25.4590   26.3660   24.7790 C.3   501  371501      0.1175
     24  N1        25.9100   26.5850   26.1550 N.pl3 501  371501     -0.1914
     25  S1        27.3570   25.8980   26.4190 S.O2  501  371501      0.0571
     26  C19       27.9000   25.8740   24.7420 C.3   501  371501      0.1745
     27  O7        27.0860   24.5620   26.8660 O.2   501  371501     -0.1543
     28  O6        28.1790   26.7660   27.2180 O.2   501  371501     -0.1543
@<TRIPOS>BOND
     1    22    26    1
     2    22    23    1
     3    21    15    1
     4    26    25    1
     5    23    24    1
     6    15    14   ar
     7    15    16   ar
     8    20    16    1
     9    14    13   ar
    10    16    17   ar
    11    13    12   ar
    12    17    12   ar
    13    24    25    1
    14    24     8    1
    15    12     2    1
    16    25    27    2
    17    25    28    2
    18     1     2   ar
    19     1     9   ar
    20     8     9   ar
    21     8     7   ar
    22     2     3   ar
    23     9    10   ar
    24     7     6   ar
    25     3    19    1
    26     3     4   ar
    27    10     4   ar
    28    10     5   ar
    29     6     5   ar
    30     6    18    1
    31     4    11    2
