@<TRIPOS>MOLECULE
2dux_ZST_A_1.pdb
 29 32 0 0 0
SMALL
GASTEIGER

@<TRIPOS>ATOM
      1  C1        17.7000   -9.2870   15.0140 C.ar  600  ZST600      0.2767
      2  O1        17.9950   -9.9490   14.0310 O.2   600  ZST600     -0.2655
      3  C2        16.7400   -9.8480   15.9320 C.ar  600  ZST600      0.0588
      4  C3        16.3540   -9.1010   17.0610 C.ar  600  ZST600      0.0204
      5  C4        16.9290   -7.7860   17.2470 C.ar  600  ZST600      0.0902
      6  C5        16.2240  -11.1230   15.6860 C.ar  600  ZST600      0.0048
      7  C6        15.3120  -11.6660   16.5840 C.ar  600  ZST600      0.0002
      8  C7        14.9310  -10.9290   17.6950 C.ar  600  ZST600      0.0000
      9  C8        15.4220   -9.6800   17.9620 C.ar  600  ZST600      0.0014
     10  N1        18.1200   -8.0280   15.3280 N.ar  600  ZST600     -0.2091
     11  N2        17.7750   -7.2580   16.4200 N.ar  600  ZST600     -0.1702
     12  C9        19.0840   -7.2980   14.4930 C.3   600  ZST600      0.1956
     13  C10       18.1060   -6.5330   13.5260 C.2   600  ZST600      0.1594
     14  C11       16.1560   -5.6550   12.2040 C.3   600  ZST600      0.1279
     15  C12       17.3860   -5.0630   11.9540 C.2   600  ZST600      0.1234
     16  C13       14.9550   -5.3160   11.5870 C.2   600  ZST600     -0.0083
     17  C14       14.9660   -4.3270   10.6540 C.2   600  ZST600      0.0006
     18  C15       16.1930   -3.7340   10.4000 C.2   600  ZST600      0.0734
     19  C16       17.3940   -4.0410   10.9910 C.2   600  ZST600      0.0326
     20  N3        18.4480   -5.5840   12.7150 N.2   600  ZST600     -0.4012
     21  S1        16.3940   -6.8540   13.4020 S.3   600  ZST600     -0.0740
     22  C17       16.5920   -6.9300   18.4410 C.3   600  ZST600      0.1613
     23  C18       15.2930   -6.2300   18.2590 C.2   600  ZST600      0.3709
     24  O2        14.7730   -6.1130   17.1070 O.co2 600  ZST600     -0.2452
     25  O3        14.7030   -5.7330   19.2440 O.co2 600  ZST600     -0.2452
     26  C19       16.1300   -2.6390    9.3640 C.3   600  ZST600      0.4186
     27  F1        15.1820   -1.7660    9.7300 F     600  ZST600     -0.1659
     28  F2        15.8640   -2.9670    8.1420 F     600  ZST600     -0.1659
     29  F3        17.2280   -1.9150    9.4310 F     600  ZST600     -0.1659
@<TRIPOS>BOND
     1    28    26    1
     2    26    29    1
     3    26    27    1
     4    26    18    1
     5    18    17    1
     6    18    19    2
     7    17    16    2
     8    19    15    1
     9    16    14    1
    10    15    14    1
    11    15    20    2
    12    14    21    1
    13    20    13    2
    14    21    13    1
    15    13    12    1
    16     2     1    2
    17    12    10    1
    18     1    10   ar
    19     1     3   ar
    20    10    11   ar
    21     6     3   ar
    22     6     7   ar
    23     3     4   ar
    24    11     5   ar
    25     7     8   ar
    26     4     5   ar
    27     4     9   ar
    28    24    23   ar
    29     5    22    1
    30     8     9   ar
    31    23    22    1
    32    23    25   ar
