@<TRIPOS>MOLECULE
2dux_NAP_A_1.pdb
 48 52 0 0 0
SMALL
GASTEIGER

@<TRIPOS>ATOM
      1  PA        22.3750   -5.1420   26.9510 P.3   500  NAP500      0.2189
      2  O1A       23.2650   -4.0990   26.4520 O.2   500  NAP500     -0.5170
      3  O2A       21.2930   -4.8840   27.9320 O.3   500  NAP500     -0.4371
      4  O5B       23.2730   -6.3950   27.4410 O.3   500  NAP500     -0.3112
      5  C5B       22.6630   -7.5840   27.9200 C.3   500  NAP500      0.1813
      6  C4B       23.8830   -8.5280   28.2010 C.3   500  NAP500      0.1820
      7  O4B       24.6110   -7.9470   29.3250 O.3   500  NAP500     -0.3136
      8  C3B       23.4460   -9.9440   28.6790 C.3   500  NAP500      0.2157
      9  O3B       24.4040  -10.8700   28.1560 O.3   500  NAP500     -0.2175
     10  C2B       23.5770   -9.7870   30.2220 C.3   500  NAP500      0.2314
     11  O2B       23.9200  -11.0620   30.7980 O.3   500  NAP500     -0.2630
     12  C1B       24.7550   -8.8360   30.3970 C.3   500  NAP500      0.3158
     13  N9A       24.6980   -8.1110   31.6300 N.pl3 500  NAP500     -0.1439
     14  C8A       23.6100   -7.4600   32.1940 C.3   500  NAP500      0.3377
     15  N7A       23.8770   -6.8230   33.2970 N.2   500  NAP500     -0.2095
     16  C5A       25.2440   -7.0600   33.4920 C.2   500  NAP500      0.2526
     17  C6A       26.0920   -6.6310   34.5190 C.2   500  NAP500      0.4393
     18  N6A       25.7750   -5.8600   35.5700 N.pl3 500  NAP500      0.2180
     19  N1A       27.4260   -7.0320   34.4370 N.2   500  NAP500      0.0021
     20  C2A       27.8610   -7.8220   33.3850 C.3   500  NAP500      0.5254
     21  N3A       27.0210   -8.2390   32.3860 N.2   500  NAP500     -0.0055
     22  C4A       25.7000   -7.8390   32.4660 C.2   500  NAP500      0.3518
     23  O3        21.7750   -5.8620   25.6360 O.3   500  NAP500     -0.2703
     24  PN        20.3770   -5.9410   24.8760 P.3   500  NAP500      0.2189
     25  O1N       19.5520   -7.0750   25.3460 O.3   500  NAP500     -0.4371
     26  O2N       20.7210   -5.9360   23.4110 O.2   500  NAP500     -0.5170
     27  O5D       19.6490   -4.5370   25.1180 O.3   500  NAP500     -0.3112
     28  C5D       18.8220   -4.3430   26.3240 C.3   500  NAP500      0.1813
     29  C4D       17.3610   -4.4090   25.8850 C.3   500  NAP500      0.1799
     30  O4D       17.0180   -3.3830   24.8730 O.3   500  NAP500     -0.3327
     31  C3D       16.9180   -5.7130   25.1560 C.3   500  NAP500      0.2158
     32  O3D       16.8700   -6.8490   25.9530 O.3   500  NAP500     -0.2175
     33  C2D       15.5830   -5.2610   24.5590 C.3   500  NAP500      0.2309
     34  O2D       14.6250   -5.2470   25.6370 O.3   500  NAP500     -0.2158
     35  C1D       15.9000   -3.8590   24.0700 C.3   500  NAP500      0.2263
     36  N1N       16.2920   -3.7920   22.6010 N.pl3 500  NAP500     -0.2787
     37  C2N       15.3980   -3.2160   21.6970 C.3   500  NAP500      0.1244
     38  C3N       15.8090   -3.2380   20.3580 C.2   500  NAP500      0.0544
     39  C7N       14.8780   -2.6170   19.3010 C.2   500  NAP500      0.2818
     40  O7N       15.2260   -2.7670   18.1470 O.2   500  NAP500     -0.2670
     41  N7N       14.0830   -1.6640   19.7720 N.am  500  NAP500     -0.0839
     42  C4N       17.0450   -3.8060   19.9220 C.2   500  NAP500      0.0033
     43  C5N       17.9190   -4.3780   20.8900 C.2   500  NAP500      0.0157
     44  C6N       17.5550   -4.3720   22.2420 C.2   500  NAP500      0.0633
     45  P2B       22.8460  -11.9500   31.6480 P.3   500  NAP500      0.5328
     46  O1X       23.0010  -11.5100   33.1230 O.3   500  NAP500     -0.1145
     47  O2X       21.5160  -11.6930   31.0530 O.2   500  NAP500     -0.2224
     48  O3X       23.4250  -13.3630   31.4060 O.3   500  NAP500     -0.1145
@<TRIPOS>BOND
     1    40    39    2
     2    39    41   am
     3    39    38    1
     4    42    38    2
     5    42    43    1
     6    38    37    1
     7    43    44    2
     8    37    36    1
     9    44    36    1
    10    36    35    1
    11    26    24    2
    12    35    33    1
    13    35    30    1
    14    33    31    1
    15    33    34    1
    16    30    29    1
    17    24    27    1
    18    24    25    1
    19    24    23    1
    20    27    28    1
    21    31    29    1
    22    31    32    1
    23    23     1    1
    24    29    28    1
    25     2     1    2
    26     1     4    1
    27     1     3    1
    28     4     5    1
    29     5     6    1
    30     9     8    1
    31     6     8    1
    32     6     7    1
    33     8    10    1
    34     7    12    1
    35    10    12    1
    36    10    11    1
    37    12    13    1
    38    11    45    1
    39    47    45    2
    40    48    45    1
    41    13    14    1
    42    13    22    1
    43    45    46    1
    44    14    15    1
    45    21    22    2
    46    21    20    1
    47    22    16    1
    48    15    16    2
    49    20    19    1
    50    16    17    1
    51    19    17    2
    52    17    18    1
