@<TRIPOS>MOLECULE
2duz_ZST_A_1.pdb
 29 32 0 0 0
SMALL
GASTEIGER

@<TRIPOS>ATOM
      1  C1        17.6550   -9.2770   15.0270 C.ar  600  ZST600      0.2767
      2  O1        17.9360   -9.9350   14.0080 O.2   600  ZST600     -0.2655
      3  C2        16.7090   -9.8880   15.9480 C.ar  600  ZST600      0.0588
      4  C3        16.3590   -9.1360   17.0750 C.ar  600  ZST600      0.0204
      5  C4        16.9120   -7.8190   17.2540 C.ar  600  ZST600      0.0902
      6  C5        16.2110  -11.1580   15.7160 C.ar  600  ZST600      0.0048
      7  C6        15.3400  -11.7350   16.6180 C.ar  600  ZST600      0.0002
      8  C7        14.9790  -10.9990   17.7350 C.ar  600  ZST600      0.0000
      9  C8        15.4620   -9.7470   17.9830 C.ar  600  ZST600      0.0014
     10  N1        18.0790   -8.0110   15.3100 N.ar  600  ZST600     -0.2091
     11  N2        17.7410   -7.2460   16.4200 N.ar  600  ZST600     -0.1702
     12  C9        19.0170   -7.2830   14.4370 C.3   600  ZST600      0.1956
     13  C10       18.0160   -6.5470   13.4830 C.2   600  ZST600      0.1594
     14  C11       16.0840   -5.6820   12.1520 C.3   600  ZST600      0.1279
     15  C12       17.3080   -5.0760   11.9070 C.2   600  ZST600      0.1234
     16  C13       14.8940   -5.3020   11.4910 C.2   600  ZST600     -0.0083
     17  C14       15.0050   -4.2990   10.5710 C.2   600  ZST600      0.0006
     18  C15       16.2260   -3.7040   10.3360 C.2   600  ZST600      0.0734
     19  C16       17.3910   -4.0500   10.9590 C.2   600  ZST600      0.0326
     20  N3        18.3660   -5.5900   12.6730 N.2   600  ZST600     -0.4012
     21  S1        16.3170   -6.8840   13.3550 S.3   600  ZST600     -0.0740
     22  C17       16.5650   -6.9660   18.4260 C.3   600  ZST600      0.1613
     23  C18       15.3200   -6.1700   18.1940 C.2   600  ZST600      0.3709
     24  O2        14.8430   -6.1740   17.0310 O.co2 600  ZST600     -0.2452
     25  O3        14.6890   -5.7330   19.2010 O.co2 600  ZST600     -0.2452
     26  C19       16.2350   -2.6040    9.3200 C.3   600  ZST600      0.4186
     27  F1        15.2720   -1.7290    9.7060 F     600  ZST600     -0.1659
     28  F2        16.0200   -2.8560    8.0900 F     600  ZST600     -0.1659
     29  F3        17.3100   -1.8430    9.4300 F     600  ZST600     -0.1659
@<TRIPOS>BOND
     1    28    26    1
     2    26    29    1
     3    26    27    1
     4    26    18    1
     5    18    17    1
     6    18    19    2
     7    17    16    2
     8    19    15    1
     9    16    14    1
    10    15    14    1
    11    15    20    2
    12    14    21    1
    13    20    13    2
    14    21    13    1
    15    13    12    1
    16     2     1    2
    17    12    10    1
    18     1    10   ar
    19     1     3   ar
    20    10    11   ar
    21     6     3   ar
    22     6     7   ar
    23     3     4   ar
    24    11     5   ar
    25     7     8   ar
    26    24    23   ar
    27     4     5   ar
    28     4     9   ar
    29     5    22    1
    30     8     9   ar
    31    23    22    1
    32    23    25   ar
