@<TRIPOS>MOLECULE
2duz_NAP_A_1.pdb
 48 52 0 0 0
SMALL
GASTEIGER

@<TRIPOS>ATOM
      1  PA        22.3430   -5.1370   26.9830 P.3   500  NAP500      0.2189
      2  O1A       23.3210   -4.1520   26.4510 O.2   500  NAP500     -0.5170
      3  O2A       21.2890   -4.8390   27.9350 O.3   500  NAP500     -0.4371
      4  O5B       23.2700   -6.4010   27.4260 O.3   500  NAP500     -0.3112
      5  C5B       22.5850   -7.5510   27.9810 C.3   500  NAP500      0.1813
      6  C4B       23.8060   -8.5260   28.2140 C.3   500  NAP500      0.1820
      7  O4B       24.5430   -8.0050   29.3530 O.3   500  NAP500     -0.3136
      8  C3B       23.4050   -9.9600   28.6770 C.3   500  NAP500      0.2157
      9  O3B       24.3930  -10.8820   28.1940 O.3   500  NAP500     -0.2175
     10  C2B       23.5140   -9.8330   30.2300 C.3   500  NAP500      0.2314
     11  O2B       23.8500  -11.1000   30.8110 O.3   500  NAP500     -0.2630
     12  C1B       24.6740   -8.8740   30.4260 C.3   500  NAP500      0.3158
     13  N9A       24.6100   -8.1340   31.6370 N.pl3 500  NAP500     -0.1439
     14  C8A       23.5550   -7.4650   32.2320 C.3   500  NAP500      0.3377
     15  N7A       23.8710   -6.8450   33.3290 N.2   500  NAP500     -0.2095
     16  C5A       25.2090   -7.0950   33.5050 C.2   500  NAP500      0.2526
     17  C6A       26.0350   -6.6460   34.5510 C.2   500  NAP500      0.4393
     18  N6A       25.6870   -5.8800   35.5850 N.pl3 500  NAP500      0.2180
     19  N1A       27.3710   -7.0610   34.4780 N.2   500  NAP500      0.0021
     20  C2A       27.8090   -7.8570   33.4130 C.3   500  NAP500      0.5254
     21  N3A       26.9720   -8.2740   32.4010 N.2   500  NAP500     -0.0055
     22  C4A       25.6500   -7.8780   32.4700 C.2   500  NAP500      0.3518
     23  O3        21.7220   -5.8900   25.7060 O.3   500  NAP500     -0.2703
     24  PN        20.3740   -5.9420   24.9010 P.3   500  NAP500      0.2189
     25  O1N       19.5130   -7.0850   25.3440 O.3   500  NAP500     -0.4371
     26  O2N       20.7370   -5.9870   23.4360 O.2   500  NAP500     -0.5170
     27  O5D       19.6770   -4.5310   25.0600 O.3   500  NAP500     -0.3112
     28  C5D       18.8180   -4.3160   26.2270 C.3   500  NAP500      0.1813
     29  C4D       17.3450   -4.4190   25.8340 C.3   500  NAP500      0.1799
     30  O4D       16.9530   -3.3840   24.8660 O.3   500  NAP500     -0.3327
     31  C3D       16.8680   -5.7230   25.1030 C.3   500  NAP500      0.2158
     32  O3D       16.9590   -6.8500   25.8800 O.3   500  NAP500     -0.2175
     33  C2D       15.5420   -5.2340   24.5220 C.3   500  NAP500      0.2309
     34  O2D       14.5940   -5.2170   25.6060 O.3   500  NAP500     -0.2158
     35  C1D       15.8570   -3.8340   24.0350 C.3   500  NAP500      0.2263
     36  N1N       16.2890   -3.7820   22.5850 N.pl3 500  NAP500     -0.2787
     37  C2N       15.4150   -3.1980   21.6640 C.3   500  NAP500      0.1244
     38  C3N       15.8550   -3.2430   20.3280 C.2   500  NAP500      0.0544
     39  C7N       14.9040   -2.6050   19.2920 C.2   500  NAP500      0.2818
     40  O7N       15.2420   -2.8040   18.1400 O.2   500  NAP500     -0.2670
     41  N7N       14.0980   -1.6590   19.7470 N.am  500  NAP500     -0.0839
     42  C4N       17.0780   -3.8320   19.8940 C.2   500  NAP500      0.0033
     43  C5N       17.9570   -4.4120   20.8510 C.2   500  NAP500      0.0157
     44  C6N       17.5200   -4.3720   22.2060 C.2   500  NAP500      0.0633
     45  P2B       22.7710  -11.9920   31.6730 P.3   500  NAP500      0.5328
     46  O1X       22.9180  -11.5030   33.1340 O.3   500  NAP500     -0.1145
     47  O2X       21.4400  -11.7180   31.0380 O.2   500  NAP500     -0.2224
     48  O3X       23.4000  -13.4000   31.4900 O.3   500  NAP500     -0.1145
@<TRIPOS>BOND
     1    40    39    2
     2    39    41   am
     3    39    38    1
     4    42    38    2
     5    42    43    1
     6    38    37    1
     7    43    44    2
     8    37    36    1
     9    44    36    1
    10    36    35    1
    11    26    24    2
    12    35    33    1
    13    35    30    1
    14    33    31    1
    15    33    34    1
    16    30    29    1
    17    24    27    1
    18    24    25    1
    19    24    23    1
    20    27    28    1
    21    31    29    1
    22    31    32    1
    23    23     1    1
    24    29    28    1
    25     2     1    2
    26     1     4    1
    27     1     3    1
    28     4     5    1
    29     5     6    1
    30     9     8    1
    31     6     8    1
    32     6     7    1
    33     8    10    1
    34     7    12    1
    35    10    12    1
    36    10    11    1
    37    12    13    1
    38    11    45    1
    39    47    45    2
    40    48    45    1
    41    13    14    1
    42    13    22    1
    43    45    46    1
    44    14    15    1
    45    21    22    2
    46    21    20    1
    47    22    16    1
    48    15    16    2
    49    20    19    1
    50    16    17    1
    51    19    17    2
    52    17    18    1
