@<TRIPOS>MOLECULE
2dv0_ZST_A_1.pdb
 29 32 0 0 0
SMALL
GASTEIGER

@<TRIPOS>ATOM
      1  C1        17.4470   -9.6570   15.0040 C.ar  600  ZST600      0.2767
      2  O1        17.7380  -10.3360   14.0260 O.2   600  ZST600     -0.2655
      3  C2        16.4990  -10.1750   15.9700 C.ar  600  ZST600      0.0588
      4  C3        16.1260   -9.4140   17.0810 C.ar  600  ZST600      0.0204
      5  C4        16.6990   -8.1030   17.2060 C.ar  600  ZST600      0.0902
      6  C5        15.9790  -11.4530   15.8060 C.ar  600  ZST600      0.0048
      7  C6        15.0990  -11.9720   16.7120 C.ar  600  ZST600      0.0002
      8  C7        14.7330  -11.2150   17.8170 C.ar  600  ZST600      0.0000
      9  C8        15.2270   -9.9590   18.0140 C.ar  600  ZST600      0.0014
     10  N1        17.8770   -8.3830   15.2630 N.ar  600  ZST600     -0.2091
     11  N2        17.5150   -7.6180   16.3550 N.ar  600  ZST600     -0.1702
     12  C9        18.8160   -7.6800   14.3960 C.3   600  ZST600      0.1956
     13  C10       17.8810   -6.9150   13.4150 C.2   600  ZST600      0.1594
     14  C11       15.9760   -6.0420   12.0870 C.3   600  ZST600      0.1279
     15  C12       17.2140   -5.4500   11.8270 C.2   600  ZST600      0.1234
     16  C13       14.7960   -5.6840   11.4220 C.2   600  ZST600     -0.0083
     17  C14       14.9040   -4.6920   10.5030 C.2   600  ZST600      0.0006
     18  C15       16.1170   -4.1040   10.2450 C.2   600  ZST600      0.0734
     19  C16       17.2960   -4.4360   10.8700 C.2   600  ZST600      0.0326
     20  N3        18.2630   -5.9750   12.6070 N.2   600  ZST600     -0.4012
     21  S1        16.1750   -7.2420   13.2890 S.3   600  ZST600     -0.0740
     22  C17       16.3800   -7.2350   18.3970 C.3   600  ZST600      0.1613
     23  C18       15.1270   -6.4640   18.1420 C.2   600  ZST600      0.3709
     24  O2        14.7090   -6.3800   16.9500 O.co2 600  ZST600     -0.2452
     25  O3        14.5650   -5.9630   19.1330 O.co2 600  ZST600     -0.2452
     26  C19       16.1130   -3.0210    9.2090 C.3   600  ZST600      0.4186
     27  F1        15.2450   -2.0870    9.6010 F     600  ZST600     -0.1659
     28  F2        15.8110   -3.3520    7.9860 F     600  ZST600     -0.1659
     29  F3        17.2780   -2.4230    9.0760 F     600  ZST600     -0.1659
@<TRIPOS>BOND
     1    28    26    1
     2    29    26    1
     3    26    27    1
     4    26    18    1
     5    18    17    1
     6    18    19    2
     7    17    16    2
     8    19    15    1
     9    16    14    1
    10    15    14    1
    11    15    20    2
    12    14    21    1
    13    20    13    2
    14    21    13    1
    15    13    12    1
    16     2     1    2
    17    12    10    1
    18     1    10   ar
    19     1     3   ar
    20    10    11   ar
    21     6     3   ar
    22     6     7   ar
    23     3     4   ar
    24    11     5   ar
    25     7     8   ar
    26    24    23   ar
    27     4     5   ar
    28     4     9   ar
    29     5    22    1
    30     8     9   ar
    31    23    22    1
    32    23    25   ar
