@<TRIPOS>MOLECULE
2dv0_NAP_A_1.pdb
 48 52 0 0 0
SMALL
GASTEIGER

@<TRIPOS>ATOM
      1  PA        22.3270   -5.4240   26.7910 P.3   500  NAP500      0.2189
      2  O1A       23.1490   -4.3190   26.2900 O.2   500  NAP500     -0.5170
      3  O2A       21.2480   -5.1790   27.7640 O.3   500  NAP500     -0.4371
      4  O5B       23.3040   -6.6140   27.2190 O.3   500  NAP500     -0.3112
      5  C5B       22.6780   -7.7070   27.9120 C.3   500  NAP500      0.1813
      6  C4B       23.8520   -8.7160   28.1390 C.3   500  NAP500      0.1820
      7  O4B       24.6170   -8.1920   29.2610 O.3   500  NAP500     -0.3136
      8  C3B       23.3650  -10.1280   28.6160 C.3   500  NAP500      0.2157
      9  O3B       24.3410  -11.0560   28.1620 O.3   500  NAP500     -0.2175
     10  C2B       23.4750   -9.9880   30.1750 C.3   500  NAP500      0.2314
     11  O2B       23.7880  -11.2830   30.7210 O.3   500  NAP500     -0.2630
     12  C1B       24.7070   -9.0940   30.3250 C.3   500  NAP500      0.3158
     13  N9A       24.5980   -8.3950   31.5680 N.pl3 500  NAP500     -0.1439
     14  C8A       23.5210   -7.7750   32.1600 C.3   500  NAP500      0.3377
     15  N7A       23.7820   -7.1850   33.2920 N.2   500  NAP500     -0.2095
     16  C5A       25.1270   -7.4330   33.4460 C.2   500  NAP500      0.2526
     17  C6A       25.8900   -7.0090   34.5340 C.2   500  NAP500      0.4393
     18  N6A       25.4350   -6.2920   35.5690 N.pl3 500  NAP500      0.2180
     19  N1A       27.2110   -7.3970   34.4530 N.2   500  NAP500      0.0021
     20  C2A       27.6990   -8.1380   33.3840 C.3   500  NAP500      0.5254
     21  N3A       26.9440   -8.5630   32.3310 N.2   500  NAP500     -0.0055
     22  C4A       25.6190   -8.1660   32.4060 C.2   500  NAP500      0.3518
     23  O3        21.7270   -6.1290   25.4460 O.3   500  NAP500     -0.2703
     24  PN        20.2980   -6.1030   24.7140 P.3   500  NAP500      0.2189
     25  O1N       19.5480   -7.2680   25.2740 O.3   500  NAP500     -0.4371
     26  O2N       20.5760   -6.1320   23.2350 O.2   500  NAP500     -0.5170
     27  O5D       19.5750   -4.7120   24.9340 O.3   500  NAP500     -0.3112
     28  C5D       18.7550   -4.5080   26.1270 C.3   500  NAP500      0.1813
     29  C4D       17.2810   -4.6350   25.7620 C.3   500  NAP500      0.1799
     30  O4D       16.9590   -3.6520   24.7250 O.3   500  NAP500     -0.3327
     31  C3D       16.7740   -5.9190   25.0810 C.3   500  NAP500      0.2158
     32  O3D       16.7190   -7.0900   25.8330 O.3   500  NAP500     -0.2175
     33  C2D       15.4800   -5.4510   24.4030 C.3   500  NAP500      0.2309
     34  O2D       14.4870   -5.4090   25.4380 O.3   500  NAP500     -0.2158
     35  C1D       15.8260   -4.0470   23.9320 C.3   500  NAP500      0.2263
     36  N1N       16.3070   -4.0050   22.4800 N.pl3 500  NAP500     -0.2787
     37  C2N       15.4220   -3.4180   21.5780 C.3   500  NAP500      0.1244
     38  C3N       15.8310   -3.4250   20.2380 C.2   500  NAP500      0.0544
     39  C7N       14.9010   -2.7930   19.2150 C.2   500  NAP500      0.2818
     40  O7N       15.1370   -2.9640   18.0410 O.2   500  NAP500     -0.2670
     41  N7N       14.0170   -1.9480   19.6930 N.am  500  NAP500     -0.0839
     42  C4N       17.0750   -4.0030   19.8450 C.2   500  NAP500      0.0033
     43  C5N       17.9330   -4.5800   20.7950 C.2   500  NAP500      0.0157
     44  C6N       17.5730   -4.5970   22.1720 C.2   500  NAP500      0.0633
     45  P2B       22.6560  -12.2250   31.4430 P.3   500  NAP500      0.5328
     46  O1X       22.7930  -11.8920   32.9730 O.3   500  NAP500     -0.1145
     47  O2X       21.3250  -11.9630   30.8940 O.2   500  NAP500     -0.2224
     48  O3X       23.2180  -13.6290   31.1350 O.3   500  NAP500     -0.1145
@<TRIPOS>BOND
     1    40    39    2
     2    39    41   am
     3    39    38    1
     4    42    38    2
     5    42    43    1
     6    38    37    1
     7    43    44    2
     8    37    36    1
     9    44    36    1
    10    36    35    1
    11    26    24    2
    12    35    33    1
    13    35    30    1
    14    33    31    1
    15    33    34    1
    16    24    27    1
    17    24    25    1
    18    24    23    1
    19    30    29    1
    20    27    28    1
    21    31    29    1
    22    31    32    1
    23    23     1    1
    24    29    28    1
    25     2     1    2
    26     1     4    1
    27     1     3    1
    28     4     5    1
    29     5     6    1
    30     6     8    1
    31     6     7    1
    32     9     8    1
    33     8    10    1
    34     7    12    1
    35    10    12    1
    36    10    11    1
    37    12    13    1
    38    11    45    1
    39    47    45    2
    40    48    45    1
    41    45    46    1
    42    13    14    1
    43    13    22    1
    44    14    15    1
    45    21    22    2
    46    21    20    1
    47    22    16    1
    48    15    16    2
    49    20    19    1
    50    16    17    1
    51    19    17    2
    52    17    18    1
