@<TRIPOS>MOLECULE
2dv1_HEM_A_1.pdb
 43 50 0 0 0
SMALL
GASTEIGER

@<TRIPOS>ATOM
      1  CHA      -10.3540  -62.1620  -39.4790 C.2   1500  HEM1500     0.0000
      2  CHB       -9.7600  -66.0150  -36.5910 C.2   1500  HEM1500     0.0000
      3  CHC      -14.5220  -66.7170  -36.5610 C.2   1500  HEM1500     0.0000
      4  CHD      -15.1690  -62.9200  -39.4600 C.2   1500  HEM1500     0.0000
      5  C1A       -9.7820  -63.0750  -38.6350 C.2   1500  HEM1500     0.0000
      6  C2A       -8.3760  -63.1580  -38.2520 C.2   1500  HEM1500     0.0000
      7  C3A       -8.2170  -64.2370  -37.4600 C.2   1500  HEM1500     0.0000
      8  C4A       -9.5070  -64.8790  -37.3320 C.2   1500  HEM1500     0.0000
      9  CMA       -6.9330  -64.7980  -36.7830 C.3   1500  HEM1500     0.0000
     10  CAA       -7.3290  -62.1380  -38.7350 C.3   1500  HEM1500     0.0000
     11  CBA       -7.3160  -60.8340  -37.9580 C.3   1500  HEM1500     0.0000
     12  CGA       -6.3350  -59.9300  -38.6770 C.2   1500  HEM1500     0.0000
     13  O1A       -5.1280  -60.3090  -38.7280 O.co2 1500  HEM1500     0.0000
     14  O2A       -6.7190  -58.8760  -39.2160 O.co2 1500  HEM1500     0.0000
     15  C1B      -10.9870  -66.5890  -36.3620 C.ar  1500  HEM1500     0.0000
     16  C2B      -11.2320  -67.8190  -35.6440 C.ar  1500  HEM1500     0.0000
     17  C3B      -12.5720  -68.0140  -35.6380 C.ar  1500  HEM1500     0.0000
     18  C4B      -13.1830  -66.9230  -36.3670 C.ar  1500  HEM1500     0.0000
     19  CMB      -10.1210  -68.7060  -35.0120 C.3   1500  HEM1500     0.0000
     20  CAB      -13.3640  -69.1640  -35.0190 C.2   1500  HEM1500     0.0000
     21  CBB      -12.8820  -70.4130  -34.9400 C.2   1500  HEM1500     0.0000
     22  C1C      -15.1290  -65.6900  -37.2660 C.2   1500  HEM1500     0.0000
     23  C2C      -16.5610  -65.4230  -37.3260 C.2   1500  HEM1500     0.0000
     24  C3C      -16.7610  -64.3710  -38.1530 C.2   1500  HEM1500     0.0000
     25  C4C      -15.4410  -63.9240  -38.5890 C.2   1500  HEM1500     0.0000
     26  CMC      -17.6150  -66.2450  -36.5640 C.3   1500  HEM1500     0.0000
     27  CAC      -18.0920  -63.6940  -38.5270 C.2   1500  HEM1500     0.0000
     28  CBC      -19.1780  -64.4430  -38.8110 C.2   1500  HEM1500     0.0000
     29  C1D      -13.9300  -62.4470  -39.8280 C.ar  1500  HEM1500     0.0000
     30  C2D      -13.7140  -61.4990  -40.8910 C.ar  1500  HEM1500     0.0000
     31  C3D      -12.2350  -61.2570  -40.8860 C.ar  1500  HEM1500     0.0000
     32  C4D      -11.6790  -62.0850  -39.8350 C.ar  1500  HEM1500     0.0000
     33  CMD      -14.7360  -60.8370  -41.8390 C.3   1500  HEM1500     0.0000
     34  CAD      -11.5160  -60.3550  -41.8500 C.3   1500  HEM1500     0.0000
     35  CBD      -11.1370  -59.0150  -41.2320 C.3   1500  HEM1500     0.0000
     36  CGD      -10.6310  -58.0280  -42.2160 C.2   1500  HEM1500     0.0000
     37  O1D       -9.9380  -57.0900  -41.7240 O.co2 1500  HEM1500     0.0000
     38  O2D      -10.9110  -58.1410  -43.4580 O.co2 1500  HEM1500     0.0000
     39  NA       -10.4410  -64.1380  -38.0420 N.2   1500  HEM1500     0.0000
     40  NB       -12.1860  -66.0510  -36.7880 N.ar  1500  HEM1500     0.0000
     41  NC       -14.4970  -64.7590  -38.0250 N.2   1500  HEM1500     0.0000
     42  ND       -12.7200  -62.8050  -39.2270 N.ar  1500  HEM1500     0.0000
     43 FE        -12.4630  -64.6270  -38.2280 Fe    1500  HEM1500     0.0000
@<TRIPOS>BOND
     1    38    36   ar
     2    36    37   ar
     3    36    35    1
     4    34    35    1
     5    34    31    1
     6    33    30    1
     7    30    31   ar
     8    30    29   ar
     9    31    32   ar
    10    32     1    2
    11    32    42   ar
    12    29     4    2
    13    29    42   ar
    14     1     5    1
    15     4    25    1
    16    42    43    1
    17    14    12   ar
    18    28    27    2
    19    10     6    1
    20    10    11    1
    21    13    12   ar
    22    12    11    1
    23     5     6    1
    24     5    39    2
    25    25    24    1
    26    25    41    2
    27    27    24    1
    28     6     7    2
    29    43    39    1
    30    43    41    1
    31    43    40    1
    32    24    23    2
    33    39     8    1
    34    41    22    1
    35     7     8    1
    36     7     9    1
    37     8     2    2
    38    23    22    1
    39    23    26    1
    40    22     3    2
    41    40    18   ar
    42    40    15   ar
    43     2    15    1
    44     3    18    1
    45    18    17   ar
    46    15    16   ar
    47    16    17   ar
    48    16    19    1
    49    17    20    1
    50    20    21    2
