@<TRIPOS>MOLECULE
2dv2_HEM_A_1.pdb
 43 50 0 0 0
SMALL
GASTEIGER

@<TRIPOS>ATOM
      1  CHA      -10.1990  -61.4420  -39.2130 C.2   1500  HEM1500     0.0000
      2  CHB       -9.7350  -65.2570  -36.2840 C.2   1500  HEM1500     0.0000
      3  CHC      -14.4730  -66.1790  -36.3770 C.2   1500  HEM1500     0.0000
      4  CHD      -14.9920  -62.2810  -39.1980 C.2   1500  HEM1500     0.0000
      5  C1A       -9.6600  -62.3680  -38.3480 C.2   1500  HEM1500     0.0000
      6  C2A       -8.2940  -62.4630  -37.9190 C.2   1500  HEM1500     0.0000
      7  C3A       -8.1470  -63.5400  -37.1480 C.2   1500  HEM1500     0.0000
      8  C4A       -9.4440  -64.1290  -37.0120 C.2   1500  HEM1500     0.0000
      9  CMA       -6.8810  -64.0450  -36.4080 C.3   1500  HEM1500     0.0000
     10  CAA       -7.2240  -61.4940  -38.3920 C.3   1500  HEM1500     0.0000
     11  CBA       -7.1680  -60.1590  -37.6490 C.3   1500  HEM1500     0.0000
     12  CGA       -6.1860  -59.3140  -38.4180 C.2   1500  HEM1500     0.0000
     13  O1A       -5.0060  -59.7740  -38.4160 O.co2 1500  HEM1500     0.0000
     14  O2A       -6.5490  -58.2370  -39.0090 O.co2 1500  HEM1500     0.0000
     15  C1B      -10.9580  -65.8550  -36.1000 C.ar  1500  HEM1500     0.0000
     16  C2B      -11.1820  -67.0930  -35.3690 C.ar  1500  HEM1500     0.0000
     17  C3B      -12.5060  -67.3380  -35.4030 C.ar  1500  HEM1500     0.0000
     18  C4B      -13.1340  -66.2940  -36.1820 C.ar  1500  HEM1500     0.0000
     19  CMB      -10.0780  -67.9490  -34.6780 C.3   1500  HEM1500     0.0000
     20  CAB      -13.3130  -68.5150  -34.7950 C.2   1500  HEM1500     0.0000
     21  CBB      -12.7950  -69.7340  -34.6280 C.2   1500  HEM1500     0.0000
     22  C1C      -15.0480  -65.1250  -37.0460 C.2   1500  HEM1500     0.0000
     23  C2C      -16.4640  -64.8350  -37.1180 C.2   1500  HEM1500     0.0000
     24  C3C      -16.5940  -63.7490  -37.9370 C.2   1500  HEM1500     0.0000
     25  C4C      -15.2640  -63.3270  -38.3520 C.2   1500  HEM1500     0.0000
     26  CMC      -17.5150  -65.6730  -36.3760 C.3   1500  HEM1500     0.0000
     27  CAC      -17.8460  -62.9590  -38.3940 C.2   1500  HEM1500     0.0000
     28  CBC      -18.9560  -63.6000  -38.7110 C.2   1500  HEM1500     0.0000
     29  C1D      -13.7670  -61.8090  -39.6060 C.ar  1500  HEM1500     0.0000
     30  C2D      -13.5880  -60.8930  -40.6810 C.ar  1500  HEM1500     0.0000
     31  C3D      -12.0990  -60.6140  -40.6970 C.ar  1500  HEM1500     0.0000
     32  C4D      -11.5220  -61.3990  -39.6140 C.ar  1500  HEM1500     0.0000
     33  CMD      -14.6530  -60.2990  -41.6290 C.3   1500  HEM1500     0.0000
     34  CAD      -11.3820  -59.6810  -41.6870 C.3   1500  HEM1500     0.0000
     35  CBD      -10.8970  -58.4080  -40.9840 C.3   1500  HEM1500     0.0000
     36  CGD      -10.3970  -57.3670  -41.9440 C.2   1500  HEM1500     0.0000
     37  O1D       -9.7250  -56.4070  -41.4600 O.co2 1500  HEM1500     0.0000
     38  O2D      -10.7340  -57.4600  -43.1620 O.co2 1500  HEM1500     0.0000
     39  NA       -10.3370  -63.3870  -37.7590 N.2   1500  HEM1500     0.0000
     40  NB       -12.1620  -65.3820  -36.6130 N.ar  1500  HEM1500     0.0000
     41  NC       -14.3610  -64.1890  -37.8080 N.2   1500  HEM1500     0.0000
     42  ND       -12.5270  -62.1000  -39.0070 N.ar  1500  HEM1500     0.0000
     43 FE        -12.3130  -63.9510  -37.9840 Fe    1500  HEM1500     0.0000
@<TRIPOS>BOND
     1    38    36   ar
     2    36    37   ar
     3    36    35    1
     4    34    35    1
     5    34    31    1
     6    33    30    1
     7    31    30   ar
     8    31    32   ar
     9    30    29   ar
    10    32     1    2
    11    32    42   ar
    12    29     4    2
    13    29    42   ar
    14     1     5    1
    15     4    25    1
    16    14    12   ar
    17    42    43    1
    18    28    27    2
    19    12    13   ar
    20    12    11    1
    21    27    24    1
    22    10     6    1
    23    10    11    1
    24    25    24    1
    25    25    41    2
    26     5     6    1
    27     5    39    2
    28    43    41    1
    29    43    39    1
    30    43    40    1
    31    24    23    2
    32     6     7    2
    33    41    22    1
    34    39     8    1
    35     7     8    1
    36     7     9    1
    37    23    22    1
    38    23    26    1
    39    22     3    2
    40     8     2    2
    41    40    18   ar
    42    40    15   ar
    43     3    18    1
    44     2    15    1
    45    18    17   ar
    46    15    16   ar
    47    17    16   ar
    48    17    20    1
    49    16    19    1
    50    20    21    2
