@<TRIPOS>MOLECULE
2dv3_SAH_A_1.pdb
 26 28 0 0 0
SMALL
GASTEIGER

@<TRIPOS>ATOM
      1  N         33.4680   91.7420   66.1030 N.3   1300  SAH1300    -0.1208
      2  CA        32.0090   91.3130   65.9440 C.3   1300  SAH1300     0.1952
      3  CB        31.3610   90.6510   67.1250 C.3   1300  SAH1300     0.0422
      4  CG        31.9910   89.3920   67.7090 C.3   1300  SAH1300     0.0597
      5  SD        30.7900   88.6920   68.9200 S.3   1300  SAH1300    -0.1375
      6  C         31.1870   92.6080   65.5080 C.2   1300  SAH1300     0.3819
      7  O         31.7870   93.6940   65.3820 O.co2 1300  SAH1300    -0.2441
      8  OXT       29.9190   92.4390   65.3020 O.co2 1300  SAH1300    -0.2441
      9  C5'       29.8300   87.6800   67.8620 C.3   1300  SAH1300     0.0899
     10  C4'       28.3660   87.5650   68.4470 C.3   1300  SAH1300     0.1630
     11  O4'       27.7120   88.8410   68.2200 O.3   1300  SAH1300    -0.3153
     12  C3'       27.5100   86.5250   67.8130 C.3   1300  SAH1300     0.2168
     13  O3'       27.6640   85.2780   68.4770 O.3   1300  SAH1300    -0.2175
     14  C2'       26.1040   87.1610   67.9290 C.3   1300  SAH1300     0.2569
     15  O2'       25.5150   86.9150   69.2090 O.3   1300  SAH1300    -0.2130
     16  C1'       26.3470   88.6520   67.6360 C.3   1300  SAH1300     0.3185
     17  N9        26.3260   88.9870   66.3230 N.pl3 1300  SAH1300    -0.1439
     18  C8        27.2950   89.2430   65.3620 C.3   1300  SAH1300     0.3377
     19  N7        26.8360   89.5480   64.1830 N.2   1300  SAH1300    -0.2095
     20  C5        25.4240   89.5050   64.3300 C.2   1300  SAH1300     0.2526
     21  C6        24.3600   89.7490   63.3910 C.2   1300  SAH1300     0.4393
     22  N6        24.5560   90.0840   62.1050 N.pl3 1300  SAH1300     0.2180
     23  N1        23.0870   89.6120   63.9080 N.2   1300  SAH1300     0.0021
     24  C2        22.8350   89.2720   65.2010 C.3   1300  SAH1300     0.5254
     25  N3        23.8260   89.0310   66.1250 N.2   1300  SAH1300    -0.0055
     26  C4        25.0910   89.1650   65.6220 C.2   1300  SAH1300     0.3518
@<TRIPOS>BOND
     1    22    21    1
     2    21    23    2
     3    21    20    1
     4    23    24    1
     5    19    20    2
     6    19    18    1
     7    20    26    1
     8    24    25    1
     9     8     6   ar
    10    18    17    1
    11     7     6   ar
    12     6     2    1
    13    26    25    2
    14    26    17    1
    15     2     1    1
    16     2     3    1
    17    17    16    1
    18     3     4    1
    19    16    14    1
    20    16    11    1
    21     4     5    1
    22    12    14    1
    23    12    10    1
    24    12    13    1
    25     9    10    1
    26     9     5    1
    27    14    15    1
    28    11    10    1
