@<TRIPOS>MOLECULE
2dv4_SAH_A_1.pdb
 26 28 0 0 0
SMALL
GASTEIGER

@<TRIPOS>ATOM
      1  N         33.6880   92.8950   66.1290 N.3   1300  SAH1300    -0.1208
      2  CA        32.2760   92.3540   65.8960 C.3   1300  SAH1300     0.1952
      3  CB        31.6300   91.5850   67.0120 C.3   1300  SAH1300     0.0422
      4  CG        32.3260   90.3500   67.5620 C.3   1300  SAH1300     0.0597
      5  SD        31.1980   89.6080   68.8130 S.3   1300  SAH1300    -0.1375
      6  C         31.3840   93.5980   65.4890 C.2   1300  SAH1300     0.3819
      7  O         31.9210   94.7230   65.4440 O.co2 1300  SAH1300    -0.2441
      8  OXT       30.1330   93.3550   65.2220 O.co2 1300  SAH1300    -0.2441
      9  C5'       30.3290   88.4610   67.8150 C.3   1300  SAH1300     0.0899
     10  C4'       28.8110   88.4000   68.2620 C.3   1300  SAH1300     0.1630
     11  O4'       28.2240   89.6810   67.9560 O.3   1300  SAH1300    -0.3153
     12  C3'       27.9780   87.3820   67.5640 C.3   1300  SAH1300     0.2168
     13  O3'       28.0920   86.1110   68.1960 O.3   1300  SAH1300    -0.2175
     14  C2'       26.5690   88.0230   67.6400 C.3   1300  SAH1300     0.2569
     15  O2'       25.9000   87.7250   68.8660 O.3   1300  SAH1300    -0.2130
     16  C1'       26.8280   89.5240   67.4220 C.3   1300  SAH1300     0.3185
     17  N9        26.7470   89.9070   66.1300 N.pl3 1300  SAH1300    -0.1439
     18  C8        27.6650   90.2360   65.1470 C.3   1300  SAH1300     0.3377
     19  N7        27.1500   90.5620   63.9990 N.2   1300  SAH1300    -0.2095
     20  C5        25.7410   90.4540   64.1960 C.2   1300  SAH1300     0.2526
     21  C6        24.6210   90.6810   63.3080 C.2   1300  SAH1300     0.4393
     22  N6        24.7400   91.0640   62.0310 N.pl3 1300  SAH1300     0.2180
     23  N1        23.3800   90.4700   63.8750 N.2   1300  SAH1300     0.0021
     24  C2        23.2010   90.0770   65.1660 C.3   1300  SAH1300     0.5254
     25  N3        24.2400   89.8490   66.0400 N.2   1300  SAH1300    -0.0055
     26  C4        25.4770   90.0570   65.4860 C.2   1300  SAH1300     0.3518
@<TRIPOS>BOND
     1    22    21    1
     2    21    23    2
     3    21    20    1
     4    23    24    1
     5    19    20    2
     6    19    18    1
     7    20    26    1
     8    18    17    1
     9    24    25    1
    10     8     6   ar
    11     7     6   ar
    12    26    25    2
    13    26    17    1
    14     6     2    1
    15     2     1    1
    16     2     3    1
    17    17    16    1
    18     3     4    1
    19    16    14    1
    20    16    11    1
    21     4     5    1
    22    12    14    1
    23    12    13    1
    24    12    10    1
    25    14    15    1
    26     9    10    1
    27     9     5    1
    28    11    10    1
