@<TRIPOS>MOLECULE
2dv5_SAH_A_1.pdb
 26 28 0 0 0
SMALL
GASTEIGER

@<TRIPOS>ATOM
      1  N         33.8030   92.9000   66.0380 N.3   1300  SAH1300    -0.1208
      2  CA        32.3680   92.3810   65.9020 C.3   1300  SAH1300     0.1952
      3  CB        31.7640   91.6670   67.0800 C.3   1300  SAH1300     0.0422
      4  CG        32.4560   90.4360   67.6510 C.3   1300  SAH1300     0.0597
      5  SD        31.2860   89.6600   68.8460 S.3   1300  SAH1300    -0.1375
      6  C         31.4750   93.6280   65.4930 C.2   1300  SAH1300     0.3819
      7  O         32.0250   94.7460   65.3720 O.co2 1300  SAH1300    -0.2441
      8  OXT       30.2110   93.3960   65.3060 O.co2 1300  SAH1300    -0.2441
      9  C5'       30.3420   88.6530   67.7630 C.3   1300  SAH1300     0.0899
     10  C4'       28.8660   88.5090   68.3240 C.3   1300  SAH1300     0.1630
     11  O4'       28.2090   89.7860   68.1340 O.3   1300  SAH1300    -0.3153
     12  C3'       28.0190   87.4850   67.6450 C.3   1300  SAH1300     0.2168
     13  O3'       28.1600   86.2130   68.2720 O.3   1300  SAH1300    -0.2175
     14  C2'       26.6040   88.1120   67.7570 C.3   1300  SAH1300     0.2569
     15  O2'       25.9730   87.8100   69.0040 O.3   1300  SAH1300    -0.2130
     16  C1'       26.8460   89.6120   67.5360 C.3   1300  SAH1300     0.3185
     17  N9        26.8130   89.9920   66.2410 N.pl3 1300  SAH1300    -0.1439
     18  C8        27.7640   90.2990   65.2760 C.3   1300  SAH1300     0.3377
     19  N7        27.2810   90.6330   64.1150 N.2   1300  SAH1300    -0.2095
     20  C5        25.8620   90.5550   64.2830 C.2   1300  SAH1300     0.2526
     21  C6        24.7640   90.8040   63.3710 C.2   1300  SAH1300     0.4393
     22  N6        24.9160   91.1820   62.0960 N.pl3 1300  SAH1300     0.2180
     23  N1        23.5090   90.6210   63.9100 N.2   1300  SAH1300     0.0021
     24  C2        23.2940   90.2340   65.1980 C.3   1300  SAH1300     0.5254
     25  N3        24.3090   89.9860   66.0940 N.2   1300  SAH1300    -0.0055
     26  C4        25.5620   90.1670   65.5680 C.2   1300  SAH1300     0.3518
@<TRIPOS>BOND
     1    22    21    1
     2    21    23    2
     3    21    20    1
     4    23    24    1
     5    19    20    2
     6    19    18    1
     7    20    26    1
     8    24    25    1
     9    18    17    1
    10     8     6   ar
    11     7     6   ar
    12     6     2    1
    13    26    25    2
    14    26    17    1
    15     2     1    1
    16     2     3    1
    17    17    16    1
    18     3     4    1
    19    16    14    1
    20    16    11    1
    21    12    14    1
    22    12    13    1
    23    12    10    1
    24     4     5    1
    25    14    15    1
    26     9    10    1
    27     9     5    1
    28    11    10    1
