@<TRIPOS>MOLECULE
2dv7_SAH_A_1.pdb
 26 28 0 0 0
SMALL
GASTEIGER

@<TRIPOS>ATOM
      1  N         34.0790   93.7670   66.5670 N.3   1300  SAH1300    -0.1208
      2  CA        32.6200   93.3320   66.5080 C.3   1300  SAH1300     0.1952
      3  CB        32.0430   92.6610   67.7160 C.3   1300  SAH1300     0.0422
      4  CG        32.7010   91.4000   68.2600 C.3   1300  SAH1300     0.0597
      5  SD        31.4990   90.6450   69.4320 S.3   1300  SAH1300    -0.1375
      6  C         31.7740   94.6250   66.1290 C.2   1300  SAH1300     0.3819
      7  O         32.3740   95.7040   65.9620 O.co2 1300  SAH1300    -0.2441
      8  OXT       30.4850   94.4630   66.0120 O.co2 1300  SAH1300    -0.2441
      9  C5'       30.5480   89.6940   68.3280 C.3   1300  SAH1300     0.0899
     10  C4'       29.0740   89.5980   68.8750 C.3   1300  SAH1300     0.1630
     11  O4'       28.4450   90.8710   68.6090 O.3   1300  SAH1300    -0.3153
     12  C3'       28.2310   88.5540   68.2360 C.3   1300  SAH1300     0.2168
     13  O3'       28.3780   87.3040   68.9090 O.3   1300  SAH1300    -0.2175
     14  C2'       26.8200   89.1950   68.3300 C.3   1300  SAH1300     0.2569
     15  O2'       26.1980   88.9460   69.5950 O.3   1300  SAH1300    -0.2130
     16  C1'       27.0740   90.6900   68.0350 C.3   1300  SAH1300     0.3185
     17  N9        27.0350   91.0210   66.7130 N.pl3 1300  SAH1300    -0.1439
     18  C8        27.9820   91.2470   65.7230 C.3   1300  SAH1300     0.3377
     19  N7        27.5000   91.5530   64.5530 N.2   1300  SAH1300    -0.2095
     20  C5        26.0870   91.5430   64.7410 C.2   1300  SAH1300     0.2526
     21  C6        24.9920   91.8020   63.8300 C.2   1300  SAH1300     0.4393
     22  N6        25.1510   92.1230   62.5410 N.pl3 1300  SAH1300     0.2180
     23  N1        23.7330   91.6950   64.3870 N.2   1300  SAH1300     0.0021
     24  C2        23.5140   91.3690   65.6950 C.3   1300  SAH1300     0.5254
     25  N3        24.5300   91.1150   66.5910 N.2   1300  SAH1300    -0.0055
     26  C4        25.7860   91.2200   66.0440 C.2   1300  SAH1300     0.3518
@<TRIPOS>BOND
     1    22    21    1
     2    21    23    2
     3    21    20    1
     4    23    24    1
     5    19    20    2
     6    19    18    1
     7    20    26    1
     8    24    25    1
     9    18    17    1
    10     7     6   ar
    11     8     6   ar
    12    26    25    2
    13    26    17    1
    14     6     2    1
    15     2     1    1
    16     2     3    1
    17    17    16    1
    18     3     4    1
    19    16    14    1
    20    16    11    1
    21    12    14    1
    22    12    10    1
    23    12    13    1
    24     4     5    1
    25     9    10    1
    26     9     5    1
    27    14    15    1
    28    11    10    1
