@<TRIPOS>MOLECULE
2dv9_GAL_A_1.pdb
 11 11 0 0 0
SMALL
GASTEIGER

@<TRIPOS>ATOM
      1  C1       117.8780   36.5760   12.6600 C.3   239  GAL239      0.1777
      2  C2       116.4830   36.7390   13.2730 C.3   239  GAL239      0.2141
      3  C3       116.0860   38.2090   13.4490 C.3   239  GAL239      0.2173
      4  C4       117.1880   39.0360   14.2800 C.3   239  GAL239      0.2142
      5  C5       118.5600   38.9080   13.5440 C.3   239  GAL239      0.1810
      6  C6       119.9020   39.5240   13.8990 C.3   239  GAL239      0.2141
      7  O2       115.5800   36.0350   12.4280 O.3   239  GAL239     -0.2176
      8  O3       114.8450   38.2520   14.1400 O.3   239  GAL239     -0.2175
      9  O4       117.3810   38.5080   15.5980 O.3   239  GAL239     -0.2176
     10  O5       118.8720   37.4350   13.3920 O.3   239  GAL239     -0.3481
     11  O6       121.1810   39.6220   13.2870 O.3   239  GAL239     -0.2176
@<TRIPOS>BOND
     1     7     2    1
     2     1     2    1
     3     1    10    1
     4     2     3    1
     5    11     6    1
     6    10     5    1
     7     3     8    1
     8     3     4    1
     9     5     6    1
    10     5     4    1
    11     4     9    1
