@<TRIPOS>MOLECULE
2dva_GAL_A_1.pdb
 11 11 0 0 0
SMALL
GASTEIGER

@<TRIPOS>ATOM
      1  C1       116.8740   36.5520   12.5130 C.3   239  GAL239      0.1777
      2  C2       115.4550   36.7890   13.0130 C.3   239  GAL239      0.2141
      3  C3       115.1290   38.2890   13.1030 C.3   239  GAL239      0.2173
      4  C4       116.2150   39.0990   14.0000 C.3   239  GAL239      0.2142
      5  C5       117.6100   38.8950   13.3260 C.3   239  GAL239      0.1810
      6  C6       118.9580   39.4830   13.6730 C.3   239  GAL239      0.2141
      7  O2       114.6210   36.0940   12.1040 O.3   239  GAL239     -0.2176
      8  O3       113.8450   38.4360   13.6960 O.3   239  GAL239     -0.2175
      9  O4       116.3360   38.5480   15.3250 O.3   239  GAL239     -0.2176
     10  O5       117.8700   37.3980   13.2720 O.3   239  GAL239     -0.3481
     11  O6       120.1770   39.6820   12.9890 O.3   239  GAL239     -0.2176
@<TRIPOS>BOND
     1     7     2    1
     2     1     2    1
     3     1    10    1
     4    11     6    1
     5     2     3    1
     6     3     8    1
     7     3     4    1
     8    10     5    1
     9     5     6    1
    10     5     4    1
    11     4     9    1
