@<TRIPOS>MOLECULE
2dva_MGC_A_1.pdb
 16 16 0 0 0
SMALL
GASTEIGER

@<TRIPOS>ATOM
      1  O6       123.2900   33.3550   12.5030 O.3   240  MGC240     -0.2176
      2  C6       122.3080   34.2630   12.9590 C.3   240  MGC240      0.2142
      3  C5       120.9560   34.0480   12.2800 C.3   240  MGC240      0.1834
      4  O5       120.4770   32.6000   12.4000 O.3   240  MGC240     -0.3262
      5  C1       119.2080   32.2340   11.6870 C.3   240  MGC240      0.2586
      6  O1       119.3860   32.4720   10.2740 O.3   240  MGC240     -0.3265
      7  CM       120.2350   31.5050    9.3770 C.3   240  MGC240      0.1769
      8  C2       118.0820   33.0930   12.2760 C.3   240  MGC240      0.1842
      9  N2       116.9420   32.6700   11.5450 N.am  240  MGC240     -0.1992
     10  C7       115.6790   32.5090   12.0530 C.2   240  MGC240      0.2420
     11  O7       115.4400   32.2620   13.2540 O.2   240  MGC240     -0.2733
     12  C8       114.5180   32.6360   11.0820 C.3   240  MGC240      0.0964
     13  C3       118.4360   34.5920   12.1560 C.3   240  MGC240      0.2094
     14  O3       117.4240   35.2760   12.7900 O.3   240  MGC240     -0.2183
     15  C4       119.8030   34.9920   12.8680 C.3   240  MGC240      0.2136
     16  O4       119.6120   34.8030   14.2950 O.3   240  MGC240     -0.2176
@<TRIPOS>BOND
     1     7     6    1
     2     6     5    1
     3    12    10    1
     4     9    10   am
     5     9     8    1
     6     5     8    1
     7     5     4    1
     8    10    11    2
     9    13     8    1
    10    13    14    1
    11    13    15    1
    12     3     4    1
    13     3    15    1
    14     3     2    1
    15     1     2    1
    16    15    16    1
