@<TRIPOS>MOLECULE
2dvb_GAL_A_1.pdb
 12 12 0 0 0
SMALL
GASTEIGER

@<TRIPOS>ATOM
      1  C1       115.8120   36.6830   11.8480 C.3   239  GAL239      0.3024
      2  C2       114.4960   36.8380   12.5870 C.3   239  GAL239      0.2434
      3  C3       114.2480   38.3140   12.8780 C.3   239  GAL239      0.2199
      4  C4       115.4360   38.9660   13.7990 C.3   239  GAL239      0.2144
      5  C5       116.8030   38.7880   13.0330 C.3   239  GAL239      0.1836
      6  C6       118.1960   39.1990   13.4390 C.3   239  GAL239      0.2142
      7  O1       116.2520   35.3470   11.6180 O.3   239  GAL239     -0.1869
      8  O2       113.4970   36.2460   11.7700 O.3   239  GAL239     -0.2148
      9  O3       113.0190   38.4350   13.5630 O.3   239  GAL239     -0.2174
     10  O4       115.6090   38.2960   15.0510 O.3   239  GAL239     -0.2176
     11  O5       116.9620   37.3020   12.6200 O.3   239  GAL239     -0.3236
     12  O6       119.4730   39.1020   12.8640 O.3   239  GAL239     -0.2176
@<TRIPOS>BOND
     1     7     1    1
     2     8     2    1
     3     1     2    1
     4     1    11    1
     5     2     3    1
     6    11     5    1
     7    12     6    1
     8     3     9    1
     9     3     4    1
    10     5     6    1
    11     5     4    1
    12     4    10    1
