@<TRIPOS>MOLECULE
2dvc_SUC_A_1.pdb
 23 24 0 0 0
SMALL
GASTEIGER

@<TRIPOS>ATOM
      1  C1         9.9570   20.7950   18.9110 C.3   1001  SUC1001     0.2713
      2  C2         9.5800   21.4960   20.2390 C.3   1001  SUC1001     0.2406
      3  C3         9.4590   20.4790   21.3950 C.3   1001  SUC1001     0.2198
      4  C4         8.4380   19.4340   21.0030 C.3   1001  SUC1001     0.2144
      5  C5         8.8260   18.7170   19.6910 C.3   1001  SUC1001     0.1835
      6  C6         7.9410   17.6300   19.1400 C.3   1001  SUC1001     0.2142
      7  O1        11.2910   20.1950   18.9500 O.3   1001  SUC1001    -0.3033
      8  O2        10.5490   22.4850   20.5890 O.3   1001  SUC1001    -0.2149
      9  O3         9.1160   21.1840   22.5950 O.3   1001  SUC1001    -0.2174
     10  O4         8.3290   18.5130   22.1190 O.3   1001  SUC1001    -0.2176
     11  O5         8.9490   19.7490   18.6120 O.3   1001  SUC1001    -0.3256
     12  O6         6.5780   17.8970   19.3830 O.3   1001  SUC1001    -0.2176
     13  C1'       12.8910   22.0060   18.7250 C.3   1001  SUC1001     0.2406
     14  C2'       12.3320   20.7690   18.0670 C.3   1001  SUC1001     0.2516
     15  C3'       13.3950   19.6470   17.7780 C.3   1001  SUC1001     0.2381
     16  C4'       12.7240   18.8610   16.6690 C.3   1001  SUC1001     0.2167
     17  C5'       12.1320   19.9730   15.8370 C.3   1001  SUC1001     0.1835
     18  C6'       10.8400   19.5380   15.1280 C.3   1001  SUC1001     0.2142
     19  O1'       13.8550   22.6210   18.0160 O.3   1001  SUC1001    -0.2149
     20  O2'       11.8080   21.0240   16.7740 O.3   1001  SUC1001    -0.3272
     21  O3'       13.6370   18.8680   18.9320 O.3   1001  SUC1001    -0.2150
     22  O4'       13.6990   18.1230   15.8950 O.3   1001  SUC1001    -0.2175
     23  O6'       10.3230   20.5960   14.3620 O.3   1001  SUC1001    -0.2176
@<TRIPOS>BOND
     1    23    18    1
     2    18    17    1
     3    17    16    1
     4    17    20    1
     5    22    16    1
     6    16    15    1
     7    20    14    1
     8    15    14    1
     9    15    21    1
    10    19    13    1
    11    14    13    1
    12    14     7    1
    13    11     1    1
    14    11     5    1
    15     1     7    1
    16     1     2    1
    17     6    12    1
    18     6     5    1
    19     5     4    1
    20     2     8    1
    21     2     3    1
    22     4     3    1
    23     4    10    1
    24     3     9    1
