@<TRIPOS>MOLECULE
2dvd_GAL_A_1.pdb
 11 11 0 0 0
SMALL
GASTEIGER

@<TRIPOS>ATOM
      1  C1       116.7520   36.3820   12.2670 C.3   239  GAL239      0.1777
      2  C2       115.3950   36.6080   12.9410 C.3   239  GAL239      0.2141
      3  C3       115.1230   38.1070   13.0650 C.3   239  GAL239      0.2173
      4  C4       116.2700   38.7860   13.8300 C.3   239  GAL239      0.2142
      5  C5       117.5930   38.4860   13.1190 C.3   239  GAL239      0.1810
      6  C6       118.7990   39.0300   13.8540 C.3   239  GAL239      0.2141
      7  O2       114.3710   35.9980   12.1750 O.3   239  GAL239     -0.2176
      8  O3       113.8910   38.3180   13.7320 O.3   239  GAL239     -0.2175
      9  O4       116.3250   38.2920   15.1610 O.3   239  GAL239     -0.2176
     10  O5       117.7780   37.0580   12.9980 O.3   239  GAL239     -0.3481
     11  O6       119.9020   39.1830   12.9720 O.3   239  GAL239     -0.2176
@<TRIPOS>BOND
     1     7     2    1
     2     1     2    1
     3     1    10    1
     4     2     3    1
     5    11     6    1
     6    10     5    1
     7     3     8    1
     8     3     4    1
     9     5     4    1
    10     5     6    1
    11     4     9    1
