@<TRIPOS>MOLECULE
2dve_BT5_B_1.pdb
 38 42 0 0 0
SMALL
GASTEIGER

@<TRIPOS>ATOM
      1  CBB      -19.3470  -11.1550   -6.9090 C.2   1301  BT51301     0.3210
      2  OBB      -20.1200  -12.0080   -6.3500 O.3   1301  BT51301    -0.4101
      3  OCB      -18.1010  -11.1810   -6.7310 O.2   1301  BT51301    -0.2498
      4  CAB      -20.0260  -10.1290   -7.7940 C.3   1301  BT51301     0.1098
      5  C9B      -20.1630   -8.9000   -7.4660 C.3   1301  BT51301     0.0117
      6  C8B      -20.8260   -8.0670   -8.5090 C.3   1301  BT51301     0.0015
      7  C7B      -20.9530   -6.6350   -8.0440 C.3   1301  BT51301     0.0129
      8  C2B      -21.6180   -5.6880   -9.0270 C.3   1301  BT51301     0.0729
      9  S1B      -21.7350   -4.0130   -8.4160 S.3   1301  BT51301    -0.1369
     10  C6B      -22.5940   -3.6040   -9.9500 C.3   1301  BT51301     0.0848
     11  C5B      -23.6490   -4.7270  -10.0310 C.3   1301  BT51301     0.1509
     12  N1B      -24.8400   -4.4500   -9.1990 N.2   1301  BT51301    -0.1859
     13  C3B      -24.9800   -5.4310   -8.2750 C.1   1301  BT51301     0.2386
     14  O3B      -25.8850   -5.4860   -7.4130 O.2   1301  BT51301    -0.2023
     15  N2B      -23.9920   -6.3720   -8.3970 N.2   1301  BT51301    -0.1860
     16  C4B      -23.0830   -6.0460   -9.4720 C.3   1301  BT51301     0.1500
     17  P        -19.6740  -13.2870   -5.3240 P.3   1301  BT51301     0.2722
     18  OP1      -18.6250  -14.1640   -5.9760 O.2   1301  BT51301    -0.5082
     19  OP2      -20.8590  -13.9910   -5.1460 O.3   1301  BT51301    -0.4273
     20  O5'      -19.0470  -12.7230   -4.1540 O.3   1301  BT51301    -0.3024
     21  C5'      -19.6390  -11.8300   -3.1690 C.3   1301  BT51301     0.1823
     22  C4'      -18.6900  -11.8120   -2.0920 C.3   1301  BT51301     0.1822
     23  O4'      -17.6810  -10.8190   -2.1750 O.3   1301  BT51301    -0.3135
     24  C3'      -19.3960  -11.5640   -0.7920 C.3   1301  BT51301     0.2184
     25  O3'      -19.9740  -12.7460   -0.2210 O.3   1301  BT51301    -0.2174
     26  C2'      -18.3190  -10.9270    0.0790 C.3   1301  BT51301     0.2570
     27  O2'      -17.6180  -11.8550    0.8830 O.3   1301  BT51301    -0.2130
     28  C1'      -17.4020  -10.2330   -0.8930 C.3   1301  BT51301     0.3186
     29  N9       -17.6060   -8.7220   -1.0700 N.pl3 1301  BT51301    -0.1439
     30  C8       -18.7200   -7.9490   -0.7910 C.3   1301  BT51301     0.3377
     31  N7       -18.4770   -6.6500   -1.1110 N.2   1301  BT51301    -0.2095
     32  C5       -17.2140   -6.5900   -1.5910 C.2   1301  BT51301     0.2526
     33  C6       -16.4540   -5.5070   -2.0790 C.2   1301  BT51301     0.4393
     34  N6       -16.9490   -4.2820   -2.1200 N.pl3 1301  BT51301     0.2180
     35  N1       -15.1320   -5.7830   -2.5210 N.2   1301  BT51301     0.0021
     36  C2       -14.5770   -7.0780   -2.4930 C.3   1301  BT51301     0.5254
     37  N3       -15.3470   -8.1460   -2.0110 N.2   1301  BT51301    -0.0055
     38  C4       -16.6510   -7.8920   -1.5720 C.2   1301  BT51301     0.3518
@<TRIPOS>BOND
     1    11    10    1
     2    11    16    1
     3    11    12    1
     4    10     9    1
     5    16     8    1
     6    16    15    1
     7    12    13    2
     8     8     9    1
     9     8     7    1
    10     6     7    1
    11     6     5    1
    12    15    13    2
    13    13    14    2
    14     4     5    1
    15     4     1    1
    16     1     3    2
    17     1     2    1
    18     2    17    1
    19    18    17    2
    20    17    19    1
    21    17    20    1
    22    20    21    1
    23    21    22    1
    24    35    36    1
    25    35    33    2
    26    36    37    1
    27    23    22    1
    28    23    28    1
    29    34    33    1
    30    22    24    1
    31    33    32    1
    32    37    38    2
    33    32    38    1
    34    32    31    2
    35    38    29    1
    36    31    30    1
    37    29    28    1
    38    29    30    1
    39    28    26    1
    40    24    25    1
    41    24    26    1
    42    26    27    1
