@<TRIPOS>MOLECULE
2dvg_GLA_A_1.pdb
 12 12 0 0 0
SMALL
GASTEIGER

@<TRIPOS>ATOM
      1  C1       116.4330   36.7510   11.7210 C.2   1300  GLA1300     0.3505
      2  C2       115.0800   36.7000   12.4430 C.3   1300  GLA1300     0.2823
      3  C3       114.6390   38.1120   12.8360 C.3   1300  GLA1300     0.2270
      4  C4       115.7470   38.8400   13.6150 C.3   1300  GLA1300     0.2276
      5  C5       117.0910   38.7420   12.8710 C.3   1300  GLA1300     0.2344
      6  C6       118.2460   39.3030   13.6680 C.3   1300  GLA1300     0.2281
      7  O1       116.7190   37.0930   10.4110 O.2   1300  GLA1300    -0.2472
      8  O2       114.0970   36.1110   11.6050 O.3   1300  GLA1300    -0.2082
      9  O3       113.4620   38.0340   13.6250 O.3   1300  GLA1300    -0.2169
     10  O4       115.8760   38.2950   14.9190 O.3   1300  GLA1300    -0.2163
     11  O5       117.4110   37.3620   12.5710 O.3   1300  GLA1300    -0.4450
     12  O6       119.3660   39.5440   12.8280 O.3   1300  GLA1300    -0.2163
@<TRIPOS>BOND
     1     7     1    2
     2     8     2    1
     3     1     2    1
     4     1    11    1
     5     2     3    1
     6    11     5    1
     7    12     6    1
     8     3     4    1
     9     3     9    1
    10     5     4    1
    11     5     6    1
    12     4    10    1
