@<TRIPOS>MOLECULE
2dvi_CTP_A_1.pdb
 29 30 0 0 0
SMALL
GASTEIGER

@<TRIPOS>ATOM
      1  N1        16.8240  -21.4590  -33.1120 N.am  504  CTP504     -0.1778
      2  C2        16.9720  -20.3910  -32.2200 C.1   504  CTP504      0.2756
      3  N3        15.9660  -20.0980  -31.3630 N.2   504  CTP504     -0.3024
      4  C4        14.8460  -20.8340  -31.3690 C.2   504  CTP504      0.2346
      5  C5        14.6730  -21.9350  -32.2620 C.2   504  CTP504      0.0687
      6  C6        15.6770  -22.2080  -33.1090 C.2   504  CTP504      0.0836
      7  O2        18.0250  -19.7420  -32.2380 O.2   504  CTP504     -0.1925
      8  N4        13.8740  -20.5090  -30.5050 N.pl3 504  CTP504     -0.0921
      9  C1'       17.9200  -21.7560  -34.0500 C.3   504  CTP504      0.2400
     10  C2'       19.2010  -22.2530  -33.3740 C.3   504  CTP504      0.2319
     11  O2'       20.3300  -21.7780  -34.0760 O.3   504  CTP504     -0.2157
     12  C3'       19.0340  -23.7640  -33.4820 C.3   504  CTP504      0.2158
     13  C4'       18.3770  -23.9180  -34.8430 C.3   504  CTP504      0.1799
     14  O4'       17.4830  -22.7750  -34.9360 O.3   504  CTP504     -0.3320
     15  O3'       20.2820  -24.4420  -33.4330 O.3   504  CTP504     -0.2175
     16  C5'       17.5740  -25.1800  -35.0150 C.3   504  CTP504      0.1813
     17  O5'       16.6540  -25.3100  -33.9360 O.3   504  CTP504     -0.3112
     18  PA        15.6860  -26.5680  -33.8310 P.3   504  CTP504      0.2189
     19  O1A       15.7660  -27.3360  -35.1000 O.2   504  CTP504     -0.5170
     20  O2A       14.3650  -26.0680  -33.3600 O.3   504  CTP504     -0.4371
     21  O3A       16.3030  -27.4540  -32.6520 O.3   504  CTP504     -0.2700
     22  PB        17.8510  -27.8390  -32.5970 P.3   504  CTP504      0.2277
     23  O1B       18.5710  -26.6380  -32.1160 O.3   504  CTP504     -0.4368
     24  O2B       18.2570  -28.4560  -33.8910 O.2   504  CTP504     -0.5168
     25  O3B       17.9250  -28.9460  -31.4370 O.3   504  CTP504     -0.2258
     26  PG        16.9140  -30.1920  -31.3640 P.3   504  CTP504      0.5373
     27  O1G       16.4160  -30.5210  -32.7230 O.2   504  CTP504     -0.2221
     28  O2G       17.5450  -31.2590  -30.5550 O.3   504  CTP504     -0.1143
     29  O3G       15.6640  -29.6230  -30.5560 O.3   504  CTP504     -0.1143
@<TRIPOS>BOND
     1    19    18    2
     2    16    13    1
     3    16    17    1
     4    14    13    1
     5    14     9    1
     6    13    12    1
     7    11    10    1
     8     9    10    1
     9     9     1    1
    10    17    18    1
    11    24    22    2
    12    18    20    1
    13    18    21    1
    14    12    15    1
    15    12    10    1
    16     1     6    1
    17     1     2   am
    18     6     5    2
    19    27    26    2
    20    21    22    1
    21    22    23    1
    22    22    25    1
    23     5     4    1
    24     7     2    2
    25     2     3    2
    26    25    26    1
    27     4     3    2
    28     4     8    1
    29    26    29    1
    30    26    28    1
