@<TRIPOS>MOLECULE
2dvn_IMP_A_1.pdb
 23 25 0 0 0
SMALL
GASTEIGER

@<TRIPOS>ATOM
      1  P         25.2390   75.6790  110.9850 P.3   1301  IMP1301     0.5327
      2  O1P       25.3240   76.2590  112.3620 O.3   1301  IMP1301    -0.1145
      3  O2P       25.1210   74.1900  111.0830 O.3   1301  IMP1301    -0.1145
      4  O3P       24.0560   76.3160  110.2090 O.2   1301  IMP1301    -0.2224
      5  O5'       26.5040   75.9840  110.2120 O.3   1301  IMP1301    -0.2675
      6  C5'       27.8850   75.7300  110.2890 C.3   1301  IMP1301     0.1860
      7  C4'       28.9520   76.7140  110.3990 C.3   1301  IMP1301     0.1823
      8  O4'       29.9010   76.0710  111.3330 O.3   1301  IMP1301    -0.3135
      9  C3'       29.3630   76.7220  109.0490 C.3   1301  IMP1301     0.2184
     10  O3'       29.9400   77.9950  108.9480 O.3   1301  IMP1301    -0.2174
     11  C2'       30.5540   75.8400  108.9480 C.3   1301  IMP1301     0.2570
     12  O2'       31.6070   76.2850  108.1420 O.3   1301  IMP1301    -0.2130
     13  C1'       30.9260   75.5880  110.4250 C.3   1301  IMP1301     0.3186
     14  N9        31.1400   74.1400  110.6610 N.pl3 1301  IMP1301    -0.1435
     15  C8        30.2870   73.1520  111.0720 C.3   1301  IMP1301     0.3382
     16  N7        30.9180   71.9370  111.1400 N.2   1301  IMP1301    -0.2054
     17  C5        32.1890   72.1990  110.7640 C.2   1301  IMP1301     0.2446
     18  C6        33.3020   71.3210  110.6230 C.1   1301  IMP1301     0.1792
     19  O6        33.3030   70.0060  110.8600 O.2   1301  IMP1301    -0.2203
     20  N1        34.5210   71.9670  110.1900 N.2   1301  IMP1301    -0.1458
     21  C2        34.6090   73.3500  109.9130 C.3   1301  IMP1301     0.4017
     22  N3        33.5250   74.1770  110.0440 N.2   1301  IMP1301    -0.0334
     23  C4        32.3710   73.5500  110.4530 C.2   1301  IMP1301     0.3528
@<TRIPOS>BOND
     1    12    11    1
     2    10     9    1
     3    11     9    1
     4    11    13    1
     5     9     7    1
     6    21    22    1
     7    21    20    1
     8    22    23    2
     9    20    18    2
    10     4     1    2
    11     5     6    1
    12     5     1    1
    13     6     7    1
    14     7     8    1
    15    13    14    1
    16    13     8    1
    17    23    14    1
    18    23    17    1
    19    18    17    1
    20    18    19    2
    21    14    15    1
    22    17    16    2
    23     1     3    1
    24     1     2    1
    25    15    16    1
