@<TRIPOS>MOLECULE
2dvo_ITT_A_1.pdb
 31 33 0 0 0
SMALL
GASTEIGER

@<TRIPOS>ATOM
      1  PG        49.5420   59.2020   33.9330 P.3   201  ITT201      0.5373
      2  O1G       50.7800   58.8910   34.5620 O.3   201  ITT201     -0.1143
      3  O2G       48.3990   59.1270   34.8660 O.3   201  ITT201     -0.1143
      4  O3G       49.2690   58.2910   32.8250 O.2   201  ITT201     -0.2221
      5  PB        48.7430   62.0470   33.9530 P.3   201  ITT201      0.2277
      6  O1B       49.7530   63.0700   33.8750 O.3   201  ITT201     -0.4368
      7  O2B       47.4490   62.2590   33.3000 O.2   201  ITT201     -0.5168
      8  O3B       49.3130   60.7510   33.4360 O.3   201  ITT201     -0.2258
      9  PA        48.7140   62.3980   36.7650 P.3   201  ITT201      0.2189
     10  O1A       47.4430   61.8280   37.4470 O.2   201  ITT201     -0.5170
     11  O2A       49.9240   61.8730   37.5530 O.3   201  ITT201     -0.4371
     12  O3A       48.2810   61.7780   35.3710 O.3   201  ITT201     -0.2700
     13  O5'       48.5470   63.9800   36.6290 O.3   201  ITT201     -0.3112
     14  C5'       48.8200   65.0440   37.6460 C.3   201  ITT201      0.1813
     15  C4'       48.9760   66.2240   37.0100 C.3   201  ITT201      0.1821
     16  O4'       49.9620   66.7420   38.0280 O.3   201  ITT201     -0.3135
     17  C3'       49.4830   66.2370   35.5430 C.3   201  ITT201      0.2184
     18  O3'       48.6180   66.0670   34.5000 O.3   201  ITT201     -0.2174
     19  C2'       50.3480   67.5480   35.6840 C.3   201  ITT201      0.2570
     20  O2'       49.3960   68.5930   35.1910 O.3   201  ITT201     -0.2130
     21  C1'       50.7410   67.6860   37.1430 C.3   201  ITT201      0.3186
     22  N9        52.1250   67.5940   37.3010 N.pl3 201  ITT201     -0.1435
     23  C8        52.9140   66.5700   37.8450 C.3   201  ITT201      0.3382
     24  N7        54.2040   66.7040   37.8920 N.2   201  ITT201     -0.2054
     25  C5        54.2940   67.9600   37.3310 C.2   201  ITT201      0.2446
     26  C6        55.4110   68.7350   37.0760 C.1   201  ITT201      0.1792
     27  O6        56.6750   68.4270   37.3140 O.2   201  ITT201     -0.2203
     28  N1        55.2180   70.0630   36.4510 N.2   201  ITT201     -0.1458
     29  C2        53.8970   70.4930   36.1460 C.3   201  ITT201      0.4017
     30  N3        52.7730   69.7980   36.3750 N.2   201  ITT201     -0.0334
     31  C4        53.0300   68.5270   36.9640 C.2   201  ITT201      0.3528
@<TRIPOS>BOND
     1     4     1    2
     2     7     5    2
     3     8     1    1
     4     8     5    1
     5     6     5    1
     6     1     2    1
     7     1     3    1
     8     5    12    1
     9    18    17    1
    10    20    19    1
    11    12     9    1
    12    17    19    1
    13    17    15    1
    14    19    21    1
    15    29    30    1
    16    29    28    1
    17    30    31    2
    18    28    26    2
    19    13     9    1
    20    13    14    1
    21     9    10    2
    22     9    11    1
    23    31    22    1
    24    31    25    1
    25    15    14    1
    26    15    16    1
    27    26    27    2
    28    26    25    1
    29    21    22    1
    30    21    16    1
    31    22    23    1
    32    25    24    2
    33    23    24    1
