@<TRIPOS>MOLECULE
2dvq_III_P_1.pdb
 46 45 0 0 0
SMALL
GASTEIGER

@<TRIPOS>ATOM
      1  N         18.8820   31.0860   44.3960 N.3     8  LYS8       -0.1231
      2  CA        19.5450   29.7620   44.3890 C.3     8  LYS8        0.1694
      3  C         18.6680   28.6740   43.7380 C.2     8  LYS8        0.2593
      4  O         18.9590   27.4810   43.8350 O.2     8  LYS8       -0.2718
      5  CB        20.0160   29.3940   45.7950 C.3     8  LYS8        0.0304
      6  N         17.5930   29.1160   43.0680 N.am    9  GLY9       -0.1942
      7  CA        16.7780   28.3300   42.1660 C.3     9  GLY9        0.2014
      8  C         15.4230   28.0590   42.7670 C.2     9  GLY9        0.2639
      9  O         15.1570   28.5390   43.8830 O.2     9  GLY9       -0.2714
     10  N         14.5670   27.3590   42.0150 N.am   10  LEU10      -0.1963
     11  CA        13.3930   26.6260   42.5130 C.3    10  LEU10       0.1728
     12  C         13.2630   25.3180   41.7170 C.2    10  LEU10       0.2617
     13  O         12.9390   24.2330   42.2610 O.2    10  LEU10      -0.2715
     14  CB        12.1110   27.4370   42.3670 C.3    10  LEU10       0.0311
     15  CG        10.7680   26.8030   42.7880 C.3    10  LEU10       0.0022
     16  CD1       10.9070   26.1520   44.1540 C.3    10  LEU10       0.0001
     17  CD2        9.6430   27.8520   42.8240 C.3    10  LEU10       0.0001
     18  N         13.5250   25.4110   40.4200 N.am   11  GLY11      -0.1940
     19  CA        13.7580   24.2210   39.6460 C.3    11  GLY11       0.2014
     20  C         12.5650   23.5870   38.9840 C.2    11  GLY11       0.2639
     21  O         11.3770   23.8460   39.3040 O.2    11  GLY11      -0.2714
     22  OH        15.3140   25.8600   32.6200 O.3    12  LYS12      -0.2037
     23  CH        14.2020   25.9120   31.7310 C.3    12  LYS12       0.2257
     24  CH3       14.6410   25.4070   30.3480 C.3    12  LYS12       0.0555
     25  NZ        12.9740   25.2950   32.2370 N.3    12  LYS12      -0.1893
     26  CE        13.0520   24.1680   33.1650 C.3    12  LYS12       0.0913
     27  CD        12.4890   24.3990   34.5500 C.3    12  LYS12       0.0190
     28  CG        11.6980   23.1570   34.9520 C.3    12  LYS12       0.0038
     29  CB        12.5300   22.1850   35.7670 C.3    12  LYS12       0.0311
     30  CA        11.9670   22.1020   37.1790 C.3    12  LYS12       0.1728
     31  N         12.9150   22.7050   38.0640 N.am   12  LYS12      -0.1963
     32  C         11.7500   20.6640   37.6120 C.2    12  LYS12       0.2617
     33  O         10.5760   20.0890   37.1010 O.2    12  LYS12      -0.2715
     34  N         12.6060   20.0470   38.4280 N.am   13  GLY13      -0.1940
     35  CA        12.2590   18.7420   38.9860 C.3    13  GLY13       0.2014
     36  C         13.0970   17.5530   38.5490 C.2    13  GLY13       0.2639
     37  O         13.6330   17.4980   37.4250 O.2    13  GLY13      -0.2714
     38  N         13.2180   16.6030   39.4780 N.am   14  GLY14      -0.1939
     39  CA        13.8350   15.3050   39.2260 C.3    14  GLY14       0.2014
     40  C         14.0240   14.4920   40.5150 C.2    14  GLY14       0.2638
     41  O         15.0040   14.7510   41.2360 O.2    14  GLY14      -0.2714
     42  N         13.1570   13.5130   40.8410 N.am   15  ALA15      -0.1977
     43  CA        11.9900   13.0100   40.0630 C.3    15  ALA15       0.1597
     44  C         11.2420   11.9220   40.8760 C.2    15  ALA15       0.2287
     45  O         11.1200   10.7250   40.4640 O.2    15  ALA15      -0.2864
     46  CB        12.4240   12.4360   38.7810 C.3    15  ALA15       0.0319
@<TRIPOS>BOND
     1    24    23    1
     2    23    25    1
     3    23    22    1
     4    25    26    1
     5    26    27    1
     6    27    28    1
     7    28    29    1
     8    29    30    1
     9    33    32    2
    10    30    32    1
    11    30    31    1
    12    37    36    2
    13    32    34   am
    14    31    20   am
    15    34    35    1
    16    36    35    1
    17    36    38   am
    18    46    43    1
    19    20    21    2
    20    20    19    1
    21    39    38    1
    22    39    40    1
    23    19    18    1
    24    43    42    1
    25    43    44    1
    26    18    12   am
    27    45    44    2
    28    40    42   am
    29    40    41    2
    30    12    13    2
    31    12    11    1
    32    10    11    1
    33    10     8   am
    34     7     8    1
    35     7     6    1
    36    14    11    1
    37    14    15    1
    38     8     9    2
    39    15    17    1
    40    15    16    1
    41     6     3   am
    42     3     4    2
    43     3     2    1
    44     2     1    1
    45     2     5    1
