@<TRIPOS>MOLECULE
2dvr_III_P_1.pdb
 46 45 0 0 0
SMALL
GASTEIGER

@<TRIPOS>ATOM
      1  N         17.9340   31.6060   44.5780 N.3     8  LYS8       -0.1231
      2  CA        19.0460   30.6220   44.4530 C.3     8  LYS8        0.1694
      3  C         18.5710   29.3170   43.7910 C.2     8  LYS8        0.2593
      4  O         19.1990   28.2640   43.9480 O.2     8  LYS8       -0.2718
      5  CB        19.7050   30.3590   45.8260 C.3     8  LYS8        0.0304
      6  N         17.4580   29.4360   43.0520 N.am    9  GLY9       -0.1942
      7  CA        16.8250   28.4190   42.2360 C.3     9  GLY9        0.2014
      8  C         15.4520   28.1830   42.8240 C.2     9  GLY9        0.2639
      9  O         15.2180   28.6870   43.9340 O.2     9  GLY9       -0.2714
     10  N         14.5600   27.4880   42.0910 N.am   10  LEU10      -0.1963
     11  CA        13.4390   26.6690   42.6220 C.3    10  LEU10       0.1728
     12  C         13.2480   25.3650   41.7740 C.2    10  LEU10       0.2617
     13  O         12.8640   24.2890   42.2980 O.2    10  LEU10      -0.2715
     14  CB        12.1220   27.4470   42.6750 C.3    10  LEU10       0.0311
     15  CG        10.7570   26.7840   42.9830 C.3    10  LEU10       0.0022
     16  CD1       10.7390   26.0670   44.3400 C.3    10  LEU10       0.0001
     17  CD2        9.6000   27.8220   42.9370 C.3    10  LEU10       0.0001
     18  N         13.5240   25.4620   40.4690 N.am   11  GLY11      -0.1940
     19  CA        13.7270   24.2810   39.6350 C.3    11  GLY11       0.2014
     20  C         12.5570   23.5880   38.9660 C.2    11  GLY11       0.2639
     21  O         11.3850   23.8500   39.2360 O.2    11  GLY11      -0.2714
     22  OH        15.4070   25.9050   32.5550 O.3    12  LYS12      -0.2037
     23  CH        14.2720   25.9650   31.6940 C.3    12  LYS12       0.2257
     24  CH3       14.6760   25.5350   30.2850 C.3    12  LYS12       0.0555
     25  NZ        13.0500   25.3880   32.2570 N.3    12  LYS12      -0.1893
     26  CE        13.0500   24.2990   33.2230 C.3    12  LYS12       0.0913
     27  CD        12.3330   24.4900   34.5480 C.3    12  LYS12       0.0190
     28  CG        11.5600   23.2340   34.9740 C.3    12  LYS12       0.0038
     29  CB        12.3730   22.2120   35.7600 C.3    12  LYS12       0.0311
     30  CA        11.8960   22.0470   37.2150 C.3    12  LYS12       0.1728
     31  N         12.8910   22.6540   38.0950 N.am   12  LYS12      -0.1963
     32  C         11.6100   20.5740   37.5380 C.2    12  LYS12       0.2617
     33  O         10.5630   20.0190   36.7790 O.2    12  LYS12      -0.2715
     34  N         12.3160   19.8990   38.4500 N.am   13  GLY13      -0.1940
     35  CA        11.9200   18.5440   38.8440 C.3    13  GLY13       0.2014
     36  C         12.9820   17.4510   38.8060 C.2    13  GLY13       0.2639
     37  O         13.6400   17.2430   37.7800 O.2    13  GLY13      -0.2714
     38  N         13.0570   16.7010   39.9140 N.am   14  GLY14      -0.1939
     39  CA        14.2430   15.9430   40.3080 C.3    14  GLY14       0.2014
     40  C         14.2410   14.4260   40.3520 C.2    14  GLY14       0.2638
     41  O         13.2540   13.7870   40.7240 O.2    14  GLY14      -0.2714
     42  N         15.4150   13.8730   40.0270 N.am   15  ALA15      -0.1977
     43  CA        15.5720   12.5050   39.5050 C.3    15  ALA15       0.1597
     44  C         17.0640   12.1330   39.3480 C.2    15  ALA15       0.2287
     45  O         17.4500   10.9600   39.1270 O.2    15  ALA15      -0.2864
     46  CB        14.8380   12.3650   38.1530 C.3    15  ALA15       0.0319
@<TRIPOS>BOND
     1    24    23    1
     2    23    25    1
     3    23    22    1
     4    25    26    1
     5    26    27    1
     6    27    28    1
     7    28    29    1
     8    29    30    1
     9    33    32    2
    10    30    32    1
    11    30    31    1
    12    32    34   am
    13    37    36    2
    14    31    20   am
    15    46    43    1
    16    34    35    1
    17    36    35    1
    18    36    38   am
    19    20    21    2
    20    20    19    1
    21    45    44    2
    22    44    43    1
    23    43    42    1
    24    19    18    1
    25    38    39    1
    26    42    40   am
    27    39    40    1
    28    40    41    2
    29    18    12   am
    30    12    13    2
    31    12    11    1
    32    10    11    1
    33    10     8   am
    34     7     8    1
    35     7     6    1
    36    11    14    1
    37    14    15    1
    38     8     9    2
    39    17    15    1
    40    15    16    1
    41     6     3   am
    42     3     4    2
    43     3     2    1
    44     2     1    1
    45     2     5    1
