@<TRIPOS>MOLECULE
2dvs_LYS_P_1.pdb
 12 11 0 0 0
SMALL
GASTEIGER

@<TRIPOS>ATOM
      1  OH        15.1220   26.0950   32.8780 O.3    12  LYS12      -0.2037
      2  CH        14.0810   26.0310   31.8900 C.3    12  LYS12       0.2257
      3  CH3       14.5320   25.2920   30.6070 C.3    12  LYS12       0.0555
      4  NZ        12.7740   25.5950   32.4050 N.3    12  LYS12      -0.1893
      5  CE        12.5630   24.3460   33.1150 C.3    12  LYS12       0.0913
      6  CD        12.7450   24.3900   34.6280 C.3    12  LYS12       0.0189
      7  CG        11.7530   23.3980   35.2530 C.3    12  LYS12       0.0030
      8  CB        12.4140   22.1150   35.7850 C.3    12  LYS12       0.0218
      9  CA        12.0460   21.8770   37.2590 C.3    12  LYS12       0.1247
     10  N         13.0300   22.4740   38.1630 N.3    12  LYS12      -0.1301
     11  C         11.9030   20.3860   37.5590 C.3    12  LYS12       0.2009
     12  O         10.7020   19.8870   36.9830 O.3    12  LYS12      -0.2188
@<TRIPOS>BOND
     1     3     2    1
     2     2     4    1
     3     2     1    1
     4     4     5    1
     5     5     6    1
     6     6     7    1
     7     7     8    1
     8     8     9    1
     9    12    11    1
    10     9    11    1
    11     9    10    1
