@<TRIPOS>MOLECULE
2dvu_GRE_A_1.pdb
 11 11 0 0 0
SMALL
GASTEIGER

@<TRIPOS>ATOM
      1  C1A       61.0580   35.9370   27.5760 C.2   1511  GRE1511     0.3940
      2  O1A       62.2010   36.2060   27.9120 O.co2 1511  GRE1511    -0.2403
      3  O2A       60.8370   34.7370   27.4530 O.co2 1511  GRE1511    -0.2403
      4  C1        60.0530   36.9330   27.3460 C.ar  1511  GRE1511     0.1573
      5  C2        60.2930   38.3300   27.4850 C.ar  1511  GRE1511     0.2052
      6  C3        59.2950   39.3300   27.2600 C.ar  1511  GRE1511     0.0425
      7  C4        58.0080   38.9090   26.8810 C.ar  1511  GRE1511     0.0066
      8  C5        57.6930   37.5410   26.7210 C.ar  1511  GRE1511     0.0425
      9  C6        58.7200   36.5630   26.9550 C.ar  1511  GRE1511     0.2052
     10  O2        61.5090   38.8150   27.8450 O.3   1511  GRE1511    -0.2862
     11  O6        58.3630   35.2870   26.7860 O.3   1511  GRE1511    -0.2862
@<TRIPOS>BOND
     1     8     7   ar
     2     8     9   ar
     3    11     9    1
     4     7     6   ar
     5     9     4   ar
     6     6     5   ar
     7     4     5   ar
     8     4     1    1
     9     3     1   ar
    10     5    10    1
    11     1     2   ar
