@<TRIPOS>MOLECULE
2dvx_23A_A_1.pdb
 10 10 0 0 0
SMALL
GASTEIGER

@<TRIPOS>ATOM
      1  C7        61.5350   36.6850   27.7190 C.2   1511  23A1511     0.2375
      2  O8        62.0890   35.5580   27.7510 O.2   1511  23A1511    -0.2830
      3  C1        60.1730   36.7630   27.3670 C.ar  1511  23A1511     0.0843
      4  C6        59.4930   35.5380   27.0660 C.ar  1511  23A1511     0.0067
      5  C5        58.1130   35.5450   26.7000 C.ar  1511  23A1511     0.0036
      6  C2        59.4770   37.9940   27.3030 C.ar  1511  23A1511     0.2373
      7  O2        60.0580   39.1970   27.5750 O.3   1511  23A1511    -0.2830
      8  C3        58.0930   37.9880   26.9320 C.ar  1511  23A1511     0.2344
      9  C4        57.4430   36.7780   26.6400 C.ar  1511  23A1511     0.0454
     10  O3        57.4140   39.1340   26.8610 O.3   1511  23A1511    -0.2831
@<TRIPOS>BOND
     1     9     5   ar
     2     9     8   ar
     3     5     4   ar
     4    10     8    1
     5     8     6   ar
     6     4     3   ar
     7     6     3   ar
     8     6     7    1
     9     3     1    1
    10     1     2    2
