@<TRIPOS>MOLECULE
2dvz_GLU_A_1.pdb
 10 9 0 0 0
SMALL
GASTEIGER

@<TRIPOS>ATOM
      1  N         39.7160   27.4970   11.8470 N.3   1055  GLU1055    -0.1208
      2  CA        40.9320   26.6640   11.7800 C.3   1055  GLU1055     0.1949
      3  C         40.9770   25.6300   12.8930 C.2   1055  GLU1055     0.3819
      4  O         41.8350   25.6020   13.7810 O.co2 1055  GLU1055    -0.2441
      5  CB        42.1830   27.5340   11.7060 C.3   1055  GLU1055     0.0424
      6  CG        42.0210   28.7010   10.7150 C.3   1055  GLU1055     0.1161
      7  CD        43.3020   29.1390   10.0680 C.2   1055  GLU1055     0.3649
      8  OE1       44.3350   28.5080   10.3760 O.co2 1055  GLU1055    -0.2457
      9  OE2       43.2840   30.1020    9.2210 O.co2 1055  GLU1055    -0.2457
     10  OXT       40.1300   24.7220   12.8790 O.co2 1055  GLU1055    -0.2441
@<TRIPOS>BOND
     1     9     7   ar
     2     7     8   ar
     3     7     6    1
     4     6     5    1
     5     5     2    1
     6     2     1    1
     7     2     3    1
     8    10     3   ar
     9     3     4   ar
