@<TRIPOS>MOLECULE
2dw0_GM6_A_1.pdb
 28 29 0 0 0
SMALL
GASTEIGER

@<TRIPOS>ATOM
      1  OAG       30.4920    0.6070    6.9510 O.3   901  GM6901     -0.4026
      2  NAF       31.6200   -0.0630    6.6090 N.am  901  GM6901     -0.2030
      3  CAD       32.7980    0.4750    6.8990 C.2   901  GM6901      0.0873
      4  OAE       32.9300    1.5440    7.4620 O.2   901  GM6901     -0.5395
      5  CAC       34.0220   -0.3340    6.4880 C.3   901  GM6901      0.0603
      6  CAB       34.7590   -0.9440    7.6970 C.3   901  GM6901      0.0845
      7  CAK       35.9830   -1.6980    7.1940 C.2   901  GM6901      0.2417
      8  OAL       35.8890   -2.7640    6.5740 O.2   901  GM6901     -0.2733
      9  NAM       37.1340   -1.0630    7.5000 N.am  901  GM6901     -0.1974
     10  CAN       38.5080   -1.5180    7.2000 C.3   901  GM6901      0.1771
     11  CAY       38.8300   -2.7720    8.0440 C.2   901  GM6901      0.2616
     12  OAZ       38.8040   -2.6830    9.2720 O.2   901  GM6901     -0.2715
     13  NBB       39.1180   -3.8940    7.3740 N.am  901  GM6901     -0.2021
     14  CBA       39.7840   -4.9950    8.1020 C.3   901  GM6901      0.1386
     15  CAO       39.5230   -0.4410    7.6160 C.3   901  GM6901      0.0590
     16  CAP       39.3140    0.9390    6.9240 C.2   901  GM6901      0.0003
     17  CAT       39.5630    2.1250    7.5040 C.2   901  GM6901      0.0946
     18  NAU       39.2850    3.1440    6.6850 N.2   901  GM6901     -0.2442
     19  CAR       38.8380    2.6920    5.5150 C.2   901  GM6901      0.0804
     20  CAV       38.4130    3.3240    4.3250 C.2   901  GM6901      0.0148
     21  CAX       37.9840    2.5330    3.2250 C.2   901  GM6901     -0.0199
     22  CAW       37.9860    1.1150    3.3360 C.3   901  GM6901      0.0521
     23  CAS       38.4140    0.4940    4.5350 C.2   901  GM6901     -0.0202
     24  CAQ       38.8480    1.2760    5.6470 C.2   901  GM6901      0.0113
     25  CAA       33.8100   -1.8790    8.5080 C.3   901  GM6901      0.0095
     26  CAH       34.4090   -2.4320    9.8240 C.3   901  GM6901      0.0005
     27  CAJ       33.3740   -3.2790   10.5760 C.3   901  GM6901      0.0000
     28  CAI       34.8780   -1.2970   10.7560 C.3   901  GM6901      0.0000
@<TRIPOS>BOND
     1    21    22    1
     2    21    20    2
     3    22    23    1
     4    20    19    1
     5    23    24    2
     6    19    24    1
     7    19    18    2
     8    24    16    1
     9     5     3    1
    10     5     6    1
    11     8     7    2
    12     2     3   am
    13     2     1    1
    14    18    17    1
    15     3     4    2
    16    16    17    2
    17    16    15    1
    18     7     9   am
    19     7     6    1
    20    10     9    1
    21    10    15    1
    22    10    11    1
    23    13    11   am
    24    13    14    1
    25     6    25    1
    26    11    12    2
    27    25    26    1
    28    26    27    1
    29    26    28    1
