@<TRIPOS>MOLECULE
2dw1_GM6_A_1.pdb
 28 29 0 0 0
SMALL
GASTEIGER

@<TRIPOS>ATOM
      1  OAG       12.4430   66.3610   15.3390 O.3     2  GM62       -0.4026
      2  NAF       11.2530   66.1660   14.7190 N.am    2  GM62       -0.2030
      3  CAD       10.1300   66.1280   15.4200 C.2     2  GM62        0.0873
      4  OAE       10.0720   66.2600   16.6400 O.2     2  GM62       -0.5395
      5  CAC        8.8680   65.9010   14.5820 C.3     2  GM62        0.0603
      6  CAB        8.1320   67.1860   14.1570 C.3     2  GM62        0.0845
      7  CAK        6.8930   66.7760   13.3440 C.2     2  GM62        0.2417
      8  OAL        6.9880   66.4200   12.1650 O.2     2  GM62       -0.2733
      9  NAM        5.7490   66.8360   14.0240 N.am    2  GM62       -0.1974
     10  CAN        4.3980   66.5240   13.4760 C.3     2  GM62        0.1771
     11  CAY        3.9910   67.5510   12.3760 C.2     2  GM62        0.2616
     12  OAZ        4.1540   68.7650   12.5680 O.2     2  GM62       -0.2715
     13  NBB        3.4700   67.0130   11.2590 N.am    2  GM62       -0.2021
     14  CBA        3.0700   67.8950   10.1490 C.3     2  GM62        0.1386
     15  CAO        3.3670   66.6080   14.6050 C.3     2  GM62        0.0590
     16  CAP        3.7490   65.6230   15.7300 C.2     2  GM62        0.0003
     17  CAT        4.2340   64.3680   15.5990 C.2     2  GM62        0.0946
     18  NAU        4.4590   63.8150   16.7950 N.2     2  GM62       -0.2442
     19  CAR        4.1370   64.6680   17.7710 C.2     2  GM62        0.0804
     20  CAV        4.1750   64.6060   19.1850 C.2     2  GM62        0.0148
     21  CAX        3.7410   65.7310   19.9450 C.2     2  GM62       -0.0199
     22  CAW        3.2740   66.9020   19.2810 C.3     2  GM62        0.0521
     23  CAS        3.2440   66.9520   17.8650 C.2     2  GM62       -0.0202
     24  CAQ        3.6770   65.8270   17.0950 C.2     2  GM62        0.0113
     25  CAA        9.0650   68.1210   13.3180 C.3     2  GM62        0.0095
     26  CAH        8.3940   69.4620   12.9120 C.3     2  GM62        0.0005
     27  CAJ        9.1690   70.1790   11.8050 C.3     2  GM62        0.0000
     28  CAI        8.2850   70.3990   14.1250 C.3     2  GM62        0.0000
@<TRIPOS>BOND
     1    14    13    1
     2    13    11   am
     3    27    26    1
     4     8     7    2
     5    11    12    2
     6    11    10    1
     7    26    25    1
     8    26    28    1
     9    25     6    1
    10     7     9   am
    11     7     6    1
    12    10     9    1
    13    10    15    1
    14     6     5    1
    15     5     3    1
    16    15    16    1
    17     2     1    1
    18     2     3   am
    19     3     4    2
    20    17    16    2
    21    17    18    1
    22    16    24    1
    23    18    19    2
    24    24    19    1
    25    24    23    2
    26    19    20    1
    27    23    22    1
    28    20    21    2
    29    22    21    1
