@<TRIPOS>MOLECULE
2dw5_BFB_A_1.pdb
 20 20 0 0 0
SMALL
GASTEIGER

@<TRIPOS>ATOM
      1  OAE       22.0500   49.4490   20.3590 O.2   800  BFB800     -0.2698
      2  CAU       22.4500   49.6430   21.4810 C.2   800  BFB800      0.2806
      3  NAA       21.6430   49.8100   22.5290 N.am  800  BFB800     -0.0863
      4  CAZ       23.9310   49.6810   21.6730 C.3   800  BFB800      0.1748
      5  CAO       24.4310   48.3540   22.2300 C.3   800  BFB800      0.0356
      6  CAM       23.6530   47.1030   21.8590 C.3   800  BFB800      0.0576
      7  CAN       23.8920   46.5170   20.4680 C.3   800  BFB800      0.2511
      8  NAR       24.1810   45.1260   20.7960 N.pl3 800  BFB800     -0.0316
      9  CAV       24.0940   43.8660   20.3560 C.2   800  BFB800      0.3901
     10  CAP       24.6770   43.0590   21.4790 C.3   800  BFB800      0.1388
     11  NAC       23.6800   43.3600   19.2020 N.2   800  BFB800      0.1917
     12  NAS       24.4010   50.7250   22.6060 N.am  800  BFB800     -0.1940
     13  CAW       24.0890   52.0210   22.5180 C.2   800  BFB800      0.2652
     14  OAF       23.3770   52.4450   21.6200 O.2   800  BFB800     -0.2684
     15  CAX       24.6290   52.9810   23.5520 C.ar  800  BFB800      0.0551
     16  CAK       25.2000   52.5180   24.7460 C.ar  800  BFB800      0.0046
     17  CAL       24.5670   54.3700   23.3400 C.ar  800  BFB800      0.0046
     18  CAJ       25.0660   55.2600   24.2990 C.ar  800  BFB800      0.0001
     19  CAH       25.6300   54.7750   25.4750 C.ar  800  BFB800      0.0000
     20  CAI       25.7000   53.4090   25.7060 C.ar  800  BFB800      0.0001
@<TRIPOS>BOND
     1    11     9    2
     2     9     8    1
     3     9    10    1
     4     1     2    2
     5     7     8    1
     6     7     6    1
     7     2     4    1
     8     2     3   am
     9    14    13    2
    10     4     5    1
    11     4    12    1
    12     6     5    1
    13    13    12   am
    14    13    15    1
    15    17    15   ar
    16    17    18   ar
    17    15    16   ar
    18    18    19   ar
    19    16    20   ar
    20    19    20   ar
