@<TRIPOS>MOLECULE
2dw7_SRT_A_1.pdb
 10 9 0 0 0
SMALL
GASTEIGER

@<TRIPOS>ATOM
      1  O1        10.2440   36.1510    9.1120 O.co2 1001  SRT1001    -0.2427
      2  O11        9.5590   35.7970   11.1670 O.co2 1001  SRT1001    -0.2427
      3  C1         9.5580   35.4350    9.9860 C.2   1001  SRT1001     0.3979
      4  C2         8.8000   34.2380    9.4600 C.3   1001  SRT1001     0.2950
      5  O2         9.4200   33.7600    8.2910 O.3   1001  SRT1001    -0.2075
      6  C3         8.7190   33.0500   10.4370 C.3   1001  SRT1001     0.2950
      7  O3         8.7410   33.4950   11.7720 O.3   1001  SRT1001    -0.2075
      8  C4         7.4490   32.3030   10.2250 C.2   1001  SRT1001     0.3979
      9  O4         7.4830   31.0720   10.2080 O.co2 1001  SRT1001    -0.2427
     10  O41        6.2720   32.9380   10.0460 O.co2 1001  SRT1001    -0.2427
@<TRIPOS>BOND
     1     5     4    1
     2     1     3   ar
     3     4     3    1
     4     4     6    1
     5     3     2   ar
     6    10     8   ar
     7     9     8   ar
     8     8     6    1
     9     6     7    1
