@<TRIPOS>MOLECULE
2dwa_FUC_A_1.pdb
 11 11 0 0 0
SMALL
GASTEIGER

@<TRIPOS>ATOM
      1  C1        13.3730   13.3120   12.8380 C.3   695  FUC695      0.3023
      2  C2        12.0510   13.8260   13.4050 C.3   695  FUC695      0.2434
      3  C3        11.8750   13.4320   14.8740 C.3   695  FUC695      0.2198
      4  C4        13.1140   13.7740   15.7080 C.3   695  FUC695      0.2118
      5  C5        14.4010   13.2590   15.0800 C.3   695  FUC695      0.1509
      6  C6        15.5470   13.9340   15.8180 C.3   695  FUC695      0.0350
      7  O1        13.1830   11.8810   12.8140 O.3   695  FUC695     -0.1869
      8  O2        10.9870   13.3050   12.5930 O.3   695  FUC695     -0.2148
      9  O3        10.7130   14.0430   15.4550 O.3   695  FUC695     -0.2174
     10  O4        13.2640   15.1900   15.8850 O.3   695  FUC695     -0.2177
     11  O5        14.5080   13.5630   13.6810 O.3   695  FUC695     -0.3264
@<TRIPOS>BOND
     1     8     2    1
     2     7     1    1
     3     1     2    1
     4     1    11    1
     5     2     3    1
     6    11     5    1
     7     3     9    1
     8     3     4    1
     9     5     4    1
    10     5     6    1
    11     4    10    1
