@<TRIPOS>MOLECULE
2dwb_ANP_A_1.pdb
 31 33 0 0 0
SMALL
GASTEIGER

@<TRIPOS>ATOM
      1  PG        12.1900   69.6310   62.0690 P.3   502  ANP502      0.4884
      2  O1G       12.1850   70.9060   62.8190 O.3   502  ANP502     -0.1240
      3  O2G       11.7950   69.9600   60.5370 O.2   502  ANP502     -0.2331
      4  O3G       11.0940   68.6420   62.6710 O.3   502  ANP502     -0.1240
      5  PB        14.5430   68.5530   63.5450 P.3   502  ANP502      0.4669
      6  O1B       15.9950   68.8530   63.4660 O.2   502  ANP502     -0.2351
      7  O2B       13.9280   69.4060   64.7550 O.3   502  ANP502     -0.1253
      8  N3B       13.7900   69.0010   62.0540 N.3   502  ANP502     -0.0163
      9  PA        13.0770   66.2350   64.3290 P.3   502  ANP502      0.2220
     10  O1A       12.8970   66.1990   65.8110 O.3   502  ANP502     -0.4370
     11  O2A       11.8230   66.9240   63.6620 O.2   502  ANP502     -0.5170
     12  O3A       14.4710   66.9850   63.9930 O.3   502  ANP502     -0.2360
     13  O5'       13.2700   64.7530   63.7890 O.3   502  ANP502     -0.3111
     14  C5'       13.3100   64.8470   62.3700 C.3   502  ANP502      0.1813
     15  C4'       12.7990   63.5110   61.8200 C.3   502  ANP502      0.1821
     16  O4'       13.4100   62.3660   62.4870 O.3   502  ANP502     -0.3135
     17  C3'       11.2430   63.4230   61.9660 C.3   502  ANP502      0.2184
     18  O3'       10.7870   63.8420   60.6860 O.3   502  ANP502     -0.2174
     19  C2'       11.0470   61.9270   62.2100 C.3   502  ANP502      0.2570
     20  O2'       10.5700   61.2160   61.0770 O.3   502  ANP502     -0.2130
     21  C1'       12.3720   61.4010   62.8270 C.3   502  ANP502      0.3186
     22  N9        12.2990   61.2590   64.3060 N.pl3 502  ANP502     -0.1439
     23  C8        12.6140   62.2200   65.2410 C.3   502  ANP502      0.3377
     24  N7        12.4470   61.7550   66.4420 N.2   502  ANP502     -0.2095
     25  C5        12.0180   60.4740   66.3780 C.2   502  ANP502      0.2526
     26  C6        11.6800   59.4780   67.3300 C.2   502  ANP502      0.4393
     27  N6        11.7570   59.7420   68.6820 N.pl3 502  ANP502      0.2180
     28  N1        11.2760   58.2620   66.8910 N.2   502  ANP502      0.0021
     29  C2        11.1920   57.9850   65.5940 C.3   502  ANP502      0.5254
     30  N3        11.5020   58.8920   64.6680 N.2   502  ANP502     -0.0055
     31  C4        11.9130   60.1320   65.0060 C.2   502  ANP502      0.3518
@<TRIPOS>BOND
     1     3     1    2
     2    18    17    1
     3    20    19    1
     4    15    17    1
     5    15    14    1
     6    15    16    1
     7    17    19    1
     8     8     1    1
     9     8     5    1
    10     1     4    1
    11     1     2    1
    12    19    21    1
    13    14    13    1
    14    16    21    1
    15    21    22    1
    16     6     5    2
    17     5    12    1
    18     5     7    1
    19    11     9    2
    20    13     9    1
    21    12     9    1
    22    22    31    1
    23    22    23    1
    24     9    10    1
    25    30    31    2
    26    30    29    1
    27    31    25    1
    28    23    24    1
    29    29    28    1
    30    25    24    2
    31    25    26    1
    32    28    26    2
    33    26    27    1
