@<TRIPOS>MOLECULE
2dwc_ADP_A_1.pdb
 27 29 0 0 0
SMALL
GASTEIGER

@<TRIPOS>ATOM
      1  PB        21.9100   84.2990   40.3890 P.3   501  ADP501      0.5373
      2  O1B       21.2080   84.2760   41.6910 O.3   501  ADP501     -0.1143
      3  O2B       21.8430   83.0610   39.3590 O.2   501  ADP501     -0.2221
      4  O3B       22.3270   85.6740   39.6620 O.3   501  ADP501     -0.1143
      5  PA        24.4430   85.1040   41.3240 P.3   501  ADP501      0.2231
      6  O1A       23.7740   86.2370   42.0020 O.2   501  ADP501     -0.5169
      7  O2A       25.5110   84.3730   42.2800 O.3   501  ADP501     -0.4370
      8  O3A       23.4030   83.9540   40.8870 O.3   501  ADP501     -0.2261
      9  O5'       25.2580   85.4990   39.9930 O.3   501  ADP501     -0.3111
     10  C5'       26.4370   84.7510   39.6870 C.3   501  ADP501      0.1813
     11  C4'       27.1430   85.2770   38.4370 C.3   501  ADP501      0.1821
     12  O4'       27.5220   86.6460   38.6620 O.3   501  ADP501     -0.3135
     13  C3'       28.4760   84.5340   38.3480 C.3   501  ADP501      0.2184
     14  O3'       29.1900   84.9190   37.1700 O.3   501  ADP501     -0.2174
     15  C2'       29.1550   85.1720   39.5560 C.3   501  ADP501      0.2570
     16  O2'       30.5670   84.9880   39.4330 O.3   501  ADP501     -0.2130
     17  C1'       28.8130   86.6400   39.2940 C.3   501  ADP501      0.3186
     18  N9        28.7880   87.3980   40.5650 N.pl3 501  ADP501     -0.1439
     19  C8        27.7240   87.5850   41.3430 C.3   501  ADP501      0.3377
     20  N7        28.0740   88.2860   42.4200 N.2   501  ADP501     -0.2095
     21  C5        29.3720   88.5510   42.3220 C.2   501  ADP501      0.2526
     22  C6        30.2820   89.2420   43.1180 C.2   501  ADP501      0.4393
     23  N6        29.9040   89.7740   44.2740 N.pl3 501  ADP501      0.2180
     24  N1        31.5530   89.3390   42.7070 N.2   501  ADP501      0.0021
     25  C2        31.9540   88.7890   41.5730 C.3   501  ADP501      0.5254
     26  N3        31.1190   88.1240   40.7970 N.2   501  ADP501     -0.0055
     27  C4        29.8280   87.9890   41.1410 C.2   501  ADP501      0.3518
@<TRIPOS>BOND
     1    14    13    1
     2    13    11    1
     3    13    15    1
     4    11    12    1
     5    11    10    1
     6    12    17    1
     7    17    15    1
     8    17    18    1
     9     3     1    2
    10    16    15    1
    11     4     1    1
    12    10     9    1
    13     9     5    1
    14     1     8    1
    15     1     2    1
    16    18    27    1
    17    18    19    1
    18    26    27    2
    19    26    25    1
    20     8     5    1
    21    27    21    1
    22     5     6    2
    23     5     7    1
    24    19    20    1
    25    25    24    1
    26    21    20    2
    27    21    22    1
    28    24    22    2
    29    22    23    1
