@<TRIPOS>MOLECULE
2dwd_TBA_C_1.pdb
 17 16 0 0 0
SMALL
GASTEIGER

@<TRIPOS>ATOM
      1  N1       153.1800  153.1800  -44.3790 N.4   4001  TBA4001     0.3899
      2  C11      152.4020  153.9290  -45.4180 C.3   4001  TBA4001    -0.0730
      3  C12      151.5630  155.0760  -44.8450 C.3   4001  TBA4001    -0.0223
      4  C21      153.8840  154.1690  -43.5290 C.3   4001  TBA4001    -0.0730
      5  C22      154.8770  154.9850  -44.3600 C.3   4001  TBA4001    -0.0223
      6  C31      154.1190  152.3270  -45.0530 C.3   4001  TBA4001    -0.0730
      7  C32      154.9590  151.5560  -44.0330 C.3   4001  TBA4001    -0.0223
      8  C41      152.2620  152.4090  -43.5340 C.3   4001  TBA4001    -0.0730
      9  C42      151.5100  151.3730  -44.3710 C.3   4001  TBA4001    -0.0223
     10  C13      150.3760  154.5760  -44.0210 C.3   4001  TBA4001    -0.0021
     11  C14      149.5370  155.7450  -43.5040 C.3   4001  TBA4001    -0.0001
     12  C23      155.6370  155.9770  -43.4770 C.3   4001  TBA4001    -0.0021
     13  C24      156.6220  156.8060  -44.3020 C.3   4001  TBA4001    -0.0001
     14  C33      155.9600  150.6400  -44.7410 C.3   4001  TBA4001    -0.0021
     15  C34      156.8160  149.8700  -43.7320 C.3   4001  TBA4001    -0.0001
     16  C43      150.5780  150.5390  -43.4910 C.3   4001  TBA4001    -0.0021
     17  C44      149.8250  149.4960  -44.3160 C.3   4001  TBA4001    -0.0001
@<TRIPOS>BOND
     1     2     3    1
     2     2     1    1
     3     6     1    1
     4     6     7    1
     5     3    10    1
     6    14     7    1
     7    14    15    1
     8     1     8    1
     9     1     4    1
    10     9     8    1
    11     9    16    1
    12     5     4    1
    13     5    12    1
    14    17    16    1
    15    13    12    1
    16    10    11    1
