@<TRIPOS>MOLECULE
2dwe_TBA_C_1.pdb
 17 16 0 0 0
SMALL
GASTEIGER

@<TRIPOS>ATOM
      1  N1       154.5580  154.5580  -44.6980 N.4   4001  TBA4001     0.3899
      2  C11      153.7890  155.2560  -45.7370 C.3   4001  TBA4001    -0.0730
      3  C12      152.9500  156.4030  -45.1640 C.3   4001  TBA4001    -0.0223
      4  C21      155.2710  155.4960  -43.8480 C.3   4001  TBA4001    -0.0730
      5  C22      156.2640  156.3120  -44.6790 C.3   4001  TBA4001    -0.0223
      6  C31      155.5060  153.6540  -45.3720 C.3   4001  TBA4001    -0.0730
      7  C32      156.3460  152.8830  -44.3520 C.3   4001  TBA4001    -0.0223
      8  C41      153.6490  153.7360  -43.8530 C.3   4001  TBA4001    -0.0730
      9  C42      152.8970  152.7000  -44.6900 C.3   4001  TBA4001    -0.0223
     10  C13      151.7630  155.9030  -44.3400 C.3   4001  TBA4001    -0.0021
     11  C14      150.9240  157.0720  -43.8230 C.3   4001  TBA4001    -0.0001
     12  C23      157.0240  157.3040  -43.7960 C.3   4001  TBA4001    -0.0021
     13  C24      158.0090  158.1330  -44.6210 C.3   4001  TBA4001    -0.0001
     14  C33      157.3470  151.9670  -45.0600 C.3   4001  TBA4001    -0.0021
     15  C34      158.2030  151.1970  -44.0510 C.3   4001  TBA4001    -0.0001
     16  C43      151.9650  151.8660  -43.8100 C.3   4001  TBA4001    -0.0021
     17  C44      151.2120  150.8230  -44.6350 C.3   4001  TBA4001    -0.0001
@<TRIPOS>BOND
     1     2     3    1
     2     2     1    1
     3     6     1    1
     4     6     7    1
     5     3    10    1
     6    14     7    1
     7    14    15    1
     8     1     8    1
     9     1     4    1
    10     9     8    1
    11     9    16    1
    12     5     4    1
    13     5    12    1
    14    17    16    1
    15    13    12    1
    16    10    11    1
