@<TRIPOS>MOLECULE
2dwh_NAG_A_1.pdb
 15 15 0 0 0
SMALL
GASTEIGER

@<TRIPOS>ATOM
      1  C1        10.0010   13.7540   15.1340 C.3   3001  NAG3001     0.2917
      2  C2        10.1500   13.9130   13.6200 C.3   3001  NAG3001     0.1871
      3  C3        11.2540   12.9710   13.1450 C.3   3001  NAG3001     0.2095
      4  C4        12.5530   13.3260   13.8670 C.3   3001  NAG3001     0.2136
      5  C5        12.3390   13.2700   15.3810 C.3   3001  NAG3001     0.1835
      6  C6        13.5610   13.7580   16.1250 C.3   3001  NAG3001     0.2142
      7  C7         8.5460   14.2860   11.8610 C.2   3001  NAG3001     0.2421
      8  C8         7.4300   15.3120   12.0000 C.3   3001  NAG3001     0.0964
      9  N2         8.9000   13.6120   12.9520 N.am  3001  NAG3001    -0.1991
     10  O1         8.9980   14.5900   15.6040 O.3   3001  NAG3001    -0.1879
     11  O3        11.4250   13.0920   11.7400 O.3   3001  NAG3001    -0.2183
     12  O4        13.5780   12.4200   13.4900 O.3   3001  NAG3001    -0.2176
     13  O5        11.2320   14.1200   15.7710 O.3   3001  NAG3001    -0.3242
     14  O6        13.5770   15.1740   16.2040 O.3   3001  NAG3001    -0.2176
     15  O7         9.0810   14.1070   10.7680 O.2   3001  NAG3001    -0.2733
@<TRIPOS>BOND
     1    15     7    2
     2    11     3    1
     3     7     8    1
     4     7     9   am
     5     9     2    1
     6     3     2    1
     7     3     4    1
     8    12     4    1
     9     2     1    1
    10     4     5    1
    11     1    10    1
    12     1    13    1
    13     5    13    1
    14     5     6    1
    15     6    14    1
