@<TRIPOS>MOLECULE
2dwi_CBI_A_1.pdb
 23 24 0 0 0
SMALL
GASTEIGER

@<TRIPOS>ATOM
      1  C1         5.4600   20.5140   21.4770 C.3   695  CBI695      0.2695
      2  C2         6.3490   20.7540   22.6910 C.3   695  CBI695      0.2406
      3  C3         5.5550   20.5800   23.9840 C.3   695  CBI695      0.2198
      4  C4         4.1300   21.1280   23.9290 C.3   695  CBI695      0.2144
      5  C5         3.4530   20.9260   22.5760 C.3   695  CBI695      0.1835
      6  C6         2.1400   21.6940   22.4920 C.3   695  CBI695      0.2142
      7  O2         7.4220   19.8050   22.6760 O.3   695  CBI695     -0.2149
      8  O3         6.2450   21.2390   25.0530 O.3   695  CBI695     -0.2174
      9  O4         3.3580   20.4640   24.9360 O.3   695  CBI695     -0.2176
     10  O5         4.3200   21.3670   21.5340 O.3   695  CBI695     -0.3256
     11  O6         1.1390   20.8610   21.9020 O.3   695  CBI695     -0.2176
     12  C1'        6.4600   17.7820   17.1480 C.3   695  CBI695      0.3023
     13  C2'        5.0710   17.8310   17.7760 C.3   695  CBI695      0.2433
     14  C3'        4.9260   19.0820   18.6350 C.3   695  CBI695      0.2168
     15  C4'        6.0900   19.2360   19.6160 C.3   695  CBI695      0.1804
     16  C5'        7.4580   18.9690   18.9840 C.3   695  CBI695      0.1804
     17  C6'        8.5370   18.7890   20.0480 C.3   695  CBI695      0.2141
     18  O1'        6.6060   16.5770   16.3890 O.3   695  CBI695     -0.1869
     19  O2'        4.0630   17.8390   16.7580 O.3   695  CBI695     -0.2148
     20  O3'        3.6810   19.0220   19.3460 O.3   695  CBI695     -0.2175
     21  O4'        6.0640   20.5480   20.1840 O.3   695  CBI695     -0.3257
     22  O5'        7.4390   17.7840   18.1860 O.3   695  CBI695     -0.3237
     23  O6'        9.8240   18.7460   19.4190 O.3   695  CBI695     -0.2176
@<TRIPOS>BOND
     1    18    12    1
     2    19    13    1
     3    12    13    1
     4    12    22    1
     5    13    14    1
     6    22    16    1
     7    14    20    1
     8    14    15    1
     9    16    15    1
    10    16    17    1
    11    23    17    1
    12    15    21    1
    13    21     1    1
    14     1    10    1
    15     1     2    1
    16    10     5    1
    17    11     6    1
    18     6     5    1
    19     5     4    1
    20     7     2    1
    21     2     3    1
    22     4     3    1
    23     4     9    1
    24     3     8    1
