@<TRIPOS>MOLECULE
2dwj_GAL_A_1.pdb
 11 11 0 0 0
SMALL
GASTEIGER

@<TRIPOS>ATOM
      1  C1        13.1770   14.3720   15.6370 C.3     1  GAL1        0.1777
      2  C2        11.7500   14.5520   15.0480 C.3     1  GAL1        0.2141
      3  C3        11.4680   13.6520   13.8220 C.3     1  GAL1        0.2173
      4  C4        12.6990   13.4600   12.9420 C.3     1  GAL1        0.2142
      5  C5        13.9060   13.1340   13.8120 C.3     1  GAL1        0.1810
      6  C6        15.1870   12.7940   13.0720 C.3     1  GAL1        0.2141
      7  O2        10.7690   14.2780   16.0330 O.3     1  GAL1       -0.2176
      8  O3        10.4590   14.1720   12.9730 O.3     1  GAL1       -0.2175
      9  O4        12.9120   14.6490   12.2110 O.3     1  GAL1       -0.2176
     10  O5        14.1600   14.2360   14.6390 O.3     1  GAL1       -0.3481
     11  O6        16.1980   12.7360   14.0610 O.3     1  GAL1       -0.2176
@<TRIPOS>BOND
     1     9     4    1
     2     4     5    1
     3     4     3    1
     4     8     3    1
     5     6     5    1
     6     6    11    1
     7     5    10    1
     8     3     2    1
     9    10     1    1
    10     2     1    1
    11     2     7    1
