@<TRIPOS>MOLECULE
2dwj_GLC_A_1.pdb
 11 11 0 0 0
SMALL
GASTEIGER

@<TRIPOS>ATOM
      1  C1        12.8270   18.5620   14.6760 C.3     2  GLC2        0.1777
      2  C2        13.8200   19.6620   15.1140 C.3     2  GLC2        0.2141
      3  C3        15.1820   19.4230   14.4600 C.3     2  GLC2        0.2173
      4  C4        15.7540   18.0950   14.9770 C.3     2  GLC2        0.2142
      5  C5        14.7760   16.9210   14.7880 C.3     2  GLC2        0.1810
      6  C6        14.8760   15.9240   15.9710 C.3     2  GLC2        0.2141
      7  O2        13.3430   20.9750   14.8320 O.3     2  GLC2       -0.2176
      8  O3        16.0490   20.5220   14.6940 O.3     2  GLC2       -0.2175
      9  O4        16.9880   17.7750   14.3390 O.3     2  GLC2       -0.2176
     10  O5        13.4310   17.2820   14.3950 O.3     2  GLC2       -0.3481
     11  O6        13.6340   15.4210   16.4460 O.3     2  GLC2       -0.2176
@<TRIPOS>BOND
     1     9     4    1
     2    10     1    1
     3    10     5    1
     4     3     8    1
     5     3     4    1
     6     3     2    1
     7     1     2    1
     8     5     4    1
     9     5     6    1
    10     7     2    1
    11     6    11    1
