@<TRIPOS>MOLECULE
2dwj_FRU_A_1.pdb
 12 12 0 0 0
SMALL
GASTEIGER

@<TRIPOS>ATOM
      1  C1        11.1970   18.9010   12.3280 C.3     3  FRU3        0.2488
      2  C2        12.1100   19.5240   11.2430 C.3     3  FRU3        0.3088
      3  C3        11.5430   19.8430    9.8550 C.2     3  FRU3        0.2660
      4  C4        12.1390   19.0780    8.9100 C.2     3  FRU3        0.2419
      5  C5        13.3010   18.7440    9.4400 C.3     3  FRU3        0.2151
      6  C6        14.6750   18.9170    8.8760 C.3     3  FRU3        0.2196
      7  O1        11.9350   18.7100   13.5600 O.3     3  FRU3       -0.2143
      8  O2        12.6460   20.7270   11.8090 O.3     3  FRU3       -0.1839
      9  O3        11.2360   21.0270    9.6300 O.2     3  FRU3       -0.2829
     10  O4        11.5950   18.3840    8.0410 O.2     3  FRU3       -0.2854
     11  O5        13.1570   18.6110   10.8720 O.3     3  FRU3       -0.3164
     12  O6        15.4560   18.4760    9.9820 O.3     3  FRU3       -0.2172
@<TRIPOS>BOND
     1    10     4    2
     2     6     5    1
     3     6    12    1
     4     4     5    1
     5     4     3    1
     6     5    11    1
     7     9     3    2
     8     3     2    1
     9    11     2    1
    10     2     8    1
    11     2     1    1
    12     1     7    1
