@<TRIPOS>MOLECULE
2dwl_NUC_E_1.pdb
 37 41 0 0 0
SMALL
GASTEIGER

@<TRIPOS>ATOM
      1  O5'       59.5390   13.1200   29.3370 O.3     1  DA1        -0.2176
      2  C5'       58.1870   12.6270   29.2470 C.3     1  DA1         0.2141
      3  C4'       58.1340   11.2090   28.7180 C.3     1  DA1         0.1796
      4  O4'       58.8130   10.3450   29.6480 O.3     1  DA1        -0.3155
      5  C3'       56.7420   10.6000   28.5420 C.3     1  DA1         0.1582
      6  O3'       56.7680    9.6520   27.4580 O.3     1  DA1        -0.3138
      7  C2'       56.5050    9.8930   29.8720 C.3     1  DA1         0.1122
      8  C1'       57.9010    9.4610   30.2870 C.3     1  DA1         0.2872
      9  N9        58.2010    9.5070   31.7210 N.pl3   1  DA1        -0.1460
     10  C8        58.6510   10.5990   32.4320 C.3     1  DA1         0.3377
     11  N7        58.8800   10.3530   33.6960 N.2     1  DA1        -0.2095
     12  C5        58.5490    9.0110   33.8370 C.2     1  DA1         0.2526
     13  C6        58.5660    8.1440   34.9450 C.2     1  DA1         0.4393
     14  N6        58.9560    8.5140   36.1700 N.pl3   1  DA1         0.2180
     15  N1        58.1640    6.8670   34.7490 N.2     1  DA1         0.0021
     16  C2        57.7820    6.4930   33.5240 C.3     1  DA1         0.5254
     17  N3        57.7270    7.2130   32.4020 N.2     1  DA1        -0.0055
     18  C4        58.1260    8.4780   32.6290 C.2     1  DA1         0.3518
     19  P         56.2240   10.0660   25.9940 P.3     2  DC2         0.2141
     20  OP1       57.1420   11.0370   25.3380 O.2     2  DC2        -0.5172
     21  OP2       54.7780   10.3810   26.1160 O.3     2  DC2        -0.4373
     22  O5'       56.3620    8.7360   25.1340 O.3     2  DC2        -0.3114
     23  C5'       56.5870    7.4740   25.7630 C.3     2  DC2         0.1812
     24  C4'       56.6350    6.3890   24.7180 C.3     2  DC2         0.1773
     25  O4'       56.5690    5.1220   25.3950 O.3     2  DC2        -0.3339
     26  C3'       55.4340    6.4190   23.7840 C.3     2  DC2         0.1857
     27  O3'       55.8490    5.7350   22.6110 O.3     2  DC2        -0.2203
     28  C2'       54.4130    5.5870   24.5280 C.3     2  DC2         0.0874
     29  C1'       55.2790    4.5560   25.2560 C.3     2  DC2         0.2090
     30  N1        54.8020    4.2080   26.6110 N.am    2  DC2        -0.1802
     31  C2        55.0280    2.9080   27.1060 C.1     2  DC2         0.2756
     32  O2        55.6540    2.0920   26.4160 O.2     2  DC2        -0.1925
     33  N3        54.5580    2.5820   28.3280 N.2     2  DC2        -0.3024
     34  C4        53.8960    3.4900   29.0560 C.2     2  DC2         0.2346
     35  N4        53.4290    3.1130   30.2470 N.pl3   2  DC2        -0.0921
     36  C5        53.6770    4.8200   28.5910 C.2     2  DC2         0.0687
     37  C6        54.1390    5.1320   27.3760 C.2     2  DC2         0.0835
@<TRIPOS>BOND
     1    27    26    1
     2    26    28    1
     3    26    24    1
     4    28    29    1
     5    24    25    1
     6    24    23    1
     7    22    23    1
     8    22    19    1
     9    29    25    1
    10    29    30    1
    11    20    19    2
    12    19    21    1
    13    19     6    1
    14    32    31    2
    15    30    31   am
    16    30    37    1
    17    31    33    2
    18    37    36    2
    19     6     5    1
    20    33    34    2
    21     5     3    1
    22     5     7    1
    23    36    34    1
    24     3     2    1
    25     3     4    1
    26    34    35    1
    27     2     1    1
    28     4     8    1
    29     7     8    1
    30     8     9    1
    31     9    10    1
    32     9    18    1
    33    17    18    2
    34    17    16    1
    35    10    11    1
    36    18    12    1
    37    16    15    1
    38    11    12    2
    39    12    13    1
    40    15    13    2
    41    13    14    1
