@<TRIPOS>MOLECULE
2dwm_NUC_E_1.pdb
 20 21 0 0 0
SMALL
GASTEIGER

@<TRIPOS>ATOM
      1  P         56.9420    9.7060   26.3880 P.3     2  DT2         0.3942
      2  OP1       55.7820    9.9870   27.2680 O.3     2  DT2        -0.1425
      3  OP2       57.3570   10.7050   25.3890 O.3     2  DT2        -0.1425
      4  O5'       56.6360    8.3280   25.6440 O.3     2  DT2        -0.2926
      5  C5'       57.6580    7.6840   24.8830 C.3     2  DT2         0.1829
      6  C4'       57.2350    6.3010   24.4370 C.3     2  DT2         0.1773
      7  O4'       57.1160    5.3970   25.5700 O.3     2  DT2        -0.3339
      8  C3'       55.9040    6.2260   23.6870 C.3     2  DT2         0.1857
      9  O3'       56.1240    5.5690   22.4460 O.3     2  DT2        -0.2203
     10  C2'       55.0090    5.4150   24.6160 C.3     2  DT2         0.0874
     11  C1'       56.0140    4.5390   25.3410 C.3     2  DT2         0.2090
     12  N1        55.5740    3.9430   26.6300 N.am    2  DT2        -0.1794
     13  C2        55.6080    2.5600   26.7330 C.1     2  DT2         0.2844
     14  O2        55.9890    1.8260   25.8330 O.2     2  DT2        -0.1918
     15  N3        55.1690    2.0540   27.9350 N.2     2  DT2        -0.2455
     16  C4        54.7000    2.7620   29.0200 C.1     2  DT2         0.2134
     17  O4        54.3340    2.1520   30.0350 O.2     2  DT2        -0.2088
     18  C5        54.6880    4.2150   28.8450 C.2     2  DT2         0.0891
     19  C7        54.1820    5.0790   29.9560 C.3     2  DT2         0.0462
     20  C6        55.1310    4.7220   27.6790 C.2     2  DT2         0.0877
@<TRIPOS>BOND
     1     9     8    1
     2     8     6    1
     3     8    10    1
     4     6     5    1
     5     6     7    1
     6    10    11    1
     7     5     4    1
     8    11     7    1
     9    11    12    1
    10     3     1    1
    11     4     1    1
    12    14    13    2
    13     1     2    1
    14    12    13   am
    15    12    20    1
    16    13    15    2
    17    20    18    2
    18    15    16    2
    19    18    16    1
    20    18    19    1
    21    16    17    2
