@<TRIPOS>MOLECULE
2dwn_NUC_E_1.pdb
 19 21 0 0 0
SMALL
GASTEIGER

@<TRIPOS>ATOM
      1  O5'       55.7560    8.3590   26.4310 O.3     2  DG2        -0.2176
      2  C5'       56.8890    8.0260   25.5820 C.3     2  DG2         0.2141
      3  C4'       56.8950    6.7270   24.7900 C.3     2  DG2         0.1802
      4  O4'       57.0090    5.5680   25.6550 O.3     2  DG2        -0.3346
      5  C3'       55.6970    6.4540   23.8820 C.3     2  DG2         0.1858
      6  O3'       56.1880    5.7680   22.7260 O.3     2  DG2        -0.2203
      7  C2'       54.8450    5.5020   24.7080 C.3     2  DG2         0.0865
      8  C1'       55.8700    4.7240   25.5260 C.3     2  DG2         0.1981
      9  N9        55.4230    4.4070   26.8740 N.pl3   2  DG2        -0.2374
     10  C8        54.7590    5.2330   27.7540 C.3     2  DG2         0.2245
     11  N7        54.5140    4.6670   28.9030 N.2     2  DG2        -0.2322
     12  C5        55.0440    3.3870   28.7720 C.2     2  DG2         0.2182
     13  C6        55.0880    2.3030   29.6960 C.1     2  DG2         0.2372
     14  O6        54.6540    2.2520   30.8490 O.2     2  DG2        -0.2069
     15  N1        55.7250    1.1890   29.1460 N.2     2  DG2        -0.2485
     16  C2        56.2530    1.1280   27.8720 C.1     2  DG2         0.2531
     17  N2        56.8410   -0.0250   27.4980 N.pl3   2  DG2        -0.0226
     18  N3        56.2120    2.1290   27.0120 N.2     2  DG2        -0.3074
     19  C4        55.6000    3.2190   27.5240 C.2     2  DG2         0.2299
@<TRIPOS>BOND
     1     6     5    1
     2     5     7    1
     3     5     3    1
     4     7     8    1
     5     3     2    1
     6     3     4    1
     7     8     4    1
     8     8     9    1
     9     2     1    1
    10     9    19    1
    11     9    10    1
    12    18    19    2
    13    18    16    2
    14    17    16    1
    15    19    12    1
    16    10    11    1
    17    16    15    2
    18    12    11    2
    19    12    13    1
    20    15    13    2
    21    13    14    2
