@<TRIPOS>MOLECULE
2dwo_PEP_A_1.pdb
 10 9 0 0 0
SMALL
GASTEIGER

@<TRIPOS>ATOM
      1  C1        -4.0190   48.6260   -4.7070 C.2   701  PEP701      0.4216
      2  O1        -4.5020   48.4050   -3.5790 O.co2 701  PEP701     -0.2371
      3  O2'       -4.5810   48.1300   -5.7320 O.co2 701  PEP701     -0.2371
      4  C2        -2.7640   49.4720   -4.8740 C.2   701  PEP701      0.2283
      5  C3        -2.4460   50.1350   -6.0200 C.2   701  PEP701      0.0477
      6  O2        -1.9400   49.5650   -3.8050 O.2   701  PEP701     -0.3930
      7  P         -0.6170   50.3170   -3.5370 P.3   701  PEP701      0.5889
      8  O1P        0.1070   49.3350   -2.3170 O.3   701  PEP701     -0.1039
      9  O2P        0.3040   50.4620   -4.8680 O.2   701  PEP701     -0.2114
     10  O3P       -1.1680   51.5180   -2.7720 O.3   701  PEP701     -0.1039
@<TRIPOS>BOND
     1     5     4    2
     2     3     1   ar
     3     4     1    1
     4     4     6    1
     5     9     7    2
     6     1     2   ar
     7     6     7    1
     8     7    10    1
     9     7     8    1
