@<TRIPOS>MOLECULE
2dwo_F6P_A_1.pdb
 16 16 0 0 0
SMALL
GASTEIGER

@<TRIPOS>ATOM
      1  O1       -43.6680   66.1150   13.7950 O.3   720  F6P720     -0.2148
      2  C1       -43.5760   67.4240   14.2960 C.3   720  F6P720      0.2434
      3  C2       -42.1030   67.8670   14.4540 C.3   720  F6P720      0.2807
      4  O2       -41.3310   67.0170   15.3080 O.3   720  F6P720     -0.1896
      5  C3       -42.1820   69.3260   14.9810 C.3   720  F6P720      0.2409
      6  O3       -42.0890   69.4110   16.3900 O.3   720  F6P720     -0.2149
      7  C4       -41.0270   69.9640   14.1890 C.3   720  F6P720      0.2167
      8  O4       -41.1630   71.3650   14.1180 O.3   720  F6P720     -0.2175
      9  C5       -41.2960   69.2580   12.8980 C.3   720  F6P720      0.1808
     10  O5       -41.4810   67.9050   13.1590 O.3   720  F6P720     -0.3254
     11  C6       -40.3330   69.6400   11.7850 C.3   720  F6P720      0.1859
     12  O6       -40.6770   68.8740   10.6370 O.3   720  F6P720     -0.2675
     13  P        -39.9090   69.5030    9.4170 P.3   720  F6P720      0.5327
     14  O1P      -38.4630   69.6720    9.5910 O.3   720  F6P720     -0.1145
     15  O2P      -40.2300   68.6410    8.0950 O.2   720  F6P720     -0.2224
     16  O3P      -40.6030   70.9380    9.2520 O.3   720  F6P720     -0.1145
@<TRIPOS>BOND
     1    15    13    2
     2    16    13    1
     3    13    14    1
     4    13    12    1
     5    12    11    1
     6    11     9    1
     7     9    10    1
     8     9     7    1
     9    10     3    1
    10     1     2    1
    11     8     7    1
    12     7     5    1
    13     2     3    1
    14     3     5    1
    15     3     4    1
    16     5     6    1
