@<TRIPOS>MOLECULE
2dwo_ADP_A_1.pdb
 27 29 0 0 0
SMALL
GASTEIGER

@<TRIPOS>ATOM
      1  PB        -7.3290   48.0660    4.4240 P.3   700  ADP700      0.5373
      2  O1B       -6.2420   48.4770    5.3630 O.3   700  ADP700     -0.1143
      3  O2B       -7.9890   49.1930    3.7100 O.3   700  ADP700     -0.1143
      4  O3B       -6.7060   47.0820    3.3620 O.2   700  ADP700     -0.2221
      5  PA       -10.0510   47.7710    5.2970 P.3   700  ADP700      0.2231
      6  O1A      -10.3960   49.1700    5.6670 O.3   700  ADP700     -0.4370
      7  O2A      -10.4670   47.1760    4.0140 O.2   700  ADP700     -0.5169
      8  O3A       -8.3810   47.4960    5.3920 O.3   700  ADP700     -0.2261
      9  O5'      -10.4720   46.9280    6.5700 O.3   700  ADP700     -0.3111
     10  C5'      -11.7830   47.0490    7.0930 C.3   700  ADP700      0.1813
     11  C4'      -11.7900   46.1670    8.3190 C.3   700  ADP700      0.1821
     12  O4'      -10.8110   46.5920    9.2550 O.3   700  ADP700     -0.3135
     13  C3'      -13.1180   46.0840    9.0790 C.3   700  ADP700      0.2184
     14  O3'      -13.3880   44.7240    9.3550 O.3   700  ADP700     -0.2174
     15  C2'      -12.8510   46.8690   10.3800 C.3   700  ADP700      0.2570
     16  O2'      -13.6030   46.4220   11.5120 O.3   700  ADP700     -0.2130
     17  C1'      -11.3400   46.7030   10.5430 C.3   700  ADP700      0.3186
     18  N9       -10.7120   47.8400   11.2760 N.pl3 700  ADP700     -0.1439
     19  C8       -11.1490   49.1300   11.5770 C.3   700  ADP700      0.3377
     20  N7       -10.3480   49.9340   12.2640 N.2   700  ADP700     -0.2095
     21  C5        -9.2710   49.1060   12.4440 C.2   700  ADP700      0.2526
     22  C6        -8.0100   49.2730   13.0920 C.2   700  ADP700      0.4393
     23  N6        -7.6690   50.5220   13.7340 N.pl3 700  ADP700      0.2180
     24  N1        -7.1090   48.2270   13.1090 N.2   700  ADP700      0.0021
     25  C2        -7.4150   47.0280   12.5040 C.3   700  ADP700      0.5254
     26  N3        -8.5740   46.7350   11.8500 N.2   700  ADP700     -0.0055
     27  C4        -9.4660   47.8090   11.8490 C.2   700  ADP700      0.3518
@<TRIPOS>BOND
     1     4     1    2
     2     3     1    1
     3     7     5    2
     4     1     2    1
     5     1     8    1
     6     5     8    1
     7     5     6    1
     8     5     9    1
     9     9    10    1
    10    10    11    1
    11    11    13    1
    12    11    12    1
    13    13    14    1
    14    13    15    1
    15    12    17    1
    16    15    17    1
    17    15    16    1
    18    17    18    1
    19    18    19    1
    20    18    27    1
    21    19    20    1
    22    27    26    2
    23    27    21    1
    24    26    25    1
    25    20    21    2
    26    21    22    1
    27    25    24    1
    28    22    24    2
    29    22    23    1
