@<TRIPOS>MOLECULE
2dwp_F6P_A_1.pdb
 16 16 0 0 0
SMALL
GASTEIGER

@<TRIPOS>ATOM
      1  O1        -4.1590   45.9080   -0.3840 O.3   702  F6P702     -0.2148
      2  C1        -4.6400   46.0120   -1.7200 C.3   702  F6P702      0.2434
      3  C2        -4.8340   47.4880   -2.0980 C.3   702  F6P702      0.2807
      4  O2        -5.7610   48.1130   -1.1860 O.3   702  F6P702     -0.1896
      5  C3        -5.3430   47.5750   -3.5710 C.3   702  F6P702      0.2409
      6  O3        -6.7630   47.6880   -3.6770 O.3   702  F6P702     -0.2149
      7  C4        -4.5860   48.8140   -4.1160 C.3   702  F6P702      0.2167
      8  O4        -4.4910   48.8160   -5.5560 O.3   702  F6P702     -0.2175
      9  C5        -3.2340   48.6630   -3.3970 C.3   702  F6P702      0.1808
     10  O5        -3.5640   48.1760   -2.0610 O.3   702  F6P702     -0.3254
     11  C6        -2.4870   50.0070   -3.3680 C.3   702  F6P702      0.1859
     12  O6        -1.2040   49.8690   -2.7210 O.3   702  F6P702     -0.2675
     13  P         -0.4930   51.3110   -2.7970 P.3   702  F6P702      0.5327
     14  O1P       -1.3240   52.3060   -2.1030 O.3   702  F6P702     -0.1145
     15  O2P        0.9620   51.2790   -2.0990 O.3   702  F6P702     -0.1145
     16  O3P       -0.3420   51.7370   -4.3520 O.2   702  F6P702     -0.2224
@<TRIPOS>BOND
     1     8     7    1
     2    16    13    2
     3     7     5    1
     4     7     9    1
     5     6     5    1
     6     5     3    1
     7     9    11    1
     8     9    10    1
     9    11    12    1
    10    13    12    1
    11    13    14    1
    12    13    15    1
    13     3    10    1
    14     3     2    1
    15     3     4    1
    16     2     1    1
