@<TRIPOS>MOLECULE
2dwp_ACP_A_1.pdb
 31 33 0 0 0
SMALL
GASTEIGER

@<TRIPOS>ATOM
      1  PG        -6.4670   47.0050    1.7260 P.3   700  ACP700      0.1295
      2  O1G       -6.0720   45.5850    1.4450 O.3   700  ACP700     -0.3567
      3  O2G       -7.6410   47.4030    0.8910 O.2   700  ACP700     -0.4595
      4  O3G       -5.1420   48.2210    1.4900 O.3   700  ACP700     -0.3567
      5  PB        -7.4810   47.9140    4.3330 P.3   700  ACP700      0.3815
      6  O1B       -6.3540   48.0870    5.2690 O.3   700  ACP700     -0.1391
      7  O2B       -7.9550   49.1430    3.6670 O.2   700  ACP700     -0.2547
      8  C3B       -6.9990   46.8490    3.2720 C.3   700  ACP700      0.1768
      9  PA       -10.2620   47.6740    5.2940 P.3   700  ACP700      0.2209
     10  O1A      -10.6540   49.0600    5.6320 O.3   700  ACP700     -0.4371
     11  O2A      -10.6750   47.0270    4.0370 O.2   700  ACP700     -0.5170
     12  O3A       -8.5910   47.4210    5.3280 O.3   700  ACP700     -0.2483
     13  O5'      -10.6290   46.8270    6.5870 O.3   700  ACP700     -0.3111
     14  C5'      -11.9200   46.8530    7.1410 C.3   700  ACP700      0.1813
     15  C4'      -11.8640   45.9060    8.3460 C.3   700  ACP700      0.1821
     16  O4'      -10.8970   46.3350    9.2630 O.3   700  ACP700     -0.3135
     17  C3'      -13.1720   45.7500    9.1310 C.3   700  ACP700      0.2184
     18  O3'      -13.3120   44.3870    9.4960 O.3   700  ACP700     -0.2174
     19  C2'      -12.9350   46.6100   10.3710 C.3   700  ACP700      0.2570
     20  O2'      -13.7200   46.2590   11.5250 O.3   700  ACP700     -0.2130
     21  C1'      -11.4150   46.4490   10.5510 C.3   700  ACP700      0.3186
     22  N9       -10.7870   47.6320   11.2020 N.pl3 700  ACP700     -0.1439
     23  C8       -11.2210   48.9320   11.4000 C.3   700  ACP700      0.3377
     24  N7       -10.4310   49.7890   12.0280 N.2   700  ACP700     -0.2095
     25  C5        -9.3600   48.9700   12.2870 C.2   700  ACP700      0.2526
     26  C6        -8.1010   49.1930   12.9310 C.2   700  ACP700      0.4393
     27  N6        -7.7710   50.4900   13.4800 N.pl3 700  ACP700      0.2180
     28  N1        -7.2050   48.1460   13.0380 N.2   700  ACP700      0.0021
     29  C2        -7.5080   46.9000   12.5180 C.3   700  ACP700      0.5254
     30  N3        -8.6600   46.5560   11.8760 N.2   700  ACP700     -0.0055
     31  C4        -9.5510   47.6330   11.7880 C.2   700  ACP700      0.3518
@<TRIPOS>BOND
     1     3     1    2
     2     2     1    1
     3     4     1    1
     4     1     8    1
     5     8     5    1
     6     7     5    2
     7    11     9    2
     8     5     6    1
     9     5    12    1
    10     9    12    1
    11     9    10    1
    12     9    13    1
    13    13    14    1
    14    14    15    1
    15    15    17    1
    16    15    16    1
    17    17    18    1
    18    17    19    1
    19    16    21    1
    20    19    21    1
    21    19    20    1
    22    21    22    1
    23    22    23    1
    24    22    31    1
    25    23    24    1
    26    31    30    2
    27    31    25    1
    28    30    29    1
    29    24    25    2
    30    25    26    1
    31    29    28    1
    32    26    28    2
    33    26    27    1
