@<TRIPOS>MOLECULE
2dwu_DGL_A_1.pdb
 10 9 0 0 0
SMALL
GASTEIGER

@<TRIPOS>ATOM
      1  N         -1.2710    1.9790   11.3820 N.3   278  DGL278     -0.1208
      2  CA        -0.2410    2.9530   10.8720 C.3   278  DGL278      0.1949
      3  C          0.3410    3.7410   11.9980 C.2   278  DGL278      0.3819
      4  O          0.9800    4.7890   11.8130 O.co2 278  DGL278     -0.2441
      5  CB         0.8750    2.1950   10.1400 C.3   278  DGL278      0.0424
      6  CG         0.3460    1.7610    8.7600 C.3   278  DGL278      0.1161
      7  CD        -0.1450    2.8230    7.8760 C.2   278  DGL278      0.3649
      8  OE1       -1.3380    2.9860    7.6760 O.co2 278  DGL278     -0.2457
      9  OE2        0.7670    3.6230    7.3230 O.co2 278  DGL278     -0.2457
     10  OXT        0.1610    3.2650   13.2250 O.co2 278  DGL278     -0.2441
@<TRIPOS>BOND
     1     9     7   ar
     2     8     7   ar
     3     7     6    1
     4     6     5    1
     5     5     2    1
     6     2     1    1
     7     2     3    1
     8     4     3   ar
     9     3    10   ar
