@<TRIPOS>MOLECULE
2dwx_III_Q_1.pdb
 26 27 0 0 0
SMALL
GASTEIGER

@<TRIPOS>ATOM
      1  N        -23.4900   16.8660  146.2340 N.3    -1  GLY-1      -0.1210
      2  CA       -22.4700   17.1860  145.1830 C.3    -1  GLY-1       0.1956
      3  C        -23.1340   17.7360  143.9460 C.2    -1  GLY-1       0.2612
      4  O        -23.5740   16.9720  143.0970 O.2    -1  GLY-1      -0.2717
      5  N        -23.2140   19.0660  143.8730 N.am    0  TRP0       -0.1962
      6  CA       -23.9040   19.7780  142.7970 C.3     0  TRP0        0.1768
      7  C        -23.0330   20.9140  142.1920 C.2     0  TRP0        0.2619
      8  O        -21.8790   21.1050  142.5880 O.2     0  TRP0       -0.2715
      9  CB       -25.2810   20.2580  143.3030 C.3     0  TRP0        0.0553
     10  CG       -26.3090   19.1320  143.3140 C.2     0  TRP0       -0.0136
     11  CD1      -26.3450   18.0510  144.1640 C.2     0  TRP0        0.0907
     12  CD2      -27.4140   18.9580  142.4150 C.3     0  TRP0        0.0819
     13  NE1      -27.4040   17.2290  143.8530 N.2     0  TRP0       -0.2482
     14  CE2      -28.0760   17.7560  142.7820 C.2     0  TRP0        0.0665
     15  CE3      -27.9170   19.6930  141.3370 C.2     0  TRP0       -0.0164
     16  CZ2      -29.2120   17.2890  142.1190 C.2     0  TRP0        0.0153
     17  CZ3      -29.0330   19.2210  140.6760 C.2     0  TRP0       -0.0038
     18  CH2      -29.6710   18.0300  141.0690 C.2     0  TRP0        0.0009
     19  N        -23.5760   21.6320  141.2080 N.am    1  ASN1       -0.1972
     20  CA       -22.7860   22.5470  140.3770 C.3     1  ASN1        0.1688
     21  C        -23.6940   23.5050  139.5920 C.2     1  ASN1        0.2292
     22  O        -24.3460   23.1210  138.6130 O.2     1  ASN1       -0.2864
     23  CB       -21.9050   21.7350  139.4000 C.3     1  ASN1        0.1181
     24  CG       -20.4350   22.1400  139.4310 C.2     1  ASN1        0.2629
     25  OD1      -20.0920   23.3160  139.3610 O.2     1  ASN1       -0.2716
     26  ND2      -19.5630   21.1510  139.4970 N.am    1  ASN1       -0.0877
@<TRIPOS>BOND
     1    22    21    2
     2    25    24    2
     3    23    24    1
     4    23    20    1
     5    24    26   am
     6    21    20    1
     7    20    19    1
     8    17    18    1
     9    17    15    2
    10    18    16    2
    11    19     7   am
    12    15    12    1
    13    16    14    1
    14     7     8    2
    15     7     6    1
    16    12    14    1
    17    12    10    1
    18    14    13    2
    19     6     9    1
    20     6     5    1
    21     4     3    2
    22     9    10    1
    23    10    11    2
    24    13    11    1
    25     5     3   am
    26     3     2    1
    27     2     1    1
