@<TRIPOS>MOLECULE
2dx7_CIT_A_1.pdb
 13 12 0 0 0
SMALL
GASTEIGER

@<TRIPOS>ATOM
      1  C1        -0.4070    7.1540   -1.6580 C.2   501  CIT501      0.3680
      2  O1         0.4840    7.6450   -1.0030 O.co2 501  CIT501     -0.2455
      3  O2        -0.2990    7.1000   -2.9950 O.co2 501  CIT501     -0.2455
      4  C2        -1.6580    6.6110   -0.9830 C.3   501  CIT501      0.1560
      5  C3        -1.3990    5.3330   -0.1140 C.3   501  CIT501      0.2402
      6  O7        -0.3770    5.6390    0.8440 O.3   501  CIT501     -0.2129
      7  C4        -2.6890    4.9440    0.6860 C.3   501  CIT501      0.1560
      8  C5        -3.8750    4.4510   -0.1540 C.2   501  CIT501      0.3680
      9  O3        -4.1510    4.9620   -1.2150 O.co2 501  CIT501     -0.2455
     10  O4        -4.6160    3.4300    0.2950 O.co2 501  CIT501     -0.2455
     11  C6        -0.8750    4.1660   -0.9880 C.2   501  CIT501      0.3927
     12  O5         0.2690    4.1700   -1.3830 O.co2 501  CIT501     -0.2429
     13  O6        -1.6600    3.1340   -1.3270 O.co2 501  CIT501     -0.2429
@<TRIPOS>BOND
     1     3     1   ar
     2     1     2   ar
     3     1     4    1
     4    12    11   ar
     5    13    11   ar
     6     9     8   ar
     7    11     5    1
     8     4     5    1
     9     8    10   ar
    10     8     7    1
    11     5     7    1
    12     5     6    1
