@<TRIPOS>MOLECULE
2dxd_ANP_A_1.pdb
 23 25 0 0 0
SMALL
GASTEIGER

@<TRIPOS>ATOM
      1  PA        -2.0480   20.3250    2.1760 P.3   501  ANP501      0.5327
      2  O1A       -1.7470   21.7570    1.5020 O.3   501  ANP501     -0.1145
      3  O2A       -2.7120   19.4240    1.0180 O.2   501  ANP501     -0.2224
      4  O3A       -0.8430   19.7030    2.7690 O.3   501  ANP501     -0.1145
      5  O5'       -3.2150   20.5810    3.2560 O.3   501  ANP501     -0.2675
      6  C5'       -2.8890   21.0460    4.5680 C.3   501  ANP501      0.1860
      7  C4'       -4.1410   21.1090    5.4450 C.3   501  ANP501      0.1823
      8  O4'       -5.1620   21.9510    4.8830 O.3   501  ANP501     -0.3135
      9  C3'       -4.8020   19.7390    5.5880 C.3   501  ANP501      0.2184
     10  O3'       -4.1050   18.9770    6.5770 O.3   501  ANP501     -0.2174
     11  C2'       -6.1330   20.2210    6.1590 C.3   501  ANP501      0.2570
     12  O2'       -5.9220   20.7690    7.4630 O.3   501  ANP501     -0.2130
     13  C1'       -6.4380   21.3490    5.1710 C.3   501  ANP501      0.3186
     14  N9        -6.9660   20.7810    3.9090 N.pl3 501  ANP501     -0.1439
     15  C8        -6.2440   20.3630    2.8720 C.3   501  ANP501      0.3377
     16  N7        -7.0540   19.9320    1.9070 N.2   501  ANP501     -0.2095
     17  C5        -8.3060   20.0770    2.3320 C.2   501  ANP501      0.2526
     18  C6        -9.5530   19.8150    1.7780 C.2   501  ANP501      0.4393
     19  N6        -9.6550   19.2970    0.5570 N.pl3 501  ANP501      0.2180
     20  N1       -10.6510   20.0930    2.4930 N.2   501  ANP501      0.0021
     21  C2       -10.5610   20.6080    3.7070 C.3   501  ANP501      0.5254
     22  N3        -9.3920   20.8690    4.2650 N.2   501  ANP501     -0.0055
     23  C4        -8.2510   20.6170    3.6090 C.2   501  ANP501      0.3518
@<TRIPOS>BOND
     1    19    18    1
     2     3     1    2
     3     2     1    1
     4    18    17    1
     5    18    20    2
     6    16    17    2
     7    16    15    1
     8     1     4    1
     9     1     5    1
    10    17    23    1
    11    20    21    1
    12    15    14    1
    13     5     6    1
    14    23    14    1
    15    23    22    2
    16    21    22    1
    17    14    13    1
    18     6     7    1
    19     8    13    1
    20     8     7    1
    21    13    11    1
    22     7     9    1
    23     9    11    1
    24     9    10    1
    25    11    12    1
