@<TRIPOS>MOLECULE
2dxe_GDP_A_1.pdb
 28 30 0 0 0
SMALL
GASTEIGER

@<TRIPOS>ATOM
      1  PB        27.3810    3.2240   -8.7070 P.3   501  GDP501      0.5373
      2  O1B       25.9640    3.3610   -9.1110 O.2   501  GDP501     -0.2221
      3  O2B       28.1810    4.6190   -8.7790 O.3   501  GDP501     -0.1143
      4  O3B       27.5540    2.6970   -7.1950 O.3   501  GDP501     -0.1143
      5  O3A       28.2060    2.1990   -9.6360 O.3   501  GDP501     -0.2261
      6  PA        27.4900    0.9480  -10.3540 P.3   501  GDP501      0.2231
      7  O1A       26.0370    1.0340  -10.0850 O.3   501  GDP501     -0.4370
      8  O2A       27.9410    0.8990  -11.7630 O.2   501  GDP501     -0.5169
      9  O5'       28.1110   -0.3100   -9.5620 O.3   501  GDP501     -0.3111
     10  C5'       27.6790   -0.6190   -8.2340 C.3   501  GDP501      0.1813
     11  C4'       28.8770   -0.9990   -7.3620 C.3   501  GDP501      0.1799
     12  O4'       29.6040   -2.1260   -7.8810 O.3   501  GDP501     -0.3326
     13  C3'       29.8970    0.1390   -7.3460 C.3   501  GDP501      0.2158
     14  O3'       29.4690    1.1310   -6.4090 O.3   501  GDP501     -0.2175
     15  C2'       31.0770   -0.6390   -6.7670 C.3   501  GDP501      0.2310
     16  O2'       30.8310   -0.9340   -5.3890 O.3   501  GDP501     -0.2158
     17  C1'       31.0010   -1.9230   -7.5970 C.3   501  GDP501      0.2293
     18  N9        31.6890   -1.7680   -8.9000 N.pl3 501  GDP501     -0.2354
     19  C8        31.3330   -0.9480   -9.8870 C.3   501  GDP501      0.2246
     20  N7        32.1560   -1.1140  -10.9200 N.2   501  GDP501     -0.2322
     21  C5        33.0470   -2.0450  -10.5910 C.2   501  GDP501      0.2182
     22  C6        34.1230   -2.6120  -11.2640 C.1   501  GDP501      0.2372
     23  O6        34.4000   -2.2650  -12.4110 O.2   501  GDP501     -0.2069
     24  N1        34.8850   -3.5900  -10.6140 N.2   501  GDP501     -0.2485
     25  C2        34.5410   -3.9680   -9.3100 C.1   501  GDP501      0.2531
     26  N2        35.2640   -4.8870   -8.6760 N.pl3 501  GDP501     -0.0226
     27  N3        33.4940   -3.4010   -8.6950 N.2   501  GDP501     -0.3074
     28  C4        32.7510   -2.4610   -9.2990 C.2   501  GDP501      0.2300
@<TRIPOS>BOND
     1    23    22    2
     2     8     6    2
     3    22    24    2
     4    22    21    1
     5    20    21    2
     6    20    19    1
     7    24    25    2
     8    21    28    1
     9     6     7    1
    10     6     5    1
    11     6     9    1
    12    19    18    1
    13     5     1    1
    14     9    10    1
    15    25    27    2
    16    25    26    1
    17    28    18    1
    18    28    27    2
    19     2     1    2
    20    18    17    1
    21     3     1    1
    22     1     4    1
    23    10    11    1
    24    12    17    1
    25    12    11    1
    26    17    15    1
    27    11    13    1
    28    13    15    1
    29    13    14    1
    30    15    16    1
