@<TRIPOS>MOLECULE
2dxf_GNP_A_1.pdb
 24 26 0 0 0
SMALL
GASTEIGER

@<TRIPOS>ATOM
      1  O3A       13.3980   22.1240   10.7640 O.3   501  GNP501     -0.1145
      2  PA        14.6850   23.0530   10.4950 P.3   501  GNP501      0.5327
      3  O1A       15.0720   23.6960   11.9190 O.3   501  GNP501     -0.1145
      4  O2A       15.8080   22.3130    9.8760 O.2   501  GNP501     -0.2224
      5  O5'       14.1710   24.2780    9.5850 O.3   501  GNP501     -0.2675
      6  C5'       13.7190   24.0380    8.2500 C.3   501  GNP501      0.1859
      7  C4'       13.6830   25.3380    7.4440 C.3   501  GNP501      0.1801
      8  O4'       12.8640   26.3500    8.0550 O.3   501  GNP501     -0.3326
      9  C3'       15.0700   25.9710    7.3580 C.3   501  GNP501      0.2158
     10  O3'       15.8310   25.2940    6.3550 O.3   501  GNP501     -0.2175
     11  C2'       14.6360   27.3390    6.8390 C.3   501  GNP501      0.2310
     12  O2'       14.1450   27.2130    5.5010 O.3   501  GNP501     -0.2158
     13  C1'       13.4760   27.6280    7.7950 C.3   501  GNP501      0.2293
     14  N9        13.9960   28.1410    9.0820 N.pl3 501  GNP501     -0.2354
     15  C8        14.4520   27.4050   10.0940 C.3   501  GNP501      0.2246
     16  N7        14.8150   28.2050   11.0940 N.2   501  GNP501     -0.2322
     17  C5        14.5910   29.4600   10.7190 C.2   501  GNP501      0.2182
     18  C6        14.7760   30.6860   11.3460 C.1   501  GNP501      0.2372
     19  O6        15.2360   30.7450   12.4850 O.2   501  GNP501     -0.2069
     20  N1        14.4290   31.8540   10.6580 N.2   501  GNP501     -0.2485
     21  C2        13.9070   31.7540    9.3620 C.1   501  GNP501      0.2531
     22  N2        13.5790   32.8570    8.6950 N.pl3 501  GNP501     -0.0226
     23  N3        13.7420   30.5530    8.7900 N.2   501  GNP501     -0.3074
     24  C4        14.0690   29.4220    9.4320 C.2   501  GNP501      0.2300
@<TRIPOS>BOND
     1    12    11    1
     2    10     9    1
     3    11     9    1
     4    11    13    1
     5     9     7    1
     6     7     8    1
     7     7     6    1
     8    13     8    1
     9    13    14    1
    10     6     5    1
    11    22    21    1
    12    23    21    2
    13    23    24    2
    14    14    24    1
    15    14    15    1
    16    21    20    2
    17    24    17    1
    18     5     2    1
    19     4     2    2
    20    15    16    1
    21     2     1    1
    22     2     3    1
    23    20    18    2
    24    17    16    2
    25    17    18    1
    26    18    19    2
