@<TRIPOS>MOLECULE
2dxi_ATP_A_1.pdb
 31 33 0 0 0
SMALL
GASTEIGER

@<TRIPOS>ATOM
      1  PG        40.3430   79.8280   58.7310 P.3   601  ATP601      0.5373
      2  O1G       39.2750   80.8240   58.3050 O.2   601  ATP601     -0.2221
      3  O2G       40.1510   79.5280   60.2170 O.3   601  ATP601     -0.1143
      4  O3G       41.7410   80.3990   58.5500 O.3   601  ATP601     -0.1143
      5  PB        38.7770   77.8090   57.2310 P.3   601  ATP601      0.2277
      6  O1B       37.8590   78.9220   56.7990 O.2   601  ATP601     -0.5168
      7  O2B       38.0480   76.8740   58.1460 O.3   601  ATP601     -0.4368
      8  O3B       40.1560   78.3550   57.9820 O.3   601  ATP601     -0.2258
      9  PA        40.2410   77.4600   54.7300 P.3   601  ATP601      0.2189
     10  O1A       40.9600   78.7370   54.9820 O.3   601  ATP601     -0.4371
     11  O2A       41.2000   76.3950   54.2980 O.2   601  ATP601     -0.5170
     12  O3A       39.3530   76.9280   56.0110 O.3   601  ATP601     -0.2700
     13  O5'       39.1210   77.7120   53.6060 O.3   601  ATP601     -0.3112
     14  C5'       38.3020   76.5820   53.2040 C.3   601  ATP601      0.1813
     15  C4'       37.1350   76.8720   52.2490 C.3   601  ATP601      0.1821
     16  O4'       35.9950   76.0940   52.7350 O.3   601  ATP601     -0.3135
     17  C3'       36.5650   78.3220   52.1280 C.3   601  ATP601      0.2184
     18  O3'       36.0440   78.6350   50.8090 O.3   601  ATP601     -0.2174
     19  C2'       35.5190   78.3780   53.2420 C.3   601  ATP601      0.2570
     20  O2'       34.4330   79.2390   52.8630 O.3   601  ATP601     -0.2130
     21  C1'       35.0100   76.9270   53.3490 C.3   601  ATP601      0.3186
     22  N9        34.8110   76.4340   54.7550 N.pl3 601  ATP601     -0.1439
     23  C8        35.6160   76.6390   55.8790 C.3   601  ATP601      0.3377
     24  N7        35.1660   76.0780   56.9760 N.2   601  ATP601     -0.2095
     25  C5        33.9920   75.4540   56.5790 C.2   601  ATP601      0.2526
     26  C6        33.0300   74.6880   57.2930 C.2   601  ATP601      0.4393
     27  N6        33.1530   74.4320   58.6010 N.pl3 601  ATP601      0.2180
     28  N1        31.9340   74.1910   56.5950 N.2   601  ATP601      0.0021
     29  C2        31.8210   74.4620   55.2620 C.3   601  ATP601      0.5254
     30  N3        32.6760   75.1830   54.4840 N.2   601  ATP601     -0.0055
     31  C4        33.7460   75.6620   55.2080 C.2   601  ATP601      0.3518
@<TRIPOS>BOND
     1    18    17    1
     2    17    15    1
     3    17    19    1
     4    15    16    1
     5    15    14    1
     6    16    21    1
     7    20    19    1
     8    14    13    1
     9    19    21    1
    10    21    22    1
    11    13     9    1
    12    11     9    2
    13    30    31    2
    14    30    29    1
    15     9    10    1
    16     9    12    1
    17    22    31    1
    18    22    23    1
    19    31    25    1
    20    29    28    1
    21    23    24    1
    22    12     5    1
    23    25    24    2
    24    25    26    1
    25    28    26    2
    26     6     5    2
    27     5     8    1
    28     5     7    1
    29    26    27    1
    30     8     1    1
    31     2     1    2
    32     4     1    1
    33     1     3    1
