@<TRIPOS>MOLECULE
2dxp_III_B_1.pdb
 33 33 0 0 0
SMALL
GASTEIGER

@<TRIPOS>ATOM
      1  N         17.0850   11.1690   -7.1130 N.3   170  ALA170     -0.1231
      2  CA        17.7970    9.8700   -7.0230 C.3   170  ALA170      0.1694
      3  C         19.0360    9.9620   -6.1810 C.2   170  ALA170      0.2592
      4  O         19.2420   10.9190   -5.4290 O.2   170  ALA170     -0.2718
      5  CB        18.1740    9.3720   -8.4010 C.3   170  ALA170      0.0304
      6  N         19.8700    8.9470   -6.3580 N.am  171  TYR171     -0.1962
      7  CA        21.0950    8.8440   -5.6040 C.3   171  TYR171      0.1771
      8  C         22.2990    8.4710   -6.4280 C.2   171  TYR171      0.2620
      9  O         22.1930    8.0030   -7.5680 O.2   171  TYR171     -0.2715
     10  CB        20.9270    7.7930   -4.5170 C.3   171  TYR171      0.0574
     11  CG        19.6170    7.9220   -3.8090 C.ar  171  TYR171     -0.0198
     12  CD1       19.4230    8.9130   -2.8570 C.ar  171  TYR171     -0.0011
     13  CD2       18.5440    7.1070   -4.1470 C.ar  171  TYR171     -0.0011
     14  CE1       18.1940    9.0970   -2.2600 C.ar  171  TYR171      0.0371
     15  CE2       17.3050    7.2810   -3.5570 C.ar  171  TYR171      0.0371
     16  CZ        17.1400    8.2810   -2.6160 C.ar  171  TYR171      0.1490
     17  OH        15.9180    8.4810   -2.0410 O.3   171  TYR171     -0.3998
     18  P         15.4680    7.6240   -0.8850 P.3   171  TYR171      0.5887
     19  O1P       14.0620    7.9680   -0.5460 O.3   171  TYR171     -0.1039
     20  O2P       15.5550    6.1920   -1.2610 O.2   171  TYR171     -0.2114
     21  O3P       16.3400    7.8790    0.2840 O.3   171  TYR171     -0.1039
     22  N         23.4540    8.6940   -5.8180 N.am  172  ARG172     -0.1941
     23  CA        24.7150    8.3270   -6.4180 C.3   172  ARG172      0.1979
     24  C         24.9580    6.9330   -5.8560 C.2   172  ARG172      0.3842
     25  O         25.3300    6.0370   -6.6410 O.co2 172  ARG172     -0.2437
     26  CB        25.8290    9.2910   -5.9960 C.3   172  ARG172      0.0370
     27  CG        25.4760   10.2080   -4.8450 C.3   172  ARG172      0.0493
     28  CD        26.3040   11.4830   -4.8850 C.3   172  ARG172      0.2205
     29  NE        27.3270   11.5930   -3.8430 N.pl3 172  ARG172     -0.0865
     30  CZ        27.1240   11.3610   -2.5480 C.cat 172  ARG172      0.5346
     31  NH1       25.9330   10.9740   -2.1100 N.pl3 172  ARG172      0.1354
     32  NH2       28.1010   11.5800   -1.6790 N.pl3 172  ARG172      0.1354
     33  OXT       24.7480    6.7550   -4.6340 O.co2 172  ARG172     -0.2437
@<TRIPOS>BOND
     1     5     2    1
     2     9     8    2
     3     1     2    1
     4     2     3    1
     5    25    24   ar
     6     8    22   am
     7     8     7    1
     8    23    26    1
     9    23    24    1
    10    23    22    1
    11     6     3   am
    12     6     7    1
    13     3     4    2
    14    26    27    1
    15    24    33   ar
    16     7    10    1
    17    28    27    1
    18    28    29    1
    19    10    11    1
    20    13    11   ar
    21    13    15   ar
    22    29    30    2
    23    11    12   ar
    24    15    16   ar
    25    12    14   ar
    26    16    14   ar
    27    16    17    1
    28    30    31    1
    29    30    32    1
    30    17    18    1
    31    20    18    2
    32    18    19    1
    33    18    21    1
