@<TRIPOS>MOLECULE
2dxr_SOR_A_1.pdb
 12 11 0 0 0
SMALL
GASTEIGER

@<TRIPOS>ATOM
      1  C1        10.6130   15.9790   15.5680 C.3   1001  SOR1001     0.2175
      2  C2        10.9320   16.8750   16.7720 C.3   1001  SOR1001     0.2175
      3  C3         9.9710   18.0650   16.9510 C.3   1001  SOR1001     0.2175
      4  C4        10.3940   18.9370   18.1440 C.3   1001  SOR1001     0.2175
      5  C5         9.8730   20.3670   18.0650 C.3   1001  SOR1001     0.2175
      6  C6        10.7340   21.2870   18.9360 C.3   1001  SOR1001     0.2175
      7  O1        11.3670   14.7810   15.5930 O.3   1001  SOR1001    -0.2175
      8  O2        11.0840   16.0830   17.9390 O.3   1001  SOR1001    -0.2175
      9  O3         8.5950   17.7120   17.0270 O.3   1001  SOR1001    -0.2175
     10  O4         9.9140   18.4360   19.3740 O.3   1001  SOR1001    -0.2175
     11  O5         9.8700   20.8000   16.7150 O.3   1001  SOR1001    -0.2175
     12  O6        10.1450   21.5380   20.1960 O.3   1001  SOR1001    -0.2175
@<TRIPOS>BOND
     1     1     7    1
     2     1     2    1
     3    11     5    1
     4     2     3    1
     5     2     8    1
     6     3     9    1
     7     3     4    1
     8     5     4    1
     9     5     6    1
    10     4    10    1
    11     6    12    1
