@<TRIPOS>MOLECULE
2dxs_JTP_A_1.pdb
 33 37 0 0 0
SMALL
GASTEIGER

@<TRIPOS>ATOM
      1  C1       -18.2950   -5.9650    2.1880 C.3   1000  JTP1000     0.0333
      2  C2       -17.1200   -5.1140    1.6440 C.3   1000  JTP1000     0.1718
      3  N3       -16.1110   -4.8420    2.7030 N.am  1000  JTP1000    -0.1941
      4  C4       -15.2500   -5.7360    3.3080 C.2   1000  JTP1000     0.2652
      5  C5       -14.3830   -5.1880    4.3870 C.ar  1000  JTP1000     0.0565
      6  C6       -13.4140   -6.0480    4.9890 C.ar  1000  JTP1000     0.0047
      7  C7       -12.5740   -5.5720    6.0210 C.ar  1000  JTP1000     0.0013
      8  C8       -12.6680   -4.2500    6.4780 C.ar  1000  JTP1000     0.0132
      9  C9       -13.6410   -3.3680    5.8810 C.ar  1000  JTP1000     0.0598
     10  N10      -13.5230   -2.1290    6.5120 N.ar  1000  JTP1000    -0.3235
     11  C11      -12.5230   -2.2060    7.4750 C.ar  1000  JTP1000     0.0589
     12  C12      -12.1770   -0.9930    8.3190 C.ar  1000  JTP1000     0.0494
     13  C13      -12.0050    0.2560    7.6500 C.ar  1000  JTP1000     0.1399
     14  C14      -11.6830    1.4300    8.3750 C.ar  1000  JTP1000     0.0369
     15  C15      -11.5300    1.3760    9.7800 C.ar  1000  JTP1000     0.0031
     16  C16      -11.7020    0.1400   10.4510 C.ar  1000  JTP1000     0.0002
     17  C17      -12.0230   -1.0320    9.7280 C.ar  1000  JTP1000     0.0044
     18  O18      -12.1550    0.3400    6.2580 O.3   1000  JTP1000    -0.4733
     19  C19      -13.5150    0.3300    5.7880 C.3   1000  JTP1000     0.2297
     20  C20      -14.3530   -0.9200    6.1910 C.3   1000  JTP1000     0.1533
     21  C21      -11.9480   -3.4990    7.5060 C.ar  1000  JTP1000    -0.0052
     22  C22      -10.8130   -4.0070    8.4250 C.3   1000  JTP1000     0.0238
     23  C23       -9.5310   -4.4170    7.6450 C.3   1000  JTP1000     0.0044
     24  C24       -8.4400   -4.9250    8.6190 C.3   1000  JTP1000     0.0003
     25  C25       -8.9490   -6.0890    9.4890 C.3   1000  JTP1000     0.0000
     26  C26      -10.2090   -5.6800   10.2710 C.3   1000  JTP1000     0.0003
     27  C27      -11.3320   -5.1560    9.3450 C.3   1000  JTP1000     0.0044
     28  C28      -14.4780   -3.8350    4.8540 C.ar  1000  JTP1000     0.0217
     29  O29      -15.2060   -6.9230    2.9850 O.2   1000  JTP1000    -0.2684
     30  C30      -16.4560   -5.7790    0.3780 C.2   1000  JTP1000     0.3820
     31  O31      -16.6000   -7.1300    0.3430 O.co2 1000  JTP1000    -0.2438
     32  O32      -15.8580   -5.1730   -0.4650 O.co2 1000  JTP1000    -0.2438
     33  C33      -17.6670   -3.7310    1.2430 C.3   1000  JTP1000     0.0333
@<TRIPOS>BOND
     1    32    30   ar
     2    31    30   ar
     3    30     2    1
     4    33     2    1
     5     2     1    1
     6     2     3    1
     7     3     4   am
     8    29     4    2
     9     4     5    1
    10     5    28   ar
    11     5     6   ar
    12    28     9   ar
    13     6     7   ar
    14    19    20    1
    15    19    18    1
    16     9     8   ar
    17     9    10   ar
    18     7     8   ar
    19    20    10    1
    20    18    13    1
    21     8    21   ar
    22    10    11   ar
    23    11    21   ar
    24    11    12    1
    25    21    22    1
    26    23    22    1
    27    23    24    1
    28    13    12   ar
    29    13    14   ar
    30    12    17   ar
    31    14    15   ar
    32    22    27    1
    33    24    25    1
    34    27    26    1
    35    25    26    1
    36    17    16   ar
    37    15    16   ar
