@<TRIPOS>MOLECULE
2dxt_ATP_A_1.pdb
 31 33 0 0 0
SMALL
GASTEIGER

@<TRIPOS>ATOM
      1  PG       -14.9570  -14.8400   -4.1280 P.3   1301  ATP1301     0.5373
      2  O1G      -15.3510  -13.8690   -3.0450 O.3   1301  ATP1301    -0.1143
      3  O2G      -14.2750  -16.0400   -3.4790 O.3   1301  ATP1301    -0.1143
      4  O3G      -14.0130  -14.1600   -5.1050 O.2   1301  ATP1301    -0.2221
      5  PB       -17.3460  -14.6830   -5.8260 P.3   1301  ATP1301     0.2277
      6  O1B      -18.1720  -15.6170   -6.6460 O.3   1301  ATP1301    -0.4368
      7  O2B      -16.6230  -13.7330   -6.7230 O.2   1301  ATP1301    -0.5168
      8  O3B      -16.2690  -15.5010   -4.8820 O.3   1301  ATP1301    -0.2258
      9  PA       -19.6800  -14.1900   -4.2250 P.3   1301  ATP1301     0.2189
     10  O1A      -20.7010  -14.2760   -5.2840 O.2   1301  ATP1301    -0.5170
     11  O2A      -19.6160  -15.4840   -3.4960 O.3   1301  ATP1301    -0.4371
     12  O3A      -18.1850  -13.8240   -4.7690 O.3   1301  ATP1301    -0.2700
     13  O5'      -20.0940  -12.9780   -3.2710 O.3   1301  ATP1301    -0.3112
     14  C5'      -19.2290  -11.8350   -3.0010 C.3   1301  ATP1301     0.1813
     15  C4'      -18.3410  -11.9090   -1.7750 C.3   1301  ATP1301     0.1821
     16  O4'      -17.3730  -10.8210   -1.9090 O.3   1301  ATP1301    -0.3135
     17  C3'      -19.0180  -11.6720   -0.4210 C.3   1301  ATP1301     0.2184
     18  O3'      -19.4880  -12.9060    0.1370 O.3   1301  ATP1301    -0.2174
     19  C2'      -17.9340  -10.9550    0.3520 C.3   1301  ATP1301     0.2570
     20  O2'      -17.1120  -11.8460    1.1110 O.3   1301  ATP1301    -0.2130
     21  C1'      -17.0680  -10.2220   -0.6570 C.3   1301  ATP1301     0.3186
     22  N9       -17.3130   -8.7610   -0.8710 N.pl3 1301  ATP1301    -0.1439
     23  C8       -18.4510   -7.9760   -0.6450 C.3   1301  ATP1301     0.3377
     24  N7       -18.2950   -6.6980   -0.9610 N.2   1301  ATP1301    -0.2095
     25  C5       -16.9920   -6.6170   -1.4140 C.2   1301  ATP1301     0.2526
     26  C6       -16.1950   -5.5310   -1.9220 C.2   1301  ATP1301     0.4393
     27  N6       -16.6480   -4.2720   -2.0260 N.pl3 1301  ATP1301     0.2180
     28  N1       -14.8740   -5.8070   -2.3120 N.2   1301  ATP1301     0.0021
     29  C2       -14.3900   -7.0810   -2.2160 C.3   1301  ATP1301     0.5254
     30  N3       -15.0580   -8.1740   -1.7580 N.2   1301  ATP1301    -0.0055
     31  C4       -16.3670   -7.8850   -1.3790 C.2   1301  ATP1301     0.3518
@<TRIPOS>BOND
     1     7     5    2
     2     6     5    1
     3     5     8    1
     4     5    12    1
     5    10     9    2
     6     4     1    2
     7     8     1    1
     8    12     9    1
     9     9    11    1
    10     9    13    1
    11     1     3    1
    12     1     2    1
    13    13    14    1
    14    14    15    1
    15    28    29    1
    16    28    26    2
    17    29    30    1
    18    27    26    1
    19    26    25    1
    20    16    15    1
    21    16    21    1
    22    15    17    1
    23    30    31    2
    24    25    31    1
    25    25    24    2
    26    31    22    1
    27    24    23    1
    28    22    21    1
    29    22    23    1
    30    21    19    1
    31    17    18    1
    32    17    19    1
    33    19    20    1
