@<TRIPOS>MOLECULE
2dxt_BTN_A_1.pdb
 16 17 0 0 0
SMALL
GASTEIGER

@<TRIPOS>ATOM
      1  C11      -18.9620  -11.2610   -6.9800 C.2   1401  BTN1401     0.3649
      2  O11      -17.7700  -11.0410   -6.6800 O.co2 1401  BTN1401    -0.2457
      3  O12      -19.5930  -12.2770   -6.5630 O.co2 1401  BTN1401    -0.2457
      4  C10      -19.7220  -10.3110   -7.8550 C.3   1401  BTN1401     0.1141
      5  C9       -19.9180   -8.8940   -7.4800 C.3   1401  BTN1401     0.0118
      6  C8       -20.5830   -8.0760   -8.5320 C.3   1401  BTN1401     0.0015
      7  C7       -20.7310   -6.6510   -8.0660 C.3   1401  BTN1401     0.0129
      8  C2       -21.3890   -5.6900   -9.0390 C.3   1401  BTN1401     0.0729
      9  S1       -21.4990   -4.0330   -8.3820 S.3   1401  BTN1401    -0.1369
     10  C6       -22.3440   -3.5780   -9.9080 C.3   1401  BTN1401     0.0848
     11  C5       -23.4230   -4.7050  -10.0000 C.3   1401  BTN1401     0.1509
     12  N1       -24.6090   -4.4360   -9.1550 N.2   1401  BTN1401    -0.1859
     13  C3       -24.7620   -5.4460   -8.2300 C.1   1401  BTN1401     0.2386
     14  O3       -25.6650   -5.5160   -7.3610 O.2   1401  BTN1401    -0.2023
     15  N2       -23.7710   -6.3890   -8.3830 N.2   1401  BTN1401    -0.1860
     16  C4       -22.8610   -6.0380   -9.4710 C.3   1401  BTN1401     0.1500
@<TRIPOS>BOND
     1    11    10    1
     2    11    16    1
     3    11    12    1
     4    10     9    1
     5    16     8    1
     6    16    15    1
     7    12    13    2
     8     8     9    1
     9     8     7    1
    10     6     7    1
    11     6     5    1
    12    15    13    2
    13    13    14    2
    14     4     5    1
    15     4     1    1
    16     1     2   ar
    17     1     3   ar
