@<TRIPOS>MOLECULE
2dxu_BT5_B_1.pdb
 38 42 0 0 0
SMALL
GASTEIGER

@<TRIPOS>ATOM
      1  CBB      -19.4160  -11.1430   -6.8930 C.2   2301  BT52301     0.3210
      2  OBB      -20.1570  -12.0330   -6.3490 O.3   2301  BT52301    -0.4101
      3  OCB      -18.1660  -11.1220   -6.7140 O.2   2301  BT52301    -0.2498
      4  CAB      -20.1350  -10.1290   -7.7580 C.3   2301  BT52301     0.1098
      5  C9B      -20.2770   -8.9040   -7.4170 C.3   2301  BT52301     0.0117
      6  C8B      -20.9190   -8.0480   -8.4530 C.3   2301  BT52301     0.0015
      7  C7B      -21.0380   -6.6250   -7.9570 C.3   2301  BT52301     0.0129
      8  C2B      -21.6830   -5.6510   -8.9280 C.3   2301  BT52301     0.0729
      9  S1B      -21.7880   -3.9850   -8.2850 S.3   2301  BT52301    -0.1369
     10  C6B      -22.6400   -3.5260   -9.8140 C.3   2301  BT52301     0.0848
     11  C5B      -23.7070   -4.6500   -9.9240 C.3   2301  BT52301     0.1509
     12  N1B      -24.9010   -4.3880   -9.0870 N.2   2301  BT52301    -0.1859
     13  C3B      -25.0470   -5.3890   -8.1790 C.1   2301  BT52301     0.2386
     14  O3B      -25.9570   -5.4570   -7.3150 O.2   2301  BT52301    -0.2023
     15  N2B      -24.0650   -6.3300   -8.3190 N.2   2301  BT52301    -0.1860
     16  C4B      -23.1510   -5.9840   -9.3880 C.3   2301  BT52301     0.1500
     17  P        -19.6610  -13.3060   -5.3460 P.3   2301  BT52301     0.2722
     18  OP1      -18.5980  -14.1380   -6.0350 O.2   2301  BT52301    -0.5082
     19  OP2      -20.8290  -14.0320   -5.1500 O.3   2301  BT52301    -0.4273
     20  O5'      -19.0330  -12.7270   -4.1760 O.3   2301  BT52301    -0.3024
     21  C5'      -19.6610  -11.8680   -3.1730 C.3   2301  BT52301     0.1823
     22  C4'      -18.7290  -11.8400   -2.0860 C.3   2301  BT52301     0.1822
     23  O4'      -17.7310  -10.8400   -2.1650 O.3   2301  BT52301    -0.3135
     24  C3'      -19.4430  -11.5870   -0.7910 C.3   2301  BT52301     0.2184
     25  O3'      -20.0510  -12.7620   -0.2350 O.3   2301  BT52301    -0.2174
     26  C2'      -18.3590  -10.9780    0.0930 C.3   2301  BT52301     0.2570
     27  O2'      -17.6610  -11.9250    0.8770 O.3   2301  BT52301    -0.2130
     28  C1'      -17.4490  -10.2720   -0.8710 C.3   2301  BT52301     0.3186
     29  N9       -17.6490   -8.7650   -1.0330 N.pl3 2301  BT52301    -0.1439
     30  C8       -18.7660   -7.9920   -0.7570 C.3   2301  BT52301     0.3377
     31  N7       -18.5130   -6.6890   -1.0600 N.2   2301  BT52301    -0.2095
     32  C5       -17.2430   -6.6330   -1.5280 C.2   2301  BT52301     0.2526
     33  C6       -16.4660   -5.5530   -1.9890 C.2   2301  BT52301     0.4393
     34  N6       -16.9440   -4.3170   -2.0250 N.pl3 2301  BT52301     0.2180
     35  N1       -15.1440   -5.8380   -2.4190 N.2   2301  BT52301     0.0021
     36  C2       -14.5980   -7.1330   -2.4000 C.3   2301  BT52301     0.5254
     37  N3       -15.3810   -8.1980   -1.9410 N.2   2301  BT52301    -0.0055
     38  C4       -16.6850   -7.9350   -1.5130 C.2   2301  BT52301     0.3518
@<TRIPOS>BOND
     1    11    10    1
     2    11    16    1
     3    11    12    1
     4    10     9    1
     5    16     8    1
     6    16    15    1
     7    12    13    2
     8     8     9    1
     9     8     7    1
    10     6     7    1
    11     6     5    1
    12    15    13    2
    13    13    14    2
    14     4     5    1
    15     4     1    1
    16     1     3    2
    17     1     2    1
    18     2    17    1
    19    18    17    2
    20    17    19    1
    21    17    20    1
    22    20    21    1
    23    21    22    1
    24    35    36    1
    25    35    33    2
    26    36    37    1
    27    23    22    1
    28    23    28    1
    29    22    24    1
    30    34    33    1
    31    33    32    1
    32    37    38    2
    33    32    38    1
    34    32    31    2
    35    38    29    1
    36    31    30    1
    37    29    28    1
    38    29    30    1
    39    28    26    1
    40    24    25    1
    41    24    26    1
    42    26    27    1
