@<TRIPOS>MOLECULE
2dxv_SAH_A_1.pdb
 26 28 0 0 0
SMALL
GASTEIGER

@<TRIPOS>ATOM
      1  N         33.6360   92.7340   66.0930 N.3   1300  SAH1300    -0.1208
      2  CA        32.1930   92.2850   65.9060 C.3   1300  SAH1300     0.1952
      3  CB        31.5480   91.5750   67.0590 C.3   1300  SAH1300     0.0422
      4  CG        32.1970   90.3090   67.5960 C.3   1300  SAH1300     0.0597
      5  SD        31.0610   89.6150   68.8650 S.3   1300  SAH1300    -0.1375
      6  C         31.3640   93.5790   65.5110 C.2   1300  SAH1300     0.3819
      7  O         31.9600   94.6720   65.4370 O.co2 1300  SAH1300    -0.2441
      8  OXT       30.1030   93.4110   65.2820 O.co2 1300  SAH1300    -0.2441
      9  C5'       30.1270   88.5360   67.8550 C.3   1300  SAH1300     0.0899
     10  C4'       28.6460   88.4390   68.3960 C.3   1300  SAH1300     0.1630
     11  O4'       28.0040   89.7250   68.1870 O.3   1300  SAH1300    -0.3153
     12  C3'       27.7980   87.4280   67.7100 C.3   1300  SAH1300     0.2168
     13  O3'       27.9470   86.1600   68.3230 O.3   1300  SAH1300    -0.2175
     14  C2'       26.3960   88.0600   67.8380 C.3   1300  SAH1300     0.2569
     15  O2'       25.8130   87.7870   69.1090 O.3   1300  SAH1300    -0.2130
     16  C1'       26.6410   89.5560   67.5790 C.3   1300  SAH1300     0.3185
     17  N9        26.6310   89.9180   66.2670 N.pl3 1300  SAH1300    -0.1439
     18  C8        27.6040   90.2040   65.3230 C.3   1300  SAH1300     0.3377
     19  N7        27.1550   90.5260   64.1440 N.2   1300  SAH1300    -0.2095
     20  C5        25.7380   90.4620   64.2720 C.2   1300  SAH1300     0.2526
     21  C6        24.6690   90.7100   63.3240 C.2   1300  SAH1300     0.4393
     22  N6        24.8600   91.0710   62.0480 N.pl3 1300  SAH1300     0.2180
     23  N1        23.3990   90.5440   63.8280 N.2   1300  SAH1300     0.0021
     24  C2        23.1460   90.1740   65.1170 C.3   1300  SAH1300     0.5254
     25  N3        24.1310   89.9310   66.0450 N.2   1300  SAH1300    -0.0055
     26  C4        25.3990   90.0930   65.5550 C.2   1300  SAH1300     0.3518
@<TRIPOS>BOND
     1    22    21    1
     2    21    23    2
     3    21    20    1
     4    23    24    1
     5    19    20    2
     6    19    18    1
     7    20    26    1
     8    24    25    1
     9     8     6   ar
    10    18    17    1
    11     7     6   ar
    12     6     2    1
    13    26    25    2
    14    26    17    1
    15     2     1    1
    16     2     3    1
    17    17    16    1
    18     3     4    1
    19    16    14    1
    20    16    11    1
    21     4     5    1
    22    12    14    1
    23    12    13    1
    24    12    10    1
    25    14    15    1
    26     9    10    1
    27     9     5    1
    28    11    10    1
