@<TRIPOS>MOLECULE
2dxw_SAH_A_1.pdb
 26 28 0 0 0
SMALL
GASTEIGER

@<TRIPOS>ATOM
      1  N         33.5580   92.7090   65.9510 N.3   1300  SAH1300    -0.1208
      2  CA        32.1230   92.2350   65.7540 C.3   1300  SAH1300     0.1952
      3  CB        31.4820   91.5150   66.9020 C.3   1300  SAH1300     0.0422
      4  CG        32.1430   90.2590   67.4390 C.3   1300  SAH1300     0.0597
      5  SD        30.9960   89.5350   68.6760 S.3   1300  SAH1300    -0.1375
      6  C         31.2770   93.5160   65.3580 C.2   1300  SAH1300     0.3819
      7  O         31.8560   94.6180   65.2930 O.co2 1300  SAH1300    -0.2441
      8  OXT       30.0200   93.3260   65.1200 O.co2 1300  SAH1300    -0.2441
      9  C5'       30.0630   88.4810   67.6350 C.3   1300  SAH1300     0.0899
     10  C4'       28.5770   88.3600   68.1620 C.3   1300  SAH1300     0.1630
     11  O4'       27.9240   89.6330   67.9190 O.3   1300  SAH1300    -0.3153
     12  C3'       27.7450   87.3270   67.4810 C.3   1300  SAH1300     0.2168
     13  O3'       27.9040   86.0560   68.1000 O.3   1300  SAH1300    -0.2175
     14  C2'       26.3300   87.9440   67.5990 C.3   1300  SAH1300     0.2569
     15  O2'       25.7380   87.6720   68.8740 O.3   1300  SAH1300    -0.2130
     16  C1'       26.5590   89.4410   67.3360 C.3   1300  SAH1300     0.3185
     17  N9        26.5410   89.8070   66.0320 N.pl3 1300  SAH1300    -0.1439
     18  C8        27.5130   90.0780   65.0850 C.3   1300  SAH1300     0.3377
     19  N7        27.0670   90.4130   63.9120 N.2   1300  SAH1300    -0.2095
     20  C5        25.6530   90.3760   64.0510 C.2   1300  SAH1300     0.2526
     21  C6        24.5960   90.6500   63.1130 C.2   1300  SAH1300     0.4393
     22  N6        24.8010   91.0150   61.8380 N.pl3 1300  SAH1300     0.2180
     23  N1        23.3240   90.5090   63.6190 N.2   1300  SAH1300     0.0021
     24  C2        23.0640   90.1390   64.9030 C.3   1300  SAH1300     0.5254
     25  N3        24.0480   89.8700   65.8280 N.2   1300  SAH1300    -0.0055
     26  C4        25.3130   90.0080   65.3340 C.2   1300  SAH1300     0.3518
@<TRIPOS>BOND
     1    22    21    1
     2    21    23    2
     3    21    20    1
     4    23    24    1
     5    19    20    2
     6    19    18    1
     7    20    26    1
     8    24    25    1
     9    18    17    1
    10     8     6   ar
    11     7     6   ar
    12    26    25    2
    13    26    17    1
    14     6     2    1
    15     2     1    1
    16     2     3    1
    17    17    16    1
    18     3     4    1
    19    16    14    1
    20    16    11    1
    21     4     5    1
    22    12    14    1
    23    12    13    1
    24    12    10    1
    25    14    15    1
    26     9    10    1
    27     9     5    1
    28    11    10    1
