@<TRIPOS>MOLECULE
2dxx_SAH_A_1.pdb
 26 28 0 0 0
SMALL
GASTEIGER

@<TRIPOS>ATOM
      1  N         33.7020   92.7580   65.8790 N.3   1300  SAH1300    -0.1208
      2  CA        32.2500   92.3250   65.7140 C.3   1300  SAH1300     0.1952
      3  CB        31.6130   91.6470   66.8910 C.3   1300  SAH1300     0.0422
      4  CG        32.2420   90.3840   67.4390 C.3   1300  SAH1300     0.0597
      5  SD        31.1010   89.7250   68.7180 S.3   1300  SAH1300    -0.1375
      6  C         31.4280   93.6250   65.3190 C.2   1300  SAH1300     0.3819
      7  O         32.0320   94.7130   65.2350 O.co2 1300  SAH1300    -0.2441
      8  OXT       30.1630   93.4620   65.1000 O.co2 1300  SAH1300    -0.2441
      9  C5'       30.1880   88.5880   67.7540 C.3   1300  SAH1300     0.0899
     10  C4'       28.6930   88.5000   68.2690 C.3   1300  SAH1300     0.1630
     11  O4'       28.0590   89.7770   67.9920 O.3   1300  SAH1300    -0.3153
     12  C3'       27.8560   87.4720   67.5980 C.3   1300  SAH1300     0.2168
     13  O3'       28.0010   86.2000   68.2260 O.3   1300  SAH1300    -0.2175
     14  C2'       26.4460   88.1030   67.7030 C.3   1300  SAH1300     0.2569
     15  O2'       25.8490   87.8630   68.9770 O.3   1300  SAH1300    -0.2130
     16  C1'       26.6910   89.5910   67.4210 C.3   1300  SAH1300     0.3185
     17  N9        26.6600   89.9430   66.1150 N.pl3 1300  SAH1300    -0.1439
     18  C8        27.6270   90.2130   65.1610 C.3   1300  SAH1300     0.3377
     19  N7        27.1710   90.5370   63.9890 N.2   1300  SAH1300    -0.2095
     20  C5        25.7590   90.4930   64.1350 C.2   1300  SAH1300     0.2526
     21  C6        24.6940   90.7570   63.2000 C.2   1300  SAH1300     0.4393
     22  N6        24.8940   91.1180   61.9280 N.pl3 1300  SAH1300     0.2180
     23  N1        23.4250   90.6120   63.7100 N.2   1300  SAH1300     0.0021
     24  C2        23.1720   90.2480   64.9980 C.3   1300  SAH1300     0.5254
     25  N3        24.1620   89.9910   65.9170 N.2   1300  SAH1300    -0.0055
     26  C4        25.4260   90.1310   65.4200 C.2   1300  SAH1300     0.3518
@<TRIPOS>BOND
     1    22    21    1
     2    21    23    2
     3    21    20    1
     4    23    24    1
     5    19    20    2
     6    19    18    1
     7    20    26    1
     8    24    25    1
     9     8     6   ar
    10    18    17    1
    11     7     6   ar
    12     6     2    1
    13    26    25    2
    14    26    17    1
    15     2     1    1
    16     2     3    1
    17    17    16    1
    18     3     4    1
    19    16    14    1
    20    16    11    1
    21     4     5    1
    22    12    14    1
    23    12    13    1
    24    12    10    1
    25    14    15    1
    26     9    10    1
    27     9     5    1
    28    11    10    1
