@<TRIPOS>MOLECULE
2dxy_TRE_A_1.pdb
 23 24 0 0 0
SMALL
GASTEIGER

@<TRIPOS>ATOM
      1  C1        11.2850   17.1110   16.2390 C.3   1151  TRE1151     0.3061
      2  C2        11.6930   18.3670   16.1090 C.2   1151  TRE1151     0.2708
      3  C3        10.9450   19.3350   16.6290 C.2   1151  TRE1151     0.2718
      4  C4         9.6650   19.0930   16.9210 C.2   1151  TRE1151     0.2442
      5  C5         9.0640   17.9980   16.4650 C.3   1151  TRE1151     0.2154
      6  C6         7.5550   17.9710   16.3710 C.3   1151  TRE1151     0.2196
      7  O1        12.2570   16.0400   16.4350 O.3   1151  TRE1151    -0.2936
      8  O2        12.7980   18.6080   15.6510 O.2   1151  TRE1151    -0.2825
      9  O3        11.3750   20.4760   16.6630 O.2   1151  TRE1151    -0.2801
     10  O4         9.1120   19.7410   17.7950 O.2   1151  TRE1151    -0.2852
     11  O5         9.8610   16.8340   16.1020 O.3   1151  TRE1151    -0.3163
     12  O6         7.1220   16.7910   15.7140 O.3   1151  TRE1151    -0.2172
     13  C1P       12.2200   14.8980   15.5200 C.3   1151  TRE1151     0.3061
     14  C2P       13.1580   13.9640   15.3370 C.2   1151  TRE1151     0.2708
     15  C3P       13.3330   13.5130   14.0910 C.2   1151  TRE1151     0.2718
     16  C4P       12.2580   13.3250   13.3200 C.2   1151  TRE1151     0.2442
     17  C5P       11.1060   13.8890   13.6680 C.3   1151  TRE1151     0.2154
     18  C6P        9.7890   13.4200   13.0980 C.3   1151  TRE1151     0.2196
     19  O2P       13.9230   13.6320   16.2320 O.2   1151  TRE1151    -0.2825
     20  O3P       14.4390   13.1620   13.7060 O.2   1151  TRE1151    -0.2801
     21  O4P       12.3820   12.8940   12.1890 O.2   1151  TRE1151    -0.2852
     22  O5P       11.1180   15.0030   14.5870 O.3   1151  TRE1151    -0.3163
     23  O6P        9.1080   12.6180   14.0530 O.3   1151  TRE1151    -0.2172
@<TRIPOS>BOND
     1    21    16    2
     2    18    17    1
     3    18    23    1
     4    16    17    1
     5    16    15    1
     6    17    22    1
     7    20    15    2
     8    15    14    1
     9    22    13    1
    10    14    13    1
    11    14    19    2
    12    13     7    1
    13     8     2    2
    14    12     6    1
    15    11     1    1
    16    11     5    1
    17     2     1    1
    18     2     3    1
    19     1     7    1
    20     6     5    1
    21     5     4    1
    22     3     9    2
    23     3     4    1
    24     4    10    2
