@<TRIPOS>MOLECULE
2dy1_GTP_A_1.pdb
 32 34 0 0 0
SMALL
GASTEIGER

@<TRIPOS>ATOM
      1  PG        14.0210   29.3990    9.7100 P.3   700  GTP700      0.5373
      2  O1G       12.5620   29.8900    9.2490 O.2   700  GTP700     -0.2221
      3  O2G       14.2230   27.8680    9.2740 O.3   700  GTP700     -0.1143
      4  O3G       14.2740   29.6100   11.1530 O.3   700  GTP700     -0.1143
      5  O3B       14.9860   30.3010    8.7880 O.3   700  GTP700     -0.2258
      6  PB        16.5430   30.0100    8.5300 P.3   700  GTP700      0.2277
      7  O1B       17.3110   30.4510    9.7180 O.3   700  GTP700     -0.4368
      8  O2B       16.7210   28.6100    8.0760 O.2   700  GTP700     -0.5168
      9  O3A       16.8810   31.0740    7.3780 O.3   700  GTP700     -0.2700
     10  PA        16.8510   30.7420    5.8090 P.3   700  GTP700      0.2189
     11  O1A       18.0740   29.9890    5.4530 O.2   700  GTP700     -0.5170
     12  O2A       15.5330   30.1580    5.4690 O.3   700  GTP700     -0.4371
     13  O5'       16.9750   32.1990    5.1420 O.3   700  GTP700     -0.3112
     14  C5'       15.8440   33.0700    5.1860 C.3   700  GTP700      0.1813
     15  C4'       16.0350   34.2190    4.1980 C.3   700  GTP700      0.1799
     16  O4'       17.3100   34.8100    4.4990 O.3   700  GTP700     -0.3326
     17  C3'       16.1360   33.6700    2.7730 C.3   700  GTP700      0.2158
     18  O3'       15.6270   34.6450    1.8590 O.3   700  GTP700     -0.2175
     19  C2'       17.6430   33.5030    2.5840 C.3   700  GTP700      0.2310
     20  O2'       17.9640   33.6380    1.1960 O.3   700  GTP700     -0.2158
     21  C1'       18.1160   34.7600    3.3120 C.3   700  GTP700      0.2293
     22  N9        19.5440   34.7030    3.6980 N.pl3 700  GTP700     -0.2354
     23  C8        20.1280   33.7350    4.4020 C.3   700  GTP700      0.2246
     24  N7        21.3840   34.0790    4.6790 N.2   700  GTP700     -0.2322
     25  C5        21.6080   35.2750    4.1420 C.2   700  GTP700      0.2182
     26  C6        22.7130   36.1190    4.1040 C.1   700  GTP700      0.2372
     27  O6        23.7610   35.8400    4.6850 O.2   700  GTP700     -0.2069
     28  N1        22.6040   37.3330    3.4140 N.2   700  GTP700     -0.2485
     29  C2        21.4000   37.6750    2.7860 C.1   700  GTP700      0.2531
     30  N2        21.2910   38.8280    2.1320 N.pl3 700  GTP700     -0.0226
     31  N3        20.3540   36.8370    2.8490 N.2   700  GTP700     -0.3074
     32  C4        20.4370   35.6700    3.5040 C.2   700  GTP700      0.2300
@<TRIPOS>BOND
     1    20    19    1
     2    18    17    1
     3    30    29    1
     4    19    17    1
     5    19    21    1
     6    17    15    1
     7    29    31    2
     8    29    28    2
     9    31    32    2
    10    21    22    1
    11    21    16    1
    12    28    26    2
    13    32    22    1
    14    32    25    1
    15    22    23    1
    16    26    25    1
    17    26    27    2
    18    25    24    2
    19    15    16    1
    20    15    14    1
    21    23    24    1
    22    13    14    1
    23    13    10    1
    24    11    10    2
    25    12    10    1
    26    10     9    1
    27     9     6    1
    28     8     6    2
    29     6     5    1
    30     6     7    1
    31     5     1    1
    32     2     1    2
    33     3     1    1
    34     1     4    1
