@<TRIPOS>MOLECULE
2dy3_PLP_A_1.pdb
 15 15 0 0 0
SMALL
GASTEIGER

@<TRIPOS>ATOM
      1  N1       -86.0320   84.3870   51.5820 N.ar  401  PLP401     -0.2452
      2  C2       -86.1610   84.2990   52.9650 C.ar  401  PLP401      0.0978
      3  C2A      -86.3480   82.9300   53.6090 C.3   401  PLP401      0.0555
      4  C3       -86.1090   85.4860   53.7310 C.ar  401  PLP401      0.2049
      5  O3       -86.2280   85.4200   55.1090 O.3   401  PLP401     -0.2857
      6  C4       -85.9390   86.7420   53.0750 C.ar  401  PLP401      0.0182
      7  C4A      -85.8130   88.0790   53.8480 C.3   401  PLP401      0.0342
      8  C5       -85.7900   86.7690   51.6450 C.ar  401  PLP401      0.0261
      9  C6       -85.8450   85.5930   50.9250 C.ar  401  PLP401      0.0965
     10  C5A      -85.5700   88.0420   50.8820 C.3   401  PLP401      0.1815
     11  O4P      -84.1870   88.2900   50.6810 O.3   401  PLP401     -0.2653
     12  P        -83.5420   89.5580   49.9100 P.3   401  PLP401      0.5329
     13  O1P      -84.1130   90.7990   50.4570 O.3   401  PLP401     -0.1145
     14  O2P      -82.1260   89.4030   50.2170 O.3   401  PLP401     -0.1145
     15  O3P      -83.9290   89.3210   48.5080 O.2   401  PLP401     -0.2224
@<TRIPOS>BOND
     1    15    12    2
     2    12    14    1
     3    12    13    1
     4    12    11    1
     5    11    10    1
     6    10     8    1
     7     9     1   ar
     8     9     8   ar
     9     1     2   ar
    10     8     6   ar
    11     2     3    1
    12     2     4   ar
    13     6     4   ar
    14     6     7    1
    15     4     5    1
