@<TRIPOS>MOLECULE
2dy5_224_A_1.pdb
 20 22 0 0 0
SMALL
GASTEIGER

@<TRIPOS>ATOM
      1  C1        28.6820  -26.8500   30.5680 C.ar  301  224301      0.0982
      2  N1        28.4960  -26.1600   29.3660 N.ar  301  224301     -0.3008
      3  C2        29.3810  -27.9750   30.3810 C.ar  301  224301      0.1193
      4  N2        29.6670  -28.0330   29.0210 N.ar  301  224301     -0.2223
      5  C3        29.1200  -26.9130   28.3810 C.ar  301  224301      0.1788
      6  C4        27.8120  -24.9300   29.1880 C.3   301  224301      0.1915
      7  C5        28.6960  -23.6810   29.4610 C.3   301  224301      0.2909
      8  O1        29.2390  -23.7730   30.8040 O.2   301  224301     -0.4405
      9  O2        29.8470  -23.6840   28.5780 O.2   301  224301     -0.4405
     10  C6        31.0050  -23.7810   29.3770 C.2   301  224301      0.2160
     11  C7        30.6520  -23.8340   30.6830 C.2   301  224301      0.2160
     12  C8        27.8450  -22.4060   29.2540 C.3   301  224301      0.0905
     13  C9        28.6290  -21.1390   29.5330 C.3   301  224301      0.0340
     14  C10       29.6250  -20.4280   30.3750 C.ar  301  224301     -0.0219
     15  C11       30.9090  -20.0970   29.8590 C.ar  301  224301     -0.0034
     16  C12       29.3010  -20.0810   31.7170 C.ar  301  224301     -0.0034
     17  C13       30.2360  -19.4110   32.5410 C.ar  301  224301      0.0111
     18  C14       31.8520  -19.4260   30.6750 C.ar  301  224301      0.0111
     19  C15       31.5090  -19.0850   32.0180 C.ar  301  224301      0.0577
     20 CL         32.6330  -18.2790   32.9990 Cl    301  224301     -0.0822
@<TRIPOS>BOND
     1     5     4   ar
     2     5     2   ar
     3     9    10    1
     4     9     7    1
     5     4     3   ar
     6     6     2    1
     7     6     7    1
     8    12     7    1
     9    12    13    1
    10     2     1   ar
    11    10    11    2
    12     7     8    1
    13    13    14    1
    14    15    14   ar
    15    15    18   ar
    16    14    16   ar
    17     3     1   ar
    18    18    19   ar
    19    11     8    1
    20    16    17   ar
    21    19    17   ar
    22    19    20    1
