@<TRIPOS>MOLECULE
2dy5_HEM_A_1.pdb
 43 50 0 0 0
SMALL
GASTEIGER

@<TRIPOS>ATOM
      1 FE         31.3140  -29.0760   28.0170 Fe    300  HEM300      0.0000
      2  CHA       29.3230  -31.8060   27.6220 C.2   300  HEM300      0.0000
      3  CHB       32.2700  -30.2240   31.0850 C.2   300  HEM300      0.0000
      4  CHC       33.3380  -26.3590   28.4190 C.2   300  HEM300      0.0000
      5  CHD       30.3820  -27.8790   24.9580 C.2   300  HEM300      0.0000
      6  NA        30.8830  -30.6920   29.1290 N.2   300  HEM300      0.0000
      7  C1A       30.0390  -31.7310   28.8160 C.2   300  HEM300      0.0000
      8  C2A       30.0020  -32.7120   29.8790 C.2   300  HEM300      0.0000
      9  C3A       30.8260  -32.2640   30.8530 C.2   300  HEM300      0.0000
     10  C4A       31.3740  -31.0040   30.3760 C.2   300  HEM300      0.0000
     11  CMA       31.1540  -32.8920   32.1730 C.3   300  HEM300      0.0000
     12  CAA       29.1880  -33.9980   29.8840 C.3   300  HEM300      0.0000
     13  CBA       30.0520  -35.2680   29.6300 C.3   300  HEM300      0.0000
     14  CGA       29.3790  -36.3750   29.0710 C.2   300  HEM300      0.0000
     15  O1A       29.1000  -37.3390   29.9030 O.co2 300  HEM300      0.0000
     16  O2A       29.0640  -36.4550   27.8550 O.co2 300  HEM300      0.0000
     17  NB        32.5340  -28.4230   29.4370 N.ar  300  HEM300      0.0000
     18  C1B       32.8140  -29.0230   30.6530 C.ar  300  HEM300      0.0000
     19  C2B       33.7570  -28.2400   31.4370 C.ar  300  HEM300      0.0000
     20  C3B       34.0620  -27.1490   30.6820 C.ar  300  HEM300      0.0000
     21  C4B       33.2970  -27.2750   29.4450 C.ar  300  HEM300      0.0000
     22  CMB       34.2570  -28.6250   32.8140 C.3   300  HEM300      0.0000
     23  CAB       34.9990  -26.0040   31.0040 C.3   300  HEM300      0.0000
     24  CBB       34.5180  -25.1080   32.1720 C.3   300  HEM300      0.0000
     25  NC        31.7660  -27.4690   26.9280 N.2   300  HEM300      0.0000
     26  C1C       32.6460  -26.4250   27.2600 C.2   300  HEM300      0.0000
     27  C2C       32.7170  -25.4300   26.2010 C.2   300  HEM300      0.0000
     28  C3C       31.8820  -25.8620   25.2440 C.2   300  HEM300      0.0000
     29  C4C       31.3000  -27.1110   25.6830 C.2   300  HEM300      0.0000
     30  CMC       33.5850  -24.1710   26.2400 C.3   300  HEM300      0.0000
     31  CAC       31.5870  -25.1720   23.9200 C.3   300  HEM300      0.0000
     32  CBC       30.6250  -23.9570   24.1340 C.3   300  HEM300      0.0000
     33  ND        30.0960  -29.7170   26.5890 N.ar  300  HEM300      0.0000
     34  C1D       29.8180  -29.0960   25.3760 C.ar  300  HEM300      0.0000
     35  C2D       28.8650  -29.8790   24.5790 C.ar  300  HEM300      0.0000
     36  C3D       28.5730  -30.9730   25.3280 C.ar  300  HEM300      0.0000
     37  C4D       29.3500  -30.8620   26.5840 C.ar  300  HEM300      0.0000
     38  CMD       28.3820  -29.4650   23.2260 C.3   300  HEM300      0.0000
     39  CAD       27.6520  -32.1480   25.0450 C.3   300  HEM300      0.0000
     40  CBD       28.3170  -33.3040   24.1650 C.3   300  HEM300      0.0000
     41  CGD       27.4710  -34.4440   24.0150 C.2   300  HEM300      0.0000
     42  O1D       27.1710  -34.8630   22.8460 O.co2 300  HEM300      0.0000
     43  O2D       27.0040  -35.0600   25.0250 O.co2 300  HEM300      0.0000
@<TRIPOS>BOND
     1    42    41   ar
     2    38    35    1
     3    31    32    1
     4    31    28    1
     5    41    40    1
     6    41    43   ar
     7    40    39    1
     8    35    36   ar
     9    35    34   ar
    10     5    34    2
    11     5    29    1
    12    39    36    1
    13    28    29    1
    14    28    27    2
    15    36    37   ar
    16    34    33   ar
    17    29    25    2
    18    27    30    1
    19    27    26    1
    20    37    33   ar
    21    37     2    2
    22    33     1    1
    23    25    26    1
    24    25     1    1
    25    26     4    2
    26     2     7    1
    27    16    14   ar
    28     1     6    1
    29     1    17    1
    30     4    21    1
    31     7     6    2
    32     7     8    1
    33    14    13    1
    34    14    15   ar
    35     6    10    1
    36    17    21   ar
    37    17    18   ar
    38    21    20   ar
    39    13    12    1
    40     8    12    1
    41     8     9    2
    42    10     9    1
    43    10     3    2
    44    18     3    1
    45    18    19   ar
    46    20    23    1
    47    20    19   ar
    48     9    11    1
    49    23    24    1
    50    19    22    1
