@<TRIPOS>MOLECULE
2dy9_ADP_A_1.pdb
 27 29 0 0 0
SMALL
GASTEIGER

@<TRIPOS>ATOM
      1  PB        24.1080   35.1340   44.6690 P.3   501  ADP501      0.5373
      2  O1B       24.9630   36.2320   44.1660 O.2   501  ADP501     -0.2221
      3  O2B       24.8520   33.7070   44.6160 O.3   501  ADP501     -0.1143
      4  O3B       23.6610   35.3330   46.2030 O.3   501  ADP501     -0.1143
      5  PA        22.0110   36.2030   43.1090 P.3   501  ADP501      0.2231
      6  O1A       22.8270   37.4170   43.3400 O.3   501  ADP501     -0.4370
      7  O2A       21.6970   35.8240   41.7140 O.2   501  ADP501     -0.5169
      8  O3A       22.7450   34.9580   43.8240 O.3   501  ADP501     -0.2261
      9  O5'       20.6360   36.3240   43.9370 O.3   501  ADP501     -0.3111
     10  C5'       20.6460   36.8200   45.2780 C.3   501  ADP501      0.1813
     11  C4'       19.7520   35.9510   46.1640 C.3   501  ADP501      0.1821
     12  O4'       18.4010   35.8860   45.6770 O.3   501  ADP501     -0.3135
     13  C3'       20.2270   34.4980   46.1440 C.3   501  ADP501      0.2184
     14  O3'       21.3490   34.3580   47.0190 O.3   501  ADP501     -0.2174
     15  C2'       18.9890   33.8700   46.7800 C.3   501  ADP501      0.2570
     16  O2'       18.9080   34.2420   48.1590 O.3   501  ADP501     -0.2130
     17  C1'       17.8830   34.5800   45.9940 C.3   501  ADP501      0.3186
     18  N9        17.5970   33.9010   44.7090 N.pl3 501  ADP501     -0.1439
     19  C8        18.4250   33.7790   43.6730 C.3   501  ADP501      0.3377
     20  N7        17.7960   33.1810   42.6640 N.2   501  ADP501     -0.2095
     21  C5        16.5540   32.9150   43.0590 C.2   501  ADP501      0.2526
     22  C6        15.4490   32.3270   42.4570 C.2   501  ADP501      0.4393
     23  N6        15.5140   31.8980   41.1990 N.pl3 501  ADP501      0.2180
     24  N1        14.3110   32.2130   43.1560 N.2   501  ADP501      0.0021
     25  C2        14.2300   32.6500   44.4010 C.3   501  ADP501      0.5254
     26  N3        15.2600   33.2170   45.0050 N.2   501  ADP501     -0.0055
     27  C4        16.4280   33.3660   44.3660 C.2   501  ADP501      0.3518
@<TRIPOS>BOND
     1    23    22    1
     2     7     5    2
     3    22    21    1
     4    22    24    2
     5    20    21    2
     6    20    19    1
     7    21    27    1
     8     5     6    1
     9     5     8    1
    10     5     9    1
    11    24    25    1
    12    19    18    1
    13     8     1    1
    14     9    10    1
    15     2     1    2
    16    27    18    1
    17    27    26    2
    18    25    26    1
    19     3     1    1
    20     1     4    1
    21    18    17    1
    22    10    11    1
    23    12    17    1
    24    12    11    1
    25    17    15    1
    26    13    11    1
    27    13    15    1
    28    13    14    1
    29    15    16    1
