@<TRIPOS>MOLECULE
2dya_ADP_A_1.pdb
 27 29 0 0 0
SMALL
GASTEIGER

@<TRIPOS>ATOM
      1  PB        23.9400   35.0010   -8.4550 P.3   501  ADP501      0.5373
      2  O1B       24.8570   36.0100   -9.0290 O.2   501  ADP501     -0.2221
      3  O2B       24.5970   33.5320   -8.4210 O.3   501  ADP501     -0.1143
      4  O3B       23.5150   35.3190   -6.9350 O.3   501  ADP501     -0.1143
      5  PA        21.8710   36.0920  -10.0510 P.3   501  ADP501      0.2231
      6  O1A       22.7160   37.2930   -9.8620 O.3   501  ADP501     -0.4370
      7  O2A       21.5610   35.6650  -11.4340 O.2   501  ADP501     -0.5169
      8  O3A       22.5630   34.8560   -9.2820 O.3   501  ADP501     -0.2261
      9  O5'       20.4880   36.2840   -9.2470 O.3   501  ADP501     -0.3111
     10  C5'       20.4860   36.7600   -7.8980 C.3   501  ADP501      0.1813
     11  C4'       19.6410   35.8350   -7.0200 C.3   501  ADP501      0.1821
     12  O4'       18.3030   35.6970   -7.5270 O.3   501  ADP501     -0.3135
     13  C3'       20.2080   34.4170   -7.0490 C.3   501  ADP501      0.2184
     14  O3'       21.2890   34.3440   -6.1150 O.3   501  ADP501     -0.2174
     15  C2'       18.9980   33.6790   -6.4810 C.3   501  ADP501      0.2570
     16  O2'       18.8830   33.9510   -5.0820 O.3   501  ADP501     -0.2130
     17  C1'       17.8500   34.3630   -7.2280 C.3   501  ADP501      0.3186
     18  N9        17.5370   33.7190   -8.5250 N.pl3 501  ADP501     -0.1439
     19  C8        18.3430   33.6190   -9.5800 C.3   501  ADP501      0.3377
     20  N7        17.6840   33.0640  -10.5960 N.2   501  ADP501     -0.2095
     21  C5        16.4470   32.8030  -10.1850 C.2   501  ADP501      0.2526
     22  C6        15.3210   32.2510  -10.7830 C.2   501  ADP501      0.4393
     23  N6        15.3480   31.8670  -12.0560 N.pl3 501  ADP501      0.2180
     24  N1        14.1960   32.1310  -10.0620 N.2   501  ADP501      0.0021
     25  C2        14.1460   32.5280   -8.8030 C.3   501  ADP501      0.5254
     26  N3        15.1960   33.0600   -8.2030 N.2   501  ADP501     -0.0055
     27  C4        16.3540   33.2120   -8.8620 C.2   501  ADP501      0.3518
@<TRIPOS>BOND
     1    23    22    1
     2     7     5    2
     3    22    21    1
     4    22    24    2
     5    20    21    2
     6    20    19    1
     7    21    27    1
     8    24    25    1
     9     5     6    1
    10     5     8    1
    11     5     9    1
    12    19    18    1
    13     8     1    1
    14     9    10    1
    15     2     1    2
    16    27    18    1
    17    27    26    2
    18    25    26    1
    19    18    17    1
    20     1     3    1
    21     1     4    1
    22    10    11    1
    23    12    17    1
    24    12    11    1
    25    17    15    1
    26    13    11    1
    27    13    15    1
    28    13    14    1
    29    15    16    1
