@<TRIPOS>MOLECULE
2dyh_III_B_1.pdb
 46 45 0 0 0
SMALL
GASTEIGER

@<TRIPOS>ATOM
      1  N         -0.1990  -43.5180    9.4220 N.3    24  TRP24      -0.1231
      2  CA         0.0140  -44.0800   10.7960 C.3    24  TRP24       0.1694
      3  C         -0.7350  -45.4030   10.9480 C.2    24  TRP24       0.2592
      4  O         -0.8180  -46.1960    9.9900 O.2    24  TRP24      -0.2718
      5  CB        -0.4320  -43.0650   11.8740 C.3    24  TRP24       0.0304
      6  N         -1.3100  -45.6450   12.1220 N.am   25  ARG25      -0.1966
      7  CA        -2.0290  -46.9050   12.3060 C.3    25  ARG25       0.1729
      8  C         -3.3200  -47.0770   11.4760 C.2    25  ARG25       0.2616
      9  O         -3.7800  -48.2080   11.3140 O.2    25  ARG25      -0.2715
     10  CB        -2.2460  -47.2560   13.7800 C.3    25  ARG25       0.0348
     11  CG        -3.0070  -46.2400   14.5720 C.3    25  ARG25       0.0492
     12  CD        -2.9030  -46.5660   16.0630 C.3    25  ARG25       0.2205
     13  NE        -1.5080  -46.7240   16.5080 N.pl3  25  ARG25      -0.0865
     14  CZ        -0.7620  -45.7500   17.0340 C.cat  25  ARG25       0.5346
     15  NH1       -1.2690  -44.5270   17.1820 N.pl3  25  ARG25       0.1354
     16  NH2        0.4950  -45.9900   17.4120 N.pl3  25  ARG25       0.1354
     17  N         -3.9070  -46.0140   10.9170 N.am   26  GLN26      -0.1963
     18  CA        -5.0130  -46.3300    9.9750 C.3    26  GLN26       0.1733
     19  C         -4.5670  -46.8020    8.6370 C.2    26  GLN26       0.2616
     20  O         -5.3480  -47.4390    7.9570 O.2    26  GLN26      -0.2715
     21  CB        -6.0280  -45.2600    9.7340 C.3    26  GLN26       0.0408
     22  CG        -5.4880  -43.9820    9.4220 C.3    26  GLN26       0.0908
     23  CD        -6.0760  -43.0640   10.4010 C.2    26  GLN26       0.2608
     24  OE1       -6.3110  -41.8980   10.1260 O.2    26  GLN26      -0.2717
     25  NE2       -6.3610  -43.6050   11.5850 N.am   26  GLN26      -0.0878
     26  N         -3.3560  -46.4200    8.2510 N.am   27  ASP27      -0.1957
     27  CA        -2.7650  -46.9810    7.0690 C.3    27  ASP27       0.1840
     28  C         -2.2280  -48.3790    7.3240 C.2    27  ASP27       0.2622
     29  O         -1.9600  -49.1000    6.3550 O.2    27  ASP27      -0.2715
     30  CB        -1.6250  -46.0950    6.5700 C.3    27  ASP27       0.1450
     31  CG        -2.0960  -45.0320    5.6140 C.2    27  ASP27       0.3671
     32  OD1       -1.7290  -45.1610    4.4250 O.co2  27  ASP27      -0.2456
     33  OD2       -2.8030  -44.0660    6.0510 O.co2  27  ASP27      -0.2456
     34  N         -2.0580  -48.7530    8.6020 N.am   28  ILE28      -0.1963
     35  CA        -1.3510  -49.9890    8.9790 C.3    28  ILE28       0.1728
     36  C          0.1550  -49.8420    8.8380 C.2    28  ILE28       0.2616
     37  O          0.8940  -50.8140    8.5980 O.2    28  ILE28      -0.2715
     38  CB        -1.7850  -51.0930    8.1240 C.3    28  ILE28       0.0334
     39  N          0.6000  -48.6100    8.9470 N.am   29  ASP29      -0.1971
     40  CA         1.9940  -48.3130    8.8830 C.3    29  ASP29       0.1709
     41  C          2.5900  -48.6450   10.2490 C.2    29  ASP29       0.2293
     42  O          3.4600  -49.5130   10.3480 O.2    29  ASP29      -0.2864
     43  CB         2.1510  -46.8340    8.5900 C.3    29  ASP29       0.1436
     44  CG         3.3320  -46.5540    7.7510 C.2    29  ASP29       0.3671
     45  OD1        4.4650  -46.7120    8.2660 O.co2  29  ASP29      -0.2456
     46  OD2        3.1150  -46.1780    6.5760 O.co2  29  ASP29      -0.2456
@<TRIPOS>BOND
     1    32    31   ar
     2    31    33   ar
     3    31    30    1
     4    29    28    2
     5    30    27    1
     6    46    44   ar
     7    27    28    1
     8    27    26    1
     9    28    34   am
    10    44    45   ar
    11    44    43    1
    12    20    19    2
    13    38    35    1
    14    26    19   am
    15    43    40    1
    16    37    36    2
    17    34    35    1
    18    19    18    1
    19    36    39   am
    20    36    35    1
    21    40    39    1
    22    40    41    1
    23    22    21    1
    24    22    23    1
    25     1     2    1
    26    21    18    1
    27    18    17    1
    28     4     3    2
    29    24    23    2
    30    41    42    2
    31    23    25   am
    32     2     3    1
    33     2     5    1
    34    17     8   am
    35     3     6   am
    36     9     8    2
    37     8     7    1
    38     6     7    1
    39     7    10    1
    40    10    11    1
    41    11    12    1
    42    12    13    1
    43    13    14    2
    44    14    15    1
    45    14    16    1
