@<TRIPOS>MOLECULE
2dyk_GDP_A_1.pdb
 28 30 0 0 0
SMALL
GASTEIGER

@<TRIPOS>ATOM
      1  PB        32.6230   35.9640   19.5420 P.3   501  GDP501      0.5373
      2  O1B       32.5500   35.5850   18.1150 O.2   501  GDP501     -0.2221
      3  O2B       31.6540   35.2630   20.6190 O.3   501  GDP501     -0.1143
      4  O3B       34.0060   36.4060   20.2320 O.3   501  GDP501     -0.1143
      5  O3A       31.8550   37.3830   19.5690 O.3   501  GDP501     -0.2261
      6  PA        32.4990   38.8650   19.5460 P.3   501  GDP501      0.2231
      7  O1A       33.1620   39.2410   20.8140 O.3   501  GDP501     -0.4370
      8  O2A       33.5020   38.9690   18.2940 O.2   501  GDP501     -0.5169
      9  O5'       31.2750   39.8550   19.2140 O.3   501  GDP501     -0.3111
     10  C5'       30.5300   39.6730   18.0080 C.3   501  GDP501      0.1813
     11  C4'       29.8630   40.9820   17.5830 C.3   501  GDP501      0.1799
     12  O4'       29.0720   41.4580   18.6880 O.3   501  GDP501     -0.3326
     13  C3'       30.9570   42.0260   17.3480 C.3   501  GDP501      0.2158
     14  O3'       30.4870   43.0240   16.4380 O.3   501  GDP501     -0.2175
     15  C2'       31.1210   42.5910   18.7590 C.3   501  GDP501      0.2310
     16  O2'       31.6640   43.9110   18.6960 O.3   501  GDP501     -0.2158
     17  C1'       29.6510   42.6880   19.1590 C.3   501  GDP501      0.2293
     18  N9        29.5000   42.8160   20.6280 N.pl3 501  GDP501     -0.2354
     19  C8        30.2090   42.1690   21.5510 C.3   501  GDP501      0.2246
     20  N7        29.7540   42.4890   22.7620 N.2   501  GDP501     -0.2322
     21  C5        28.7520   43.3520   22.6140 C.2   501  GDP501      0.2182
     22  C6        27.9150   44.0110   23.5070 C.1   501  GDP501      0.2372
     23  O6        28.0340   43.8670   24.7240 O.2   501  GDP501     -0.2069
     24  N1        26.9250   44.8600   23.0000 N.2   501  GDP501     -0.2485
     25  C2        26.8010   45.0240   21.6160 C.1   501  GDP501      0.2531
     26  N2        25.8240   45.7830   21.1250 N.pl3 501  GDP501     -0.0226
     27  N3        27.6330   44.3790   20.7870 N.2   501  GDP501     -0.3074
     28  C4        28.5890   43.5600   21.2490 C.2   501  GDP501      0.2300
@<TRIPOS>BOND
     1    14    13    1
     2    13    11    1
     3    13    15    1
     4    11    10    1
     5    11    12    1
     6    10     9    1
     7     2     1    2
     8     8     6    2
     9    12    17    1
    10    16    15    1
    11    15    17    1
    12    17    18    1
    13     9     6    1
    14     1     5    1
    15     1     4    1
    16     1     3    1
    17     6     5    1
    18     6     7    1
    19    18    28    1
    20    18    19    1
    21    27    28    2
    22    27    25    2
    23    26    25    1
    24    28    21    1
    25    19    20    1
    26    25    24    2
    27    21    20    2
    28    21    22    1
    29    24    22    2
    30    22    23    2
