@<TRIPOS>MOLECULE
2dyr_DMU_C_1.pdb
 33 34 0 0 0
SMALL
GASTEIGER

@<TRIPOS>ATOM
      1  C1        73.6810  342.1600  190.7490 C.2   272  DMU272      0.3077
      2  C2        73.6360  343.3210  189.7150 C.2   272  DMU272      0.2738
      3  C3        72.6140  343.7190  188.6470 C.2   272  DMU272      0.2035
      4  C4        71.5250  342.5980  188.8200 C.3   272  DMU272      0.2609
      5  O5        71.5210  341.6220  189.6920 O.2   272  DMU272     -0.4389
      6  C6        72.3990  341.2760  190.5740 C.2   272  DMU272      0.3364
      7  O7        72.4890  344.9200  188.2780 O.2   272  DMU272     -0.4478
      8  O16       72.1060  340.3380  191.3910 O.2   272  DMU272     -0.4458
      9  C18       72.6090  339.1990  191.3460 C.3   272  DMU272      0.2087
     10  C19       72.2870  338.5090  192.6610 C.3   272  DMU272      0.0475
     11  C22       72.7180  337.0510  192.6650 C.3   272  DMU272      0.0038
     12  C25       71.9970  336.3020  193.7710 C.3   272  DMU272      0.0001
     13  C28       72.5300  334.8970  193.9610 C.3   272  DMU272      0.0000
     14  C31       71.4140  333.9660  194.4260 C.3   272  DMU272      0.0000
     15  C34       71.8130  333.1380  195.6510 C.3   272  DMU272      0.0000
     16  C37       72.9910  332.1920  195.3570 C.3   272  DMU272      0.0000
     17  C40       73.3660  331.3530  196.5840 C.3   272  DMU272      0.0000
     18  C43       72.8450  329.9360  196.4540 C.3   272  DMU272      0.0000
     19  O49       73.8270  342.6380  192.0930 O.2   272  DMU272     -0.2762
     20  O55       74.7230  344.2530  189.8370 O.2   272  DMU272     -0.2799
     21  C57       70.4750  342.6330  187.6880 C.3   272  DMU272      0.2334
     22  O61       69.3860  343.5100  187.9580 O.3   272  DMU272     -0.2159
     23  C5        73.5940  346.2730  186.5370 C.3   272  DMU272      0.2541
     24  C7        73.0230  347.4360  185.6630 C.3   272  DMU272      0.2211
     25  C8        71.5550  347.2700  185.1640 C.3   272  DMU272      0.2145
     26  C9        70.8430  346.0110  185.7500 C.3   272  DMU272      0.1846
     27  O1        71.5230  345.0700  186.2720 O.3   272  DMU272     -0.3157
     28  C10       72.4990  345.3020  187.0690 C.3   272  DMU272      0.3217
     29  O2        70.7830  348.4640  185.3400 O.3   272  DMU272     -0.2176
     30  O3        74.6530  345.5680  185.8800 O.3   272  DMU272     -0.2135
     31  O4        73.9140  347.8240  184.6120 O.3   272  DMU272     -0.2173
     32  C11       69.3050  346.1260  185.7170 C.3   272  DMU272      0.2142
     33  O6        68.7960  346.0800  184.3940 O.3   272  DMU272     -0.2176
@<TRIPOS>BOND
     1    33    32    1
     2    31    24    1
     3    25    29    1
     4    25    24    1
     5    25    26    1
     6    24    23    1
     7    32    26    1
     8    26    27    1
     9    30    23    1
    10    27    28    1
    11    23    28    1
    12    28     7    1
    13    21    22    1
    14    21     4    1
    15     7     3    1
    16     3     4    1
    17     3     2    2
    18     4     5    1
    19     5     6    1
    20     2    20    1
    21     2     1    1
    22     6     1    2
    23     6     8    1
    24     1    19    1
    25     9     8    1
    26     9    10    1
    27    10    11    1
    28    11    12    1
    29    12    13    1
    30    13    14    1
    31    14    15    1
    32    16    15    1
    33    16    17    1
    34    18    17    1
