@<TRIPOS>MOLECULE
2dys_DMU_C_1.pdb
 33 34 0 0 0
SMALL
GASTEIGER

@<TRIPOS>ATOM
      1  C1        74.2730  345.2720  190.8410 C.2   302  DMU302      0.3077
      2  C2        74.2450  346.4200  189.7730 C.2   302  DMU302      0.2738
      3  C3        73.1580  346.8150  188.7170 C.2   302  DMU302      0.2035
      4  C4        72.0330  345.6670  188.8880 C.3   302  DMU302      0.2609
      5  O5        72.1050  344.5910  189.6640 O.2   302  DMU302     -0.4389
      6  C6        72.9490  344.3710  190.6420 C.2   302  DMU302      0.3364
      7  O7        72.9630  348.0450  188.3140 O.2   302  DMU302     -0.4478
      8  O16       72.5880  343.3960  191.4060 O.2   302  DMU302     -0.4458
      9  C18       73.0770  342.2420  191.3620 C.3   302  DMU302      0.2087
     10  C19       72.8680  341.6520  192.7460 C.3   302  DMU302      0.0475
     11  C22       73.3460  340.2240  192.8150 C.3   302  DMU302      0.0038
     12  C25       72.5990  339.5050  193.9190 C.3   302  DMU302      0.0001
     13  C28       73.0330  338.0510  194.0060 C.3   302  DMU302      0.0000
     14  C31       71.8770  337.1460  194.4500 C.3   302  DMU302      0.0000
     15  C34       72.2090  336.3850  195.7110 C.3   302  DMU302      0.0000
     16  C37       73.6040  335.7610  195.5920 C.3   302  DMU302      0.0000
     17  C40       73.7170  334.5720  196.5120 C.3   302  DMU302      0.0000
     18  C43       72.5840  333.5680  196.2560 C.3   302  DMU302      0.0000
     19  O49       74.4060  345.7850  192.1840 O.2   302  DMU302     -0.2762
     20  O55       75.3350  347.3670  189.8850 O.2   302  DMU302     -0.2799
     21  C57       70.8580  345.7990  187.8660 C.3   302  DMU302      0.2334
     22  O61       69.6120  346.2270  188.4250 O.3   302  DMU302     -0.2159
     23  C5        74.1570  349.4320  186.5980 C.3   302  DMU302      0.2541
     24  C7        73.5390  350.5550  185.6570 C.3   302  DMU302      0.2211
     25  C8        72.0430  350.4440  185.1350 C.3   302  DMU302      0.2145
     26  C9        71.3160  349.1560  185.6850 C.3   302  DMU302      0.1846
     27  O1        72.0060  348.1980  186.2540 O.3   302  DMU302     -0.3157
     28  C10       73.0140  348.4380  187.0740 C.3   302  DMU302      0.3217
     29  O2        71.2730  351.6390  185.3680 O.3   302  DMU302     -0.2176
     30  O3        75.2820  348.7410  186.0090 O.3   302  DMU302     -0.2135
     31  O4        74.4560  351.0300  184.6530 O.3   302  DMU302     -0.2173
     32  C11       69.7660  349.2680  185.6030 C.3   302  DMU302      0.2142
     33  O6        69.2400  349.0710  184.2850 O.3   302  DMU302     -0.2176
@<TRIPOS>BOND
     1    33    32    1
     2    31    24    1
     3    25    29    1
     4    25    24    1
     5    25    26    1
     6    32    26    1
     7    24    23    1
     8    26    27    1
     9    30    23    1
    10    27    28    1
    11    23    28    1
    12    28     7    1
    13    21    22    1
    14    21     4    1
    15     7     3    1
    16     3     4    1
    17     3     2    2
    18     4     5    1
    19     5     6    1
    20     2    20    1
    21     2     1    1
    22     6     1    2
    23     6     8    1
    24     1    19    1
    25     9     8    1
    26     9    10    1
    27    10    11    1
    28    11    12    1
    29    12    13    1
    30    13    14    1
    31    14    15    1
    32    16    15    1
    33    16    17    1
    34    18    17    1
