@<TRIPOS>MOLECULE
2dys_DCW_C_1.pdb
 16 17 0 0 0
SMALL
GASTEIGER

@<TRIPOS>ATOM
      1  N1        78.2760  327.4070  200.4850 N.am  301  DCW301     -0.1890
      2  O1        76.2130  327.2710  201.4810 O.2   301  DCW301     -0.2492
      3  C1        76.9850  326.8930  200.5760 C.2   301  DCW301      0.3391
      4  C2        78.4360  328.7990  200.2480 C.3   301  DCW301      0.0969
      5  N2        76.6170  326.0550  199.6370 N.am  301  DCW301     -0.1890
      6  C3        77.6770  329.2810  199.0510 C.3   301  DCW301      0.0217
      7  C7        77.9840  329.5480  201.5010 C.3   301  DCW301      0.0217
      8  C4        77.8290  330.7360  198.8070 C.3   301  DCW301      0.0018
      9  C5        77.4590  331.5310  200.0170 C.3   301  DCW301      0.0001
     10  C6        78.1260  331.0210  201.2960 C.3   301  DCW301      0.0018
     11  C8        75.3590  325.4440  199.4560 C.3   301  DCW301      0.0969
     12  C9        74.7470  325.8020  198.1610 C.3   301  DCW301      0.0217
     13  C13       75.4810  323.9430  199.5480 C.3   301  DCW301      0.0217
     14  C10       73.4270  325.1710  197.9510 C.3   301  DCW301      0.0018
     15  C11       73.4640  323.6840  198.1050 C.3   301  DCW301      0.0001
     16  C12       74.1590  323.2670  199.3660 C.3   301  DCW301      0.0018
@<TRIPOS>BOND
     1    14    15    1
     2    14    12    1
     3    15    16    1
     4    12    11    1
     5     8     6    1
     6     8     9    1
     7     6     4    1
     8    16    13    1
     9    11    13    1
    10    11     5    1
    11     5     3   am
    12     9    10    1
    13     4     1    1
    14     4     7    1
    15     1     3   am
    16     3     2    2
    17    10     7    1
