@<TRIPOS>MOLECULE
2dyx_LAK_A_1.pdb
 23 24 0 0 0
SMALL
GASTEIGER

@<TRIPOS>ATOM
      1  C1        10.0050   17.7880   17.9120 C.3   1001  LAK1001     0.2695
      2  C2         9.5560   18.9890   18.7460 C.3   1001  LAK1001     0.2406
      3  C3         8.4360   18.4620   19.6340 C.3   1001  LAK1001     0.2198
      4  C4         7.2860   17.9670   18.7530 C.3   1001  LAK1001     0.2144
      5  C5         7.7940   17.1120   17.5750 C.3   1001  LAK1001     0.1835
      6  C6         6.7050   16.8210   16.5470 C.3   1001  LAK1001     0.2142
      7  O1        11.3510   17.8650   17.3970 O.3   1001  LAK1001    -0.3259
      8  O2        10.5990   19.5910   19.5220 O.3   1001  LAK1001    -0.2149
      9  O3         7.9810   19.4530   20.5620 O.3   1001  LAK1001    -0.2174
     10  O4         6.5060   19.0690   18.2760 O.3   1001  LAK1001    -0.2176
     11  O5         8.9760   17.6260   16.9290 O.3   1001  LAK1001    -0.3256
     12  O6         6.4920   15.4010   16.5630 O.3   1001  LAK1001    -0.2176
     13  C1'       10.4510   14.0810   14.8580 C.3   1001  LAK1001     0.3024
     14  C2'       11.6830   13.9160   13.9740 C.3   1001  LAK1001     0.2434
     15  C3'       12.8750   13.9100   14.9160 C.3   1001  LAK1001     0.2199
     16  C4'       12.9700   15.2960   15.5530 C.3   1001  LAK1001     0.2143
     17  C5'       11.6230   15.8310   16.1050 C.3   1001  LAK1001     0.1803
     18  C6'       11.5650   17.3630   16.0720 C.3   1001  LAK1001     0.1770
     19  O1'       10.4850   13.1840   15.9760 O.3   1001  LAK1001    -0.1869
     20  O2'       11.6260   12.7270   13.1810 O.3   1001  LAK1001    -0.2148
     21  O3'       14.0860   13.5270   14.2360 O.3   1001  LAK1001    -0.2174
     22  O4'       13.9460   15.1980   16.5950 O.3   1001  LAK1001    -0.2176
     23  O5'       10.4580   15.4130   15.3650 O.3   1001  LAK1001    -0.3237
@<TRIPOS>BOND
     1    20    14    1
     2    14    13    1
     3    14    15    1
     4    21    15    1
     5    13    23    1
     6    13    19    1
     7    15    16    1
     8    23    17    1
     9    16    17    1
    10    16    22    1
    11    18    17    1
    12    18     7    1
    13     6    12    1
    14     6     5    1
    15    11     5    1
    16    11     1    1
    17     7     1    1
    18     5     4    1
    19     1     2    1
    20    10     4    1
    21     2     8    1
    22     2     3    1
    23     4     3    1
    24     3     9    1
