@<TRIPOS>MOLECULE
2dz9_BT5_B_1.pdb
 38 42 0 0 0
SMALL
GASTEIGER

@<TRIPOS>ATOM
      1  CBB      -19.5490  -11.1470   -6.7430 C.2   1001  BT51001     0.3210
      2  OBB      -20.2300  -12.0100   -6.0820 O.3   1001  BT51001    -0.4101
      3  OCB      -18.2890  -11.1160   -6.6760 O.2   1001  BT51001    -0.2498
      4  CAB      -20.3510  -10.1720   -7.6070 C.3   1001  BT51001     0.1098
      5  C9B      -20.4900   -8.9220   -7.3410 C.3   1001  BT51001     0.0117
      6  C8B      -21.1460   -8.1170   -8.4250 C.3   1001  BT51001     0.0015
      7  C7B      -21.2660   -6.6650   -8.0020 C.3   1001  BT51001     0.0129
      8  C2B      -21.9250   -5.7140   -8.9930 C.3   1001  BT51001     0.0729
      9  S1B      -22.0110   -4.0330   -8.3900 S.3   1001  BT51001    -0.1369
     10  C6B      -22.8720   -3.6090   -9.9240 C.3   1001  BT51001     0.0848
     11  C5B      -23.9490   -4.7160   -9.9920 C.3   1001  BT51001     0.1509
     12  N1B      -25.1390   -4.4180   -9.1640 N.2   1001  BT51001    -0.1859
     13  C3B      -25.3040   -5.3920   -8.2370 C.1   1001  BT51001     0.2386
     14  O3B      -26.2270   -5.4240   -7.3730 O.2   1001  BT51001    -0.2023
     15  N2B      -24.3290   -6.3530   -8.3520 N.2   1001  BT51001    -0.1860
     16  C4B      -23.4060   -6.0440   -9.4290 C.3   1001  BT51001     0.1500
     17  P        -19.6590  -13.2380   -5.0370 P.3   1001  BT51001     0.2722
     18  OP1      -18.5360  -14.0530   -5.6570 O.2   1001  BT51001    -0.5082
     19  OP2      -20.7740  -14.0430   -4.8290 O.3   1001  BT51001    -0.4273
     20  O5'      -19.0750  -12.5990   -3.8980 O.3   1001  BT51001    -0.3024
     21  C5'      -19.7140  -11.7210   -2.9480 C.3   1001  BT51001     0.1823
     22  C4'      -18.8120  -11.7120   -1.8380 C.3   1001  BT51001     0.1822
     23  O4'      -17.7960  -10.7270   -1.8760 O.3   1001  BT51001    -0.3135
     24  C3'      -19.5840  -11.4690   -0.5830 C.3   1001  BT51001     0.2184
     25  O3'      -20.1690  -12.6700   -0.0470 O.3   1001  BT51001    -0.2174
     26  C2'      -18.5650  -10.8050    0.3430 C.3   1001  BT51001     0.2570
     27  O2'      -17.9110  -11.7080    1.2130 O.3   1001  BT51001    -0.2130
     28  C1'      -17.5890  -10.1180   -0.5880 C.3   1001  BT51001     0.3186
     29  N9       -17.8010   -8.6060   -0.8160 N.pl3 1001  BT51001    -0.1439
     30  C8       -18.9260   -7.8280   -0.5440 C.3   1001  BT51001     0.3377
     31  N7       -18.7030   -6.5320   -0.9070 N.2   1001  BT51001    -0.2095
     32  C5       -17.4400   -6.4790   -1.4070 C.2   1001  BT51001     0.2526
     33  C6       -16.7040   -5.4020   -1.9330 C.2   1001  BT51001     0.4393
     34  N6       -17.2300   -4.1830   -1.9930 N.pl3 1001  BT51001     0.2180
     35  N1       -15.3810   -5.6710   -2.3890 N.2   1001  BT51001     0.0021
     36  C2       -14.8020   -6.9540   -2.3400 C.3   1001  BT51001     0.5254
     37  N3       -15.5520   -8.0260   -1.8140 N.2   1001  BT51001    -0.0055
     38  C4       -16.8580   -7.7770   -1.3600 C.2   1001  BT51001     0.3518
@<TRIPOS>BOND
     1    11    10    1
     2    11    16    1
     3    11    12    1
     4    10     9    1
     5    16     8    1
     6    16    15    1
     7    12    13    2
     8     8     9    1
     9     8     7    1
    10     6     7    1
    11     6     5    1
    12    15    13    2
    13    13    14    2
    14     4     5    1
    15     4     1    1
    16     1     3    2
    17     1     2    1
    18     2    17    1
    19    18    17    2
    20    17    19    1
    21    17    20    1
    22    20    21    1
    23    21    22    1
    24    35    36    1
    25    35    33    2
    26    36    37    1
    27    34    33    1
    28    33    32    1
    29    23    22    1
    30    23    28    1
    31    22    24    1
    32    37    38    2
    33    32    38    1
    34    32    31    2
    35    38    29    1
    36    31    30    1
    37    29    28    1
    38    29    30    1
    39    28    26    1
    40    24    25    1
    41    24    26    1
    42    26    27    1
