@<TRIPOS>MOLECULE
2dza_PAB_B_1.pdb
 10 10 0 0 0
SMALL
GASTEIGER

@<TRIPOS>ATOM
      1  C1'       -3.8290   43.2720   -0.4210 C.2   1301  PAB1301     0.3878
      2  O1'       -3.9630   42.5270    0.5480 O.co2 1301  PAB1301    -0.2406
      3  O2'       -4.4470   44.3290   -0.3170 O.co2 1301  PAB1301    -0.2406
      4  C1        -3.0170   42.9660   -1.5810 C.ar  1301  PAB1301     0.0799
      5  C2        -2.3030   41.7380   -1.7190 C.ar  1301  PAB1301     0.0080
      6  C3        -1.5220   41.4520   -2.8510 C.ar  1301  PAB1301     0.0183
      7  C4        -1.4440   42.3980   -3.9030 C.ar  1301  PAB1301     0.0891
      8  C5        -2.1400   43.6200   -3.7990 C.ar  1301  PAB1301     0.0183
      9  C6        -2.9230   43.8950   -2.6580 C.ar  1301  PAB1301     0.0080
     10  N4        -0.7260   42.1950   -5.0040 N.pl3 1301  PAB1301    -0.1281
@<TRIPOS>BOND
     1    10     7    1
     2     7     8   ar
     3     7     6   ar
     4     8     9   ar
     5     6     5   ar
     6     9     4   ar
     7     5     4   ar
     8     4     1    1
     9     1     3   ar
    10     1     2   ar
