@<TRIPOS>MOLECULE
2dzb_HH2_A_1.pdb
 22 23 0 0 0
SMALL
GASTEIGER

@<TRIPOS>ATOM
      1  N1       -32.9670   20.6910   10.0720 N.2   1301  HH21301    -0.3831
      2  C2       -32.5980   19.5880   10.6650 C.2   1301  HH21301     0.1441
      3  C3       -32.8570   19.2350   12.1880 C.3   1301  HH21301     0.1939
      4  N4       -33.6090   20.3620   12.8760 N.2   1301  HH21301    -0.1992
      5  N5       -34.7240   22.5790   12.8790 N.2   1301  HH21301    -0.2672
      6  C6       -35.0990   23.7130   12.1980 C.1   1301  HH21301     0.2609
      7  N6       -35.7930   24.7140   12.8230 N.pl3 1301  HH21301    -0.0220
      8  N7       -34.7700   23.8790   10.8020 N.2   1301  HH21301    -0.2466
      9  C8       -34.0400   22.8670   10.0500 C.1   1301  HH21301     0.2569
     10  O8       -33.7530   22.9640    8.9020 O.2   1301  HH21301    -0.2052
     11  C9       -33.6580   21.6800   10.7780 C.2   1301  HH21301     0.2989
     12  C10      -34.0120   21.5530   12.2070 C.1   1301  HH21301     0.1401
     13  C11      -31.9120   18.6370    9.7790 C.3   1301  HH21301     0.2051
     14  O4       -30.4860   18.6350   10.1710 O.3   1301  HH21301    -0.3064
     15  P1       -29.7270   17.3690   10.0820 P.3   1301  HH21301     0.2234
     16  O1P      -29.3910   16.7520    8.7210 O.2   1301  HH21301    -0.5169
     17  O2P      -30.4190   16.2520   10.8770 O.3   1301  HH21301    -0.4370
     18  O3P      -28.3750   17.6210   10.8710 O.3   1301  HH21301    -0.2261
     19  P2       -28.2630   18.2790   12.3320 P.3   1301  HH21301     0.5373
     20  O4P      -28.1380   19.7580   12.1130 O.2   1301  HH21301    -0.2221
     21  O5P      -29.4860   18.0440   13.1480 O.3   1301  HH21301    -0.1143
     22  O6P      -27.0590   17.6850   13.0780 O.3   1301  HH21301    -0.1143
@<TRIPOS>BOND
     1    16    15    2
     2    10     9    2
     3    13    14    1
     4    13     2    1
     5     9    11    1
     6     9     8    2
     7     1     2    2
     8     1    11    2
     9    15    14    1
    10    15    18    1
    11    15    17    1
    12     2     3    1
    13    11    12    1
    14     8     6    2
    15    18    19    1
    16    20    19    2
    17     3     4    1
    18     6     7    1
    19     6     5    2
    20    12     4    2
    21    12     5    2
    22    19    22    1
    23    19    21    1
