@<TRIPOS>MOLECULE
2e07_SAH_A_1.pdb
 26 28 0 0 0
SMALL
GASTEIGER

@<TRIPOS>ATOM
      1  N         33.5690   92.7390   65.7780 N.3   1300  SAH1300    -0.1208
      2  CA        32.1330   92.2520   65.5910 C.3   1300  SAH1300     0.1952
      3  CB        31.5000   91.5190   66.7380 C.3   1300  SAH1300     0.0422
      4  CG        32.1730   90.2640   67.2720 C.3   1300  SAH1300     0.0597
      5  SD        31.0410   89.5360   68.5280 S.3   1300  SAH1300    -0.1375
      6  C         31.2710   93.5250   65.2030 C.2   1300  SAH1300     0.3819
      7  O         31.8390   94.6340   65.1310 O.co2 1300  SAH1300    -0.2441
      8  OXT       30.0150   93.3220   64.9780 O.co2 1300  SAH1300    -0.2441
      9  C5'       30.1250   88.4450   67.5110 C.3   1300  SAH1300     0.0899
     10  C4'       28.6310   88.3680   68.0240 C.3   1300  SAH1300     0.1630
     11  O4'       28.0160   89.6580   67.7850 O.3   1300  SAH1300    -0.3153
     12  C3'       27.7810   87.3590   67.3360 C.3   1300  SAH1300     0.2168
     13  O3'       27.9170   86.0880   67.9580 O.3   1300  SAH1300    -0.2175
     14  C2'       26.3770   88.0050   67.4540 C.3   1300  SAH1300     0.2569
     15  O2'       25.7660   87.7230   68.7180 O.3   1300  SAH1300    -0.2130
     16  C1'       26.6410   89.5040   67.2080 C.3   1300  SAH1300     0.3185
     17  N9        26.6170   89.8760   65.9010 N.pl3 1300  SAH1300    -0.1439
     18  C8        27.5820   90.1620   64.9500 C.3   1300  SAH1300     0.3377
     19  N7        27.1220   90.4960   63.7750 N.2   1300  SAH1300    -0.2095
     20  C5        25.7060   90.4400   63.9210 C.2   1300  SAH1300     0.2526
     21  C6        24.6320   90.7020   62.9880 C.2   1300  SAH1300     0.4393
     22  N6        24.8170   91.0720   61.7120 N.pl3 1300  SAH1300     0.2180
     23  N1        23.3610   90.5410   63.5060 N.2   1300  SAH1300     0.0021
     24  C2        23.1210   90.1660   64.7900 C.3   1300  SAH1300     0.5254
     25  N3        24.1180   89.9090   65.7050 N.2   1300  SAH1300    -0.0055
     26  C4        25.3790   90.0660   65.2040 C.2   1300  SAH1300     0.3518
@<TRIPOS>BOND
     1    22    21    1
     2    21    23    2
     3    21    20    1
     4    23    24    1
     5    19    20    2
     6    19    18    1
     7    20    26    1
     8    24    25    1
     9    18    17    1
    10     8     6   ar
    11     7     6   ar
    12     6     2    1
    13    26    25    2
    14    26    17    1
    15     2     1    1
    16     2     3    1
    17    17    16    1
    18     3     4    1
    19    16    14    1
    20    16    11    1
    21     4     5    1
    22    12    14    1
    23    12    13    1
    24    12    10    1
    25    14    15    1
    26     9    10    1
    27     9     5    1
    28    11    10    1
