@<TRIPOS>MOLECULE
2e08_SAH_A_1.pdb
 26 28 0 0 0
SMALL
GASTEIGER

@<TRIPOS>ATOM
      1  N         33.6010   92.6680   65.9910 N.3   1300  SAH1300    -0.1208
      2  CA        32.1460   92.2150   65.8790 C.3   1300  SAH1300     0.1952
      3  CB        31.5470   91.5210   67.0700 C.3   1300  SAH1300     0.0422
      4  CG        32.2090   90.2640   67.6070 C.3   1300  SAH1300     0.0597
      5  SD        31.0600   89.5400   68.8510 S.3   1300  SAH1300    -0.1375
      6  C         31.2910   93.5030   65.5050 C.2   1300  SAH1300     0.3819
      7  O         31.8750   94.5960   65.3880 O.co2 1300  SAH1300    -0.2441
      8  OXT       30.0190   93.3240   65.3410 O.co2 1300  SAH1300    -0.2441
      9  C5'       30.1380   88.4580   67.8330 C.3   1300  SAH1300     0.0899
     10  C4'       28.6600   88.3220   68.3870 C.3   1300  SAH1300     0.1630
     11  O4'       28.0010   89.5950   68.1900 O.3   1300  SAH1300    -0.3153
     12  C3'       27.8210   87.2970   67.7070 C.3   1300  SAH1300     0.2168
     13  O3'       27.9760   86.0250   68.3240 O.3   1300  SAH1300    -0.2175
     14  C2'       26.4030   87.9160   67.8220 C.3   1300  SAH1300     0.2569
     15  O2'       25.7830   87.6170   69.0750 O.3   1300  SAH1300    -0.2130
     16  C1'       26.6380   89.4160   67.5890 C.3   1300  SAH1300     0.3185
     17  N9        26.6180   89.7960   66.2870 N.pl3 1300  SAH1300    -0.1439
     18  C8        27.5850   90.0940   65.3370 C.3   1300  SAH1300     0.3377
     19  N7        27.1280   90.4340   64.1670 N.2   1300  SAH1300    -0.2095
     20  C5        25.7080   90.3700   64.3130 C.2   1300  SAH1300     0.2526
     21  C6        24.6350   90.6330   63.3820 C.2   1300  SAH1300     0.4393
     22  N6        24.8200   91.0140   62.1110 N.pl3 1300  SAH1300     0.2180
     23  N1        23.3680   90.4620   63.8960 N.2   1300  SAH1300     0.0021
     24  C2        23.1230   90.0750   65.1800 C.3   1300  SAH1300     0.5254
     25  N3        24.1170   89.8170   66.0940 N.2   1300  SAH1300    -0.0055
     26  C4        25.3810   89.9830   65.5930 C.2   1300  SAH1300     0.3518
@<TRIPOS>BOND
     1    22    21    1
     2    21    23    2
     3    21    20    1
     4    23    24    1
     5    19    20    2
     6    19    18    1
     7    20    26    1
     8    24    25    1
     9    18    17    1
    10     8     6   ar
    11     7     6   ar
    12     6     2    1
    13    26    25    2
    14    26    17    1
    15     2     1    1
    16     2     3    1
    17    17    16    1
    18     3     4    1
    19    16    14    1
    20    16    11    1
    21     4     5    1
    22    12    14    1
    23    12    13    1
    24    12    10    1
    25    14    15    1
    26     9    10    1
    27     9     5    1
    28    11    10    1
