@<TRIPOS>MOLECULE
2e0a_ANP_A_1.pdb
 31 33 0 0 0
SMALL
GASTEIGER

@<TRIPOS>ATOM
      1  PG        52.3040    7.5190   14.0780 P.3   501  ANP501      0.4884
      2  O1G       51.3480    8.2320   14.8680 O.3   501  ANP501     -0.1240
      3  O2G       52.5630    6.0710   14.6880 O.3   501  ANP501     -0.1240
      4  O3G       53.6660    8.3120   14.0300 O.2   501  ANP501     -0.2331
      5  PB        50.2080    7.7320   12.2090 P.3   501  ANP501      0.4669
      6  O1B       49.7570    7.6830   10.8020 O.2   501  ANP501     -0.2351
      7  O2B       49.6480    9.0290   12.9510 O.3   501  ANP501     -0.1253
      8  N3B       51.7950    7.2910   12.4430 N.3   501  ANP501     -0.0163
      9  PA        48.0620    6.5270   13.6170 P.3   501  ANP501      0.2220
     10  O1A       47.6710    5.1660   14.0820 O.2   501  ANP501     -0.5170
     11  O2A       48.1170    7.5050   14.8450 O.3   501  ANP501     -0.4370
     12  O3A       49.5320    6.4020   12.9200 O.3   501  ANP501     -0.2360
     13  O5'       47.0070    7.1480   12.5540 O.3   501  ANP501     -0.3111
     14  C5'       46.9910    6.3790   11.3390 C.3   501  ANP501      0.1813
     15  C4'       46.0920    7.1560   10.3400 C.3   501  ANP501      0.1821
     16  O4'       44.7330    7.3750   10.8120 O.3   501  ANP501     -0.3135
     17  C3'       46.6480    8.5520   10.1460 C.3   501  ANP501      0.2184
     18  O3'       47.8960    8.5830    9.4060 O.3   501  ANP501     -0.2174
     19  C2'       45.4740    9.2340    9.4520 C.3   501  ANP501      0.2570
     20  O2'       45.4420    8.8860    8.0590 O.3   501  ANP501     -0.2130
     21  C1'       44.2680    8.6560   10.2440 C.3   501  ANP501      0.3186
     22  N9        43.7900    9.5370   11.3340 N.pl3 501  ANP501     -0.1439
     23  C8        44.0330    9.4010   12.6900 C.3   501  ANP501      0.3377
     24  N7        43.4450   10.3500   13.3520 N.2   501  ANP501     -0.2095
     25  C5        42.7860   11.1610   12.4750 C.2   501  ANP501      0.2526
     26  C6        41.9830   12.3360   12.5820 C.2   501  ANP501      0.4393
     27  N6        41.7220   12.9130   13.8110 N.pl3 501  ANP501      0.2180
     28  N1        41.4770   12.8800   11.4520 N.2   501  ANP501      0.0021
     29  C2        41.7120   12.3470   10.2390 C.3   501  ANP501      0.5254
     30  N3        42.4620   11.2510   10.0900 N.2   501  ANP501     -0.0055
     31  C4        43.0070   10.6390   11.1670 C.2   501  ANP501      0.3518
@<TRIPOS>BOND
     1    20    19    1
     2    18    17    1
     3    19    17    1
     4    19    21    1
     5    30    29    1
     6    30    31    2
     7    17    15    1
     8    29    28    1
     9    21    16    1
    10    21    22    1
    11    15    16    1
    12    15    14    1
    13     6     5    2
    14    31    22    1
    15    31    25    1
    16    22    23    1
    17    14    13    1
    18    28    26    2
    19     5     8    1
    20     5    12    1
    21     5     7    1
    22     8     1    1
    23    25    26    1
    24    25    24    2
    25    13     9    1
    26    26    27    1
    27    23    24    1
    28    12     9    1
    29     9    10    2
    30     9    11    1
    31     4     1    2
    32     1     3    1
    33     1     2    1
