@<TRIPOS>MOLECULE
2e0n_SAH_A_1.pdb
 26 28 0 0 0
SMALL
GASTEIGER

@<TRIPOS>ATOM
      1  N         28.1320   11.5610   37.6080 N.3   300  SAH300     -0.1208
      2  CA        26.6770   11.8390   37.4520 C.3   300  SAH300      0.1952
      3  CB        26.1270   11.9710   38.8820 C.3   300  SAH300      0.0422
      4  CG        26.1420   10.6780   39.6790 C.3   300  SAH300      0.0597
      5  SD        25.5800   10.9150   41.4110 S.3   300  SAH300     -0.1375
      6  C         26.4760   13.1480   36.7030 C.2   300  SAH300      0.3819
      7  O         27.4850   13.6980   36.1960 O.co2 300  SAH300     -0.2441
      8  OXT       25.3450   13.6610   36.5880 O.co2 300  SAH300     -0.2441
      9  C5'       23.8660   10.3930   41.0770 C.3   300  SAH300      0.0899
     10  C4'       22.7410   11.4110   40.8960 C.3   300  SAH300      0.1630
     11  O4'       22.7150   11.9200   39.6000 O.3   300  SAH300     -0.3153
     12  C3'       21.3500   10.7790   40.9630 C.3   300  SAH300      0.2168
     13  O3'       21.0080   10.6200   42.2900 O.3   300  SAH300     -0.2175
     14  C2'       20.4390   11.7600   40.2460 C.3   300  SAH300      0.2569
     15  O2'       20.2120   12.9250   41.0000 O.3   300  SAH300     -0.2130
     16  C1'       21.4170   12.2190   39.1480 C.3   300  SAH300      0.3185
     17  N9        21.3410   11.5610   37.8410 N.pl3 300  SAH300     -0.1439
     18  C8        22.3700   10.8590   37.2380 C.3   300  SAH300      0.3377
     19  N7        21.9360   10.4910   36.0390 N.2   300  SAH300     -0.2095
     20  C5        20.6530   10.9370   35.8810 C.2   300  SAH300      0.2526
     21  C6        19.6870   10.8320   34.8960 C.2   300  SAH300      0.4393
     22  N6        19.8880   10.2350   33.7230 N.pl3 300  SAH300      0.2180
     23  N1        18.4370   11.4370   35.1050 N.2   300  SAH300      0.0021
     24  C2        18.1000   12.1110   36.2470 C.3   300  SAH300      0.5254
     25  N3        19.0170   12.1480   37.2350 N.2   300  SAH300     -0.0055
     26  C4        20.2800   11.6210   37.0260 C.2   300  SAH300      0.3518
@<TRIPOS>BOND
     1    22    21    1
     2    21    23    2
     3    21    20    1
     4    23    24    1
     5    20    19    2
     6    20    26    1
     7    19    18    1
     8     7     6   ar
     9    24    25    1
    10     8     6   ar
    11     6     2    1
    12    26    25    2
    13    26    17    1
    14    18    17    1
    15     2     1    1
    16     2     3    1
    17    17    16    1
    18     3     4    1
    19    16    11    1
    20    16    14    1
    21    11    10    1
    22     4     5    1
    23    14    12    1
    24    14    15    1
    25    10    12    1
    26    10     9    1
    27    12    13    1
    28     9     5    1
