@<TRIPOS>MOLECULE
2e0p_CTT_A_1.pdb
 45 48 0 0 0
SMALL
GASTEIGER

@<TRIPOS>ATOM
      1  O1B        4.2320   40.8380    9.2310 O.3   800  CTT800     -0.1869
      2  C1B        5.3000   40.9200   10.1820 C.3   800  CTT800      0.3023
      3  C2B        6.6470   40.2780    9.8480 C.3   800  CTT800      0.2433
      4  O2B        6.5640   38.8490    9.8340 O.3   800  CTT800     -0.2148
      5  C3B        7.2700   40.8990    8.5890 C.3   800  CTT800      0.2168
      6  O3B        7.3300   40.0340    7.4540 O.3   800  CTT800     -0.2175
      7  O5B        5.6500   42.2810   10.5120 O.3   800  CTT800     -0.3237
      8  C5B        6.5840   42.9850    9.6610 C.3   800  CTT800      0.1804
      9  C6B        6.0000   44.3760    9.4070 C.3   800  CTT800      0.2141
     10  O6B        6.0820   45.1770   10.5880 O.3   800  CTT800     -0.2176
     11  C4B        6.6540   42.2770    8.3270 C.3   800  CTT800      0.1804
     12  O4B        7.3110   43.1460    7.3790 O.3   800  CTT800     -0.3257
     13  C1C        7.5370   42.8850    5.9830 C.3   800  CTT800      0.2695
     14  C2C        7.5470   44.2340    5.2550 C.3   800  CTT800      0.2404
     15  O2C        6.3400   44.9460    5.5380 O.3   800  CTT800     -0.2149
     16  C3C        7.6590   43.9690    3.7530 C.3   800  CTT800      0.2167
     17  O3C        7.6070   45.2070    3.0390 O.3   800  CTT800     -0.2175
     18  O5C        8.7520   42.1660    5.7030 O.3   800  CTT800     -0.3257
     19  C5C        8.9370   41.9530    4.2910 C.3   800  CTT800      0.1803
     20  C6C       10.2220   41.1670    4.0190 C.3   800  CTT800      0.2141
     21  O6C       10.2280   39.9770    4.8120 O.3   800  CTT800     -0.2176
     22  C4C        8.9510   43.2140    3.4370 C.3   800  CTT800      0.1804
     23  O4C        8.9820   42.8600    2.0430 O.3   800  CTT800     -0.3257
     24  C1D       10.0560   43.3470    1.2230 C.3   800  CTT800      0.2695
     25  C2D        9.8800   42.7230   -0.1620 C.3   800  CTT800      0.2404
     26  O2D        9.9460   41.3010   -0.0160 O.3   800  CTT800     -0.2149
     27  C3D       10.9990   43.1970   -1.0920 C.3   800  CTT800      0.2167
     28  O3D       10.8030   42.6230   -2.3870 O.3   800  CTT800     -0.2175
     29  O5D       10.0020   44.7770    1.0980 O.3   800  CTT800     -0.3257
     30  C5D       11.0560   45.2950    0.2690 C.3   800  CTT800      0.1803
     31  C6D       10.8740   46.8150    0.2420 C.3   800  CTT800      0.2141
     32  O6D        9.5940   47.1540   -0.2980 O.3   800  CTT800     -0.2176
     33  C4D       10.9740   44.7290   -1.1420 C.3   800  CTT800      0.1804
     34  O4D       11.9900   45.3610   -1.9390 O.3   800  CTT800     -0.3257
     35  C1E       11.8190   45.4410   -3.3630 C.3   800  CTT800      0.2695
     36  C2E       13.0100   46.2770   -3.8390 C.3   800  CTT800      0.2406
     37  O2E       13.0060   47.5470   -3.1820 O.3   800  CTT800     -0.2149
     38  C3E       12.8820   46.5200   -5.3410 C.3   800  CTT800      0.2198
     39  O3E       13.9880   47.2980   -5.8080 O.3   800  CTT800     -0.2174
     40  C4E       12.8610   45.1570   -6.0310 C.3   800  CTT800      0.2144
     41  O4E       12.7060   45.3470   -7.4400 O.3   800  CTT800     -0.2176
     42  O5E       11.8240   44.1850   -4.0640 O.3   800  CTT800     -0.3256
     43  C5E       11.6660   44.3740   -5.4830 C.3   800  CTT800      0.1835
     44  C6E       11.5260   43.0100   -6.1600 C.3   800  CTT800      0.2142
     45  O6E       12.6620   42.2090   -5.8370 O.3   800  CTT800     -0.2176
@<TRIPOS>BOND
     1    41    40    1
     2    44    45    1
     3    44    43    1
     4    40    43    1
     5    40    38    1
     6    39    38    1
     7    43    42    1
     8    38    36    1
     9    42    35    1
    10    36    35    1
    11    36    37    1
    12    35    34    1
    13    28    27    1
    14    34    33    1
    15    33    27    1
    16    33    30    1
    17    27    25    1
    18    32    31    1
    19    25    26    1
    20    25    24    1
    21    31    30    1
    22    30    29    1
    23    29    24    1
    24    24    23    1
    25    23    22    1
    26    17    16    1
    27    22    16    1
    28    22    19    1
    29    16    14    1
    30    20    19    1
    31    20    21    1
    32    19    18    1
    33    14    15    1
    34    14    13    1
    35    18    13    1
    36    13    12    1
    37    12    11    1
    38     6     5    1
    39    11     5    1
    40    11     8    1
    41     5     3    1
    42     1     2    1
    43     9     8    1
    44     9    10    1
    45     8     7    1
    46     4     3    1
    47     3     2    1
    48     2     7    1
