@<TRIPOS>MOLECULE
2e0s_RAM_A_1.pdb
 11 11 0 0 0
SMALL
GASTEIGER

@<TRIPOS>ATOM
      1  C1        16.0450   16.8350   15.0440 C.3   1001  RAM1001     0.3023
      2  C2        15.3980   18.1400   14.5870 C.3   1001  RAM1001     0.2434
      3  C3        16.3890   19.3090   14.5760 C.3   1001  RAM1001     0.2198
      4  C4        17.7500   18.9360   13.9900 C.3   1001  RAM1001     0.2118
      5  C5        18.2380   17.5650   14.4500 C.3   1001  RAM1001     0.1509
      6  C6        19.4720   17.1670   13.6450 C.3   1001  RAM1001     0.0350
      7  O1        16.3240   16.8820   16.4300 O.3   1001  RAM1001    -0.1869
      8  O2        14.8560   17.9410   13.3000 O.3   1001  RAM1001    -0.2148
      9  O3        15.8770   20.3840   13.8170 O.3   1001  RAM1001    -0.2174
     10  O4        18.7050   19.9150   14.3540 O.3   1001  RAM1001    -0.2177
     11  O5        17.2180   16.5980   14.2870 O.3   1001  RAM1001    -0.3264
@<TRIPOS>BOND
     1     8     2    1
     2     6     5    1
     3     9     3    1
     4     4    10    1
     5     4     5    1
     6     4     3    1
     7    11     5    1
     8    11     1    1
     9     3     2    1
    10     2     1    1
    11     1     7    1
