@<TRIPOS>MOLECULE
2e15_SAH_A_1.pdb
 26 28 0 0 0
SMALL
GASTEIGER

@<TRIPOS>ATOM
      1  N         33.6000   92.7670   65.8600 N.3   1300  SAH1300    -0.1208
      2  CA        32.1640   92.2920   65.6650 C.3   1300  SAH1300     0.1952
      3  CB        31.5210   91.5750   66.8140 C.3   1300  SAH1300     0.0422
      4  CG        32.1770   90.3210   67.3590 C.3   1300  SAH1300     0.0597
      5  SD        31.0200   89.6150   68.5980 S.3   1300  SAH1300    -0.1375
      6  C         31.3170   93.5690   65.2680 C.2   1300  SAH1300     0.3819
      7  O         31.8960   94.6700   65.1990 O.co2 1300  SAH1300    -0.2441
      8  OXT       30.0580   93.3770   65.0310 O.co2 1300  SAH1300    -0.2441
      9  C5'       30.0910   88.5490   67.5690 C.3   1300  SAH1300     0.0899
     10  C4'       28.6070   88.4330   68.1020 C.3   1300  SAH1300     0.1630
     11  O4'       27.9540   89.7100   67.8650 O.3   1300  SAH1300    -0.3153
     12  C3'       27.7790   87.3990   67.4230 C.3   1300  SAH1300     0.2168
     13  O3'       27.9290   86.1340   68.0660 O.3   1300  SAH1300    -0.2175
     14  C2'       26.3630   88.0230   67.5120 C.3   1300  SAH1300     0.2569
     15  O2'       25.7420   87.7480   68.7690 O.3   1300  SAH1300    -0.2130
     16  C1'       26.5990   89.5240   67.2630 C.3   1300  SAH1300     0.3185
     17  N9        26.5890   89.8990   65.9620 N.pl3 1300  SAH1300    -0.1439
     18  C8        27.5620   90.1840   65.0200 C.3   1300  SAH1300     0.3377
     19  N7        27.1150   90.5250   63.8460 N.2   1300  SAH1300    -0.2095
     20  C5        25.7000   90.4760   63.9800 C.2   1300  SAH1300     0.2526
     21  C6        24.6400   90.7460   63.0410 C.2   1300  SAH1300     0.4393
     22  N6        24.8390   91.1180   61.7700 N.pl3 1300  SAH1300     0.2180
     23  N1        23.3690   90.5910   63.5440 N.2   1300  SAH1300     0.0021
     24  C2        23.1100   90.2130   64.8250 C.3   1300  SAH1300     0.5254
     25  N3        24.0950   89.9470   65.7490 N.2   1300  SAH1300    -0.0055
     26  C4        25.3600   90.0980   65.2580 C.2   1300  SAH1300     0.3518
@<TRIPOS>BOND
     1    22    21    1
     2    21    23    2
     3    21    20    1
     4    23    24    1
     5    19    20    2
     6    19    18    1
     7    20    26    1
     8    24    25    1
     9    18    17    1
    10     8     6   ar
    11     7     6   ar
    12    26    25    2
    13    26    17    1
    14     6     2    1
    15     2     1    1
    16     2     3    1
    17    17    16    1
    18     3     4    1
    19    16    14    1
    20    16    11    1
    21     4     5    1
    22    12    14    1
    23    12    13    1
    24    12    10    1
    25    14    15    1
    26     9    10    1
    27     9     5    1
    28    11    10    1
