@<TRIPOS>MOLECULE
2e16_SAH_A_1.pdb
 26 28 0 0 0
SMALL
GASTEIGER

@<TRIPOS>ATOM
      1  N         33.5440   92.6620   65.8750 N.3   1300  SAH1300    -0.1208
      2  CA        32.1000   92.1710   65.7360 C.3   1300  SAH1300     0.1952
      3  CB        31.4910   91.4600   66.9090 C.3   1300  SAH1300     0.0422
      4  CG        32.1690   90.2220   67.4610 C.3   1300  SAH1300     0.0597
      5  SD        31.0040   89.4630   68.6610 S.3   1300  SAH1300    -0.1375
      6  C         31.2200   93.4350   65.3460 C.2   1300  SAH1300     0.3819
      7  O         31.7740   94.5410   65.2410 O.co2 1300  SAH1300    -0.2441
      8  OXT       29.9600   93.2220   65.1560 O.co2 1300  SAH1300    -0.2441
      9  C5'       30.0690   88.4480   67.5890 C.3   1300  SAH1300     0.0899
     10  C4'       28.6030   88.2890   68.1530 C.3   1300  SAH1300     0.1630
     11  O4'       27.9260   89.5530   67.9590 O.3   1300  SAH1300    -0.3153
     12  C3'       27.7820   87.2470   67.4770 C.3   1300  SAH1300     0.2168
     13  O3'       27.9370   85.9890   68.1280 O.3   1300  SAH1300    -0.2175
     14  C2'       26.3510   87.8520   67.5500 C.3   1300  SAH1300     0.2569
     15  O2'       25.6830   87.5280   68.7690 O.3   1300  SAH1300    -0.2130
     16  C1'       26.5690   89.3620   67.3480 C.3   1300  SAH1300     0.3185
     17  N9        26.5500   89.7630   66.0550 N.pl3 1300  SAH1300    -0.1439
     18  C8        27.5160   90.0980   65.1200 C.3   1300  SAH1300     0.3377
     19  N7        27.0620   90.4460   63.9560 N.2   1300  SAH1300    -0.2095
     20  C5        25.6460   90.3500   64.0840 C.2   1300  SAH1300     0.2526
     21  C6        24.5760   90.6060   63.1460 C.2   1300  SAH1300     0.4393
     22  N6        24.7640   91.0120   61.8800 N.pl3 1300  SAH1300     0.2180
     23  N1        23.3080   90.3990   63.6470 N.2   1300  SAH1300     0.0021
     24  C2        23.0610   89.9850   64.9180 C.3   1300  SAH1300     0.5254
     25  N3        24.0540   89.7320   65.8370 N.2   1300  SAH1300    -0.0055
     26  C4        25.3160   89.9350   65.3520 C.2   1300  SAH1300     0.3518
@<TRIPOS>BOND
     1    22    21    1
     2    21    23    2
     3    21    20    1
     4    23    24    1
     5    19    20    2
     6    19    18    1
     7    20    26    1
     8    24    25    1
     9    18    17    1
    10     8     6   ar
    11     7     6   ar
    12     6     2    1
    13    26    25    2
    14    26    17    1
    15     2     1    1
    16     2     3    1
    17    17    16    1
    18     3     4    1
    19    16    14    1
    20    16    11    1
    21     4     5    1
    22    12    14    1
    23    12    13    1
    24    12    10    1
    25    14    15    1
    26     9    10    1
    27     9     5    1
    28    11    10    1
