@<TRIPOS>MOLECULE
2e17_SAH_A_1.pdb
 26 28 0 0 0
SMALL
GASTEIGER

@<TRIPOS>ATOM
      1  N         33.5830   92.6910   65.7800 N.3   1300  SAH1300    -0.1208
      2  CA        32.1400   92.2300   65.6160 C.3   1300  SAH1300     0.1952
      3  CB        31.5050   91.5310   66.7830 C.3   1300  SAH1300     0.0422
      4  CG        32.1550   90.2760   67.3400 C.3   1300  SAH1300     0.0597
      5  SD        30.9880   89.5700   68.5720 S.3   1300  SAH1300    -0.1375
      6  C         31.2990   93.5140   65.2090 C.2   1300  SAH1300     0.3819
      7  O         31.8870   94.6110   65.1090 O.co2 1300  SAH1300    -0.2441
      8  OXT       30.0350   93.3320   64.9980 O.co2 1300  SAH1300    -0.2441
      9  C5'       30.1300   88.3590   67.6450 C.3   1300  SAH1300     0.0899
     10  C4'       28.6290   88.3000   68.1510 C.3   1300  SAH1300     0.1630
     11  O4'       28.0110   89.5960   67.9110 O.3   1300  SAH1300    -0.3153
     12  C3'       27.7640   87.2890   67.4820 C.3   1300  SAH1300     0.2168
     13  O3'       27.8970   86.0130   68.0880 O.3   1300  SAH1300    -0.2175
     14  C2'       26.3570   87.9360   67.6110 C.3   1300  SAH1300     0.2569
     15  O2'       25.7130   87.6720   68.8610 O.3   1300  SAH1300    -0.2130
     16  C1'       26.6210   89.4540   67.3240 C.3   1300  SAH1300     0.3185
     17  N9        26.5760   89.8440   65.9580 N.pl3 1300  SAH1300    -0.1439
     18  C8        27.5500   90.1280   65.0140 C.3   1300  SAH1300     0.3377
     19  N7        27.1020   90.4560   63.8400 N.2   1300  SAH1300    -0.2095
     20  C5        25.6850   90.4000   63.9710 C.2   1300  SAH1300     0.2526
     21  C6        24.6230   90.6570   63.0270 C.2   1300  SAH1300     0.4393
     22  N6        24.8230   91.0210   61.7520 N.pl3 1300  SAH1300     0.2180
     23  N1        23.3490   90.4980   63.5310 N.2   1300  SAH1300     0.0021
     24  C2        23.0940   90.1260   64.8150 C.3   1300  SAH1300     0.5254
     25  N3        24.0810   89.8730   65.7400 N.2   1300  SAH1300    -0.0055
     26  C4        25.3450   90.0290   65.2510 C.2   1300  SAH1300     0.3518
@<TRIPOS>BOND
     1    22    21    1
     2    21    23    2
     3    21    20    1
     4    23    24    1
     5    19    20    2
     6    19    18    1
     7    20    26    1
     8    24    25    1
     9     8     6   ar
    10    18    17    1
    11     7     6   ar
    12     6     2    1
    13    26    25    2
    14    26    17    1
    15     2     1    1
    16     2     3    1
    17    17    16    1
    18     3     4    1
    19    16    14    1
    20    16    11    1
    21     4     5    1
    22    12    14    1
    23    12    13    1
    24    12    10    1
    25    14    15    1
    26     9    10    1
    27     9     5    1
    28    11    10    1
