@<TRIPOS>MOLECULE
2e1r_GDP_A_1.pdb
 28 30 0 0 0
SMALL
GASTEIGER

@<TRIPOS>ATOM
      1  PB        30.7910  -41.2610  -12.3740 P.3   902  GDP902      0.5373
      2  O1B       31.0330  -42.3390  -13.3970 O.2   902  GDP902     -0.2221
      3  O2B       31.0310  -39.9120  -12.9500 O.3   902  GDP902     -0.1143
      4  O3B       29.4240  -41.4280  -11.7650 O.3   902  GDP902     -0.1143
      5  O3A       31.8710  -41.5260  -11.2320 O.3   902  GDP902     -0.2261
      6  PA        31.7280  -41.9390   -9.6780 P.3   902  GDP902      0.2231
      7  O1A       31.0690  -40.8130   -8.9480 O.3   902  GDP902     -0.4370
      8  O2A       31.0540  -43.2530   -9.5810 O.2   902  GDP902     -0.5169
      9  O5'       33.2310  -42.0000   -9.3060 O.3   902  GDP902     -0.3111
     10  C5'       34.1240  -42.9650   -9.8790 C.3   902  GDP902      0.1813
     11  C4'       35.2650  -43.2480   -8.9350 C.3   902  GDP902      0.1799
     12  O4'       35.9320  -42.0010   -8.6190 O.3   902  GDP902     -0.3326
     13  C3'       34.8410  -43.8490   -7.5800 C.3   902  GDP902      0.2158
     14  O3'       35.7270  -44.8960   -7.1970 O.3   902  GDP902     -0.2175
     15  C2'       34.8630  -42.6670   -6.6230 C.3   902  GDP902      0.2310
     16  O2'       35.0770  -43.0140   -5.2500 O.3   902  GDP902     -0.2158
     17  C1'       35.9630  -41.7830   -7.2000 C.3   902  GDP902      0.2293
     18  N9        35.7370  -40.3460   -6.9260 N.pl3 902  GDP902     -0.2354
     19  C8        34.6820  -39.5380   -7.3340 C.3   902  GDP902      0.2246
     20  N7        34.7810  -38.2930   -6.9070 N.2   902  GDP902     -0.2322
     21  C5        35.9820  -38.2620   -6.1940 C.2   902  GDP902      0.2182
     22  C6        36.6310  -37.2200   -5.4630 C.1   902  GDP902      0.2372
     23  O6        36.2540  -36.0430   -5.3650 O.2   902  GDP902     -0.2069
     24  N1        37.8450  -37.5950   -4.8550 N.2   902  GDP902     -0.2485
     25  C2        38.3820  -38.8920   -4.8990 C.1   902  GDP902      0.2531
     26  N2        39.5320  -39.0910   -4.2650 N.pl3 902  GDP902     -0.0226
     27  N3        37.7670  -39.8920   -5.5720 N.2   902  GDP902     -0.3074
     28  C4        36.5670  -39.5320   -6.1780 C.2   902  GDP902      0.2300
@<TRIPOS>BOND
     1     2     1    2
     2     3     1    1
     3     1     4    1
     4     1     5    1
     5     5     6    1
     6    10     9    1
     7    10    11    1
     8     6     8    2
     9     6     9    1
    10     6     7    1
    11    11    12    1
    12    11    13    1
    13    12    17    1
    14    13    14    1
    15    13    15    1
    16    19    18    1
    17    19    20    1
    18    17    18    1
    19    17    15    1
    20    18    28    1
    21    20    21    2
    22    15    16    1
    23    21    28    1
    24    21    22    1
    25    28    27    2
    26    27    25    2
    27    22    23    2
    28    22    24    2
    29    25    24    2
    30    25    26    1
