@<TRIPOS>MOLECULE
2e1r_SOD_A_1.pdb
 36 41 0 0 0
SMALL
GASTEIGER

@<TRIPOS>ATOM
      1  C1        15.5540  -60.8050  -52.7240 C.3   901  SOD901      0.1025
      2  C2        15.1850  -59.2950  -52.8060 C.3   901  SOD901      0.0376
      3  C3        16.5940  -60.8720  -53.9950 C.3   901  SOD901      0.0681
      4  C4        16.3060  -60.8290  -51.3210 C.3   901  SOD901      0.0107
      5  C5        14.4170  -61.9060  -52.7710 C.2   901  SOD901      0.3643
      6  C6        16.6820  -58.9350  -52.5950 C.3   901  SOD901      0.0033
      7  C7        14.4510  -58.8740  -54.1840 C.3   901  SOD901      0.0030
      8  C8        14.2240  -58.7200  -51.7060 C.3   901  SOD901      0.1452
      9  C9        15.7720  -60.7500  -55.3400 C.3   901  SOD901      0.0087
     10  C10       17.5160  -59.6360  -53.7030 C.3   901  SOD901      0.0080
     11  C11       17.3620  -62.2120  -53.9200 C.2   901  SOD901      0.2071
     12  C12       16.9910  -59.6110  -51.2820 C.3   901  SOD901      0.0006
     13  C13       16.2620  -61.9380  -50.2550 C.3   901  SOD901      0.0005
     14  O14       13.2060  -61.5210  -52.7910 O.co2 901  SOD901     -0.2457
     15  O15       14.8310  -63.0950  -52.7570 O.co2 901  SOD901     -0.2457
     16  C16       15.1830  -59.3190  -55.4670 C.3   901  SOD901      0.0017
     17  O17       13.9500  -57.3330  -51.8390 O.3   901  SOD901     -0.3305
     18  C18       16.4630  -60.8210  -56.7320 C.3   901  SOD901      0.0167
     19  O19       18.5550  -62.3560  -53.6360 O.2   901  SOD901     -0.2883
     20  C20       17.5740  -62.1210  -49.4850 C.3   901  SOD901      0.0000
     21  C21       15.1450  -61.6760  -49.2440 C.3   901  SOD901      0.0000
     22  C22       14.4230  -59.4110  -56.8260 C.3   901  SOD901      0.0151
     23  C24       15.4510  -60.1900  -57.7480 C.3   901  SOD901      0.0799
     24  C25       13.0020  -60.0260  -56.7140 C.3   901  SOD901      0.0013
     25  C52       13.0950  -57.0010  -50.7660 C.3   901  SOD901      0.2355
     26  C53       13.7520  -55.8580  -49.9680 C.3   901  SOD901      0.0679
     27  C54       12.8220  -55.5740  -48.8080 C.3   901  SOD901      0.0553
     28  C55       11.4860  -55.1280  -49.3170 C.3   901  SOD901      0.1465
     29  C56       10.8860  -56.2990  -50.1180 C.3   901  SOD901      0.1451
     30  O56       11.7600  -56.6060  -51.2210 O.3   901  SOD901     -0.3305
     31  C61        9.5280  -55.9300  -50.6760 C.3   901  SOD901      0.0348
     32  O64       10.7340  -54.7970  -48.1490 O.3   901  SOD901     -0.3490
     33  C65       11.6780  -54.0470  -47.3550 C.3   901  SOD901      0.1645
     34 CL5        14.8810  -61.5450  -58.5590 Cl    901  SOD901     -0.1150
     35  C64       13.0450  -54.5420  -47.7790 C.2   901  SOD901     -0.0127
     36  C70       14.2090  -54.1730  -47.2530 C.2   901  SOD901     -0.0066
@<TRIPOS>BOND
     1    34    23    1
     2    23    22    1
     3    23    18    1
     4    22    24    1
     5    22    16    1
     6    18     9    1
     7    16     9    1
     8    16     7    1
     9     9     3    1
    10     7     2    1
    11     3    11    1
    12     3    10    1
    13     3     1    1
    14    11    19    2
    15    10     6    1
    16     2     1    1
    17     2     6    1
    18     2     8    1
    19    14     5   ar
    20     5    15   ar
    21     5     1    1
    22     1     4    1
    23     6    12    1
    24    17     8    1
    25    17    25    1
    26     4    12    1
    27     4    13    1
    28    30    25    1
    29    30    29    1
    30    25    26    1
    31    31    29    1
    32    13    20    1
    33    13    21    1
    34    29    28    1
    35    26    27    1
    36    28    27    1
    37    28    32    1
    38    27    35    1
    39    32    33    1
    40    35    33    1
    41    35    36    2
