@<TRIPOS>MOLECULE
2e1s_ARA_A_1.pdb
 10 10 0 0 0
SMALL
GASTEIGER

@<TRIPOS>ATOM
      1  C1        11.4560   13.6970   15.0840 C.3   1001  ARA1001     0.3024
      2  C2        10.0540   13.0830   14.9750 C.3   1001  ARA1001     0.2434
      3  C3         9.3540   13.5360   13.6960 C.3   1001  ARA1001     0.2199
      4  C4        10.2730   13.4260   12.4760 C.3   1001  ARA1001     0.2143
      5  C5        11.6380   14.0620   12.7310 C.3   1001  ARA1001     0.1804
      6  O1        11.3400   15.0690   15.4220 O.3   1001  ARA1001    -0.1869
      7  O2        10.0870   11.6700   15.0110 O.3   1001  ARA1001    -0.2148
      8  O3         8.9300   14.8730   13.8940 O.3   1001  ARA1001    -0.2174
      9  O4         9.6750   14.0110   11.3330 O.3   1001  ARA1001    -0.2176
     10  O5        12.2200   13.5120   13.8980 O.3   1001  ARA1001    -0.3237
@<TRIPOS>BOND
     1     9     4    1
     2     4     5    1
     3     4     3    1
     4     5    10    1
     5     3     8    1
     6     3     2    1
     7    10     1    1
     8     2     7    1
     9     2     1    1
    10     1     6    1
