@<TRIPOS>MOLECULE
2e1w_FR6_A_1.pdb
 24 26 0 0 0
SMALL
GASTEIGER

@<TRIPOS>ATOM
      1  C1        51.5270   54.5190   20.9790 C.3     1  FR61        0.1246
      2  N2        51.4640   55.5440   22.0340 N.3     1  FR61       -0.2456
      3  C3        51.3380   54.9180   23.2050 C.3     1  FR61        0.2010
      4  N4        51.4810   53.5840   23.0650 N.2     1  FR61       -0.2506
      5  C5        51.5360   53.3320   21.6090 C.2     1  FR61        0.1279
      6  C8        51.5700   51.9650   21.0070 C.2     1  FR61        0.2988
      7  O9        52.0650   51.6940   19.9230 O.2     1  FR61       -0.2653
      8  N10       51.1200   50.9800   21.7510 N.am    1  FR61       -0.0826
      9  C13       51.5520   56.9910   21.8560 C.3     1  FR61        0.0902
     10  C14       53.0510   57.5330   21.8270 C.3     1  FR61        0.1666
     11  O15       53.9690   57.2110   22.9310 O.3     1  FR61       -0.2217
     12  C18       50.6710   57.4600   20.6780 C.3     1  FR61        0.0233
     13  C19       49.1300   57.3580   20.8840 C.3     1  FR61        0.0278
     14  C22       48.4170   57.8360   19.6260 C.ar    1  FR61       -0.0221
     15  C25       48.0220   59.1820   19.5170 C.ar    1  FR61       -0.0043
     16  C26       47.5180   59.7000   18.3220 C.ar    1  FR61       -0.0003
     17  C27       47.5040   58.9030   17.1760 C.ar    1  FR61       -0.0000
     18  C28       47.9030   57.5590   17.2590 C.ar    1  FR61       -0.0003
     19  C29       48.3880   57.0270   18.4650 C.ar    1  FR61       -0.0040
     20  C2        47.7620   56.7650   16.1080 C.ar    1  FR61       -0.0000
     21  C4        48.6780   55.6420   18.5240 C.ar    1  FR61       -0.0003
     22  C6        48.0980   55.4130   16.1710 C.ar    1  FR61       -0.0000
     23  C7        48.5200   54.8420   17.3770 C.ar    1  FR61       -0.0000
     24  C9        53.8140   57.3180   20.4920 C.3     1  FR61        0.0369
@<TRIPOS>BOND
     1    20    22   ar
     2    20    18   ar
     3    22    23   ar
     4    17    18   ar
     5    17    16   ar
     6    18    19   ar
     7    23    21   ar
     8    16    15   ar
     9    19    21   ar
    10    19    14   ar
    11    15    14   ar
    12    14    13    1
    13     7     6    2
    14    24    10    1
    15    12    13    1
    16    12     9    1
    17     1     5    1
    18     1     2    1
    19     6     5    1
    20     6     8   am
    21     5     4    2
    22    10     9    1
    23    10    11    1
    24     9     2    1
    25     2     3    1
    26     4     3    1
