@<TRIPOS>MOLECULE
2e21_ANP_A_1.pdb
 31 33 0 0 0
SMALL
GASTEIGER

@<TRIPOS>ATOM
      1  PG       -59.0230   -7.2370   35.0400 P.3   500  ANP500      0.4884
      2  O1G      -59.3040   -8.6900   34.9440 O.3   500  ANP500     -0.1240
      3  O2G      -59.9690   -6.5450   36.1520 O.3   500  ANP500     -0.1240
      4  O3G      -59.2210   -6.5160   33.6100 O.2   500  ANP500     -0.2331
      5  PB       -57.0690   -5.3360   35.5610 P.3   500  ANP500      0.4669
      6  O1B      -57.2670   -4.9380   36.9760 O.3   500  ANP500     -0.1253
      7  O2B      -55.7190   -5.2030   34.9580 O.2   500  ANP500     -0.2351
      8  N3B      -57.4850   -6.9070   35.4530 N.3   500  ANP500     -0.0163
      9  PA       -59.0460   -3.3830   35.3650 P.3   500  ANP500      0.2220
     10  O1A      -60.0130   -4.1240   36.2060 O.3   500  ANP500     -0.4370
     11  O2A      -58.1890   -2.3610   36.0100 O.2   500  ANP500     -0.5170
     12  O3A      -58.1110   -4.4930   34.6650 O.3   500  ANP500     -0.2360
     13  O5'      -59.7750   -2.7150   34.0910 O.3   500  ANP500     -0.3111
     14  C5'      -60.9390   -1.8870   34.1990 C.3   500  ANP500      0.1813
     15  C4'      -62.2140   -2.6990   34.4390 C.3   500  ANP500      0.1821
     16  O4'      -62.3590   -3.1760   35.7860 O.3   500  ANP500     -0.3135
     17  C3'      -63.4180   -1.7850   34.2290 C.3   500  ANP500      0.2184
     18  O3'      -64.1100   -2.3210   33.1040 O.3   500  ANP500     -0.2174
     19  C2'      -64.2620   -2.0340   35.4780 C.3   500  ANP500      0.2570
     20  O2'      -65.0590   -3.1960   35.2550 O.3   500  ANP500     -0.2130
     21  C1'      -63.1460   -2.3100   36.4850 C.3   500  ANP500      0.3186
     22  N9       -62.7440   -1.3540   37.3210 N.pl3 500  ANP500     -0.1439
     23  C8       -61.5570   -0.7510   37.3380 C.3   500  ANP500      0.3377
     24  N7       -61.6200    0.3580   38.0720 N.2   500  ANP500     -0.2095
     25  C5       -62.8590    0.4570   38.5450 C.2   500  ANP500      0.2526
     26  C6       -63.5130    1.2940   39.4470 C.2   500  ANP500      0.4393
     27  N6       -62.9480    2.4190   39.8740 N.pl3 500  ANP500      0.2180
     28  N1       -64.7660    1.0090   39.8380 N.2   500  ANP500      0.0021
     29  C2       -65.4160   -0.0460   39.3770 C.3   500  ANP500      0.5254
     30  N3       -64.8280   -0.8480   38.5050 N.2   500  ANP500     -0.0055
     31  C4       -63.5750   -0.6360   38.0710 C.2   500  ANP500      0.3518
@<TRIPOS>BOND
     1    18    17    1
     2     4     1    2
     3    13    14    1
     4    13     9    1
     5    14    15    1
     6    17    15    1
     7    17    19    1
     8    15    16    1
     9    12     9    1
    10    12     5    1
    11     2     1    1
    12     7     5    2
    13     1     8    1
    14     1     3    1
    15    20    19    1
    16     9    11    2
    17     9    10    1
    18     8     5    1
    19    19    21    1
    20     5     6    1
    21    16    21    1
    22    21    22    1
    23    22    23    1
    24    22    31    1
    25    23    24    1
    26    31    30    2
    27    31    25    1
    28    24    25    2
    29    30    29    1
    30    25    26    1
    31    29    28    1
    32    26    28    2
    33    26    27    1
