@<TRIPOS>MOLECULE
2e22_MAN_A_1.pdb
 12 12 0 0 0
SMALL
GASTEIGER

@<TRIPOS>ATOM
      1  C1        18.4320   57.1330    9.0800 C.3   1001  MAN1001     0.3024
      2  C2        17.9490   56.6250   10.4440 C.3   1001  MAN1001     0.2434
      3  C3        16.5480   56.0250   10.3080 C.3   1001  MAN1001     0.2199
      4  C4        15.5970   57.0390    9.6570 C.3   1001  MAN1001     0.2144
      5  C5        16.1910   57.5330    8.3320 C.3   1001  MAN1001     0.1836
      6  C6        15.3500   58.6130    7.6800 C.3   1001  MAN1001     0.2142
      7  O1        19.6640   57.7500    9.2170 O.3   1001  MAN1001    -0.1869
      8  O2        17.9210   57.6970   11.3770 O.3   1001  MAN1001    -0.2148
      9  O3        16.0560   55.6550   11.5910 O.3   1001  MAN1001    -0.2174
     10  O4        14.3350   56.4330    9.4210 O.3   1001  MAN1001    -0.2176
     11  O5        17.5060   58.0920    8.5510 O.3   1001  MAN1001    -0.3236
     12  O6        14.9450   59.5930    8.6250 O.3   1001  MAN1001    -0.2176
@<TRIPOS>BOND
     1     6     5    1
     2     6    12    1
     3     5    11    1
     4     5     4    1
     5    11     1    1
     6     1     7    1
     7     1     2    1
     8    10     4    1
     9     4     3    1
    10     3     2    1
    11     3     9    1
    12     2     8    1
