@<TRIPOS>MOLECULE
2e25_FOT_A_1.pdb
 12 12 0 0 0
SMALL
GASTEIGER

@<TRIPOS>ATOM
      1  C2         0.8760   18.7300    5.7590 C.1   410  FOT410      0.3653
      2  C6         0.1310   20.9190    5.2660 C.1   410  FOT410      0.2333
      3  C5        -1.2560   20.4190    5.1990 C.3   410  FOT410      0.3364
      4  O2         1.8360   17.9660    6.0090 O.2   410  FOT410     -0.1745
      5  N3        -0.3620   18.2060    5.7070 N.2   410  FOT410     -0.3016
      6  N1         1.1100   20.0440    5.5470 N.2   410  FOT410     -0.2339
      7  O6         0.3750   22.1310    5.0810 O.2   410  FOT410     -0.2101
      8  F5        -2.2910   21.2400    4.9290 F     410  FOT410     -0.2098
      9  C4        -1.4340   18.9670    5.4390 C.2   410  FOT410      0.2530
     10  C41       -2.8040   18.3700    5.3830 C.2   410  FOT410      0.4176
     11  O42       -3.6670   18.8370    6.1560 O.co2 410  FOT410     -0.2379
     12  O41       -3.0360   17.4420    4.5660 O.co2 410  FOT410     -0.2379
@<TRIPOS>BOND
     1    12    10   ar
     2     8     3    1
     3     7     2    2
     4     3     2    1
     5     3     9    1
     6     2     6    2
     7    10     9    1
     8    10    11   ar
     9     9     5    2
    10     6     1    2
    11     5     1    2
    12     1     4    2
