@<TRIPOS>MOLECULE
2e27_AB0_H_1.pdb
 24 26 0 0 0
SMALL
GASTEIGER

@<TRIPOS>ATOM
      1  C22       -2.2050   -2.9410   18.9140 C.3   6001  AB06001     0.1770
      2  O21       -1.0870   -3.6720   19.4260 O.3   6001  AB06001    -0.3241
      3  C20       -1.3900   -4.1940   20.7280 C.3   6001  AB06001     0.2941
      4  O17       -1.5150   -3.1340   21.6890 O.3   6001  AB06001    -0.3267
      5  C14       -0.2330   -2.6080   22.0680 C.3   6001  AB06001     0.1480
      6  C15        0.1340   -1.3940   21.2070 C.3   6001  AB06001     0.0643
      7  C10        1.4110   -0.7280   21.7300 C.3   6001  AB06001     0.1479
      8  O11        1.6520    0.4950   21.0170 O.3   6001  AB06001    -0.3479
      9  C05        2.8510    1.1860   21.4090 C.3   6001  AB06001     0.1796
     10  C06        2.8700    2.3690   20.4330 C.2   6001  AB06001     0.0067
     11  C07        3.7270    3.4360   20.6800 C.2   6001  AB06001     0.0012
     12  C01        4.5240    3.7730   21.7690 C.2   6001  AB06001     0.0398
     13  C02        4.7330    3.1130   22.9740 C.2   6001  AB06001     0.1723
     14  O03        4.1480    1.8520   23.3380 O.2   6001  AB06001    -0.4705
     15  C04        2.8170    1.5470   22.8920 C.3   6001  AB06001     0.2296
     16  C08        2.4630    0.2960   23.7020 C.3   6001  AB06001     0.2236
     17  O16        2.2950    0.6460   25.0780 O.3   6001  AB06001    -0.2164
     18  C09        1.1870   -0.3740   23.1920 C.3   6001  AB06001     0.1762
     19  O12        0.9310   -1.5780   23.9310 O.3   6001  AB06001    -0.3504
     20  C13       -0.3150   -2.1620   23.5210 C.3   6001  AB06001     0.1537
     21  C18       -0.6360   -3.3540   24.4250 C.3   6001  AB06001     0.1460
     22  C19       -0.7520   -2.9070   25.8830 C.2   6001  AB06001     0.3674
     23  O23       -1.4540   -1.9430   26.1840 O.co2 6001  AB06001    -0.2456
     24  O24       -0.1350   -3.5040   26.7660 O.co2 6001  AB06001    -0.2456
@<TRIPOS>BOND
     1     1     2    1
     2     2     3    1
     3    10    11    2
     4    10     9    1
     5    11    12    1
     6     3     4    1
     7     8     9    1
     8     8     7    1
     9     6     7    1
    10     6     5    1
    11     9    15    1
    12     4     5    1
    13     7    18    1
    14    12    13    2
    15     5    20    1
    16    15    14    1
    17    15    16    1
    18    13    14    1
    19    18    16    1
    20    18    19    1
    21    20    19    1
    22    20    21    1
    23    16    17    1
    24    21    22    1
    25    22    23   ar
    26    22    24   ar
