@<TRIPOS>MOLECULE
2e2b_406_A_1.pdb
 42 46 0 0 0
SMALL
GASTEIGER

@<TRIPOS>ATOM
      1  C1        15.6550   50.5460   16.6180 C.ar  1001  4061001     0.0553
      2  C2        16.7720   49.6800   16.8410 C.ar  1001  4061001     0.0043
      3  C3        16.6580   48.5680   17.7030 C.ar  1001  4061001    -0.0028
      4  C4        15.4080   48.2740   18.3950 C.ar  1001  4061001    -0.0022
      5  C5        14.2470   49.1670   18.1710 C.ar  1001  4061001     0.0689
      6  C6        14.4220   50.2630   17.2900 C.ar  1001  4061001     0.0082
      7  C7        12.8320   49.0030   18.8360 C.3   1001  4061001     0.4183
      8  F8        12.9460   49.1650   20.1830 F     1001  4061001    -0.1659
      9  F9        12.3190   47.7720   18.5830 F     1001  4061001    -0.1659
     10  F10       11.9420   49.9650   18.4300 F     1001  4061001    -0.1659
     11  C11       15.4200   47.0200   19.3230 C.3   1001  4061001     0.0991
     12  N12       16.6820   46.6270   20.0070 N.3   1001  4061001    -0.2677
     13  C13       16.6770   45.3040   20.6620 C.3   1001  4061001     0.0739
     14  C14       17.1820   45.5670   22.0850 C.3   1001  4061001     0.0347
     15  C15       18.0920   46.7950   21.8390 C.3   1001  4061001     0.0749
     16  C16       17.1450   47.6240   21.0090 C.3   1001  4061001     0.0885
     17  N17       18.6280   47.5080   23.0830 N.3   1001  4061001    -0.2702
     18  C18       19.5410   46.7250   23.9420 C.3   1001  4061001     0.0897
     19  C19       19.2540   48.8230   22.6890 C.3   1001  4061001     0.0897
     20  N20       11.5450   62.0160   12.1620 N.ar  1001  4061001    -0.2223
     21  C21       10.6260   61.3800   11.4130 C.ar  1001  4061001     0.1989
     22  N22       10.6700   60.1010   11.0160 N.ar  1001  4061001    -0.2223
     23  C23       11.7450   59.3640   11.4040 C.ar  1001  4061001     0.1048
     24  C24       12.8520   59.9020   12.2290 C.ar  1001  4061001     0.0689
     25  C25       12.6290   61.3150   12.5630 C.ar  1001  4061001     0.1048
     26  C26       13.9470   59.1190   12.6150 C.2   1001  4061001     0.1487
     27  N27       13.9940   57.8030   12.2150 N.2   1001  4061001    -0.3360
     28  C28       15.0140   57.0320   12.5580 C.1   1001  4061001     0.1696
     29  N29       16.0610   57.4220   13.2720 N.2   1001  4061001    -0.1683
     30  C30       16.1060   58.7230   13.7210 C.2   1001  4061001     0.1144
     31  C31       15.0700   59.6490   13.4250 C.2   1001  4061001     0.0546
     32  N32       14.9480   55.7250   12.0930 N.pl3 1001  4061001    -0.1360
     33  C33       15.7000   53.8490   13.3820 C.ar  1001  4061001     0.0336
     34  C34       16.6380   52.7710   13.6250 C.ar  1001  4061001     0.0750
     35  C35       17.7250   52.5870   12.7390 C.ar  1001  4061001     0.0164
     36  C36       17.8950   53.4590   11.6120 C.ar  1001  4061001    -0.0016
     37  C37       16.9640   54.5200   11.3800 C.ar  1001  4061001    -0.0057
     38  C38       15.8750   54.6970   12.2750 C.ar  1001  4061001     0.0799
     39  C39       17.2370   55.3920   10.1560 C.3   1001  4061001     0.0324
     40  N40       16.5330   51.8610   14.7350 N.am  1001  4061001    -0.1754
     41  C41       15.6600   51.7530   15.7370 C.2   1001  4061001     0.2690
     42  O42       14.8550   52.6550   15.9710 O.2   1001  4061001    -0.2680
@<TRIPOS>BOND
     1    39    37    1
     2    22    23   ar
     3    22    21   ar
     4    37    36   ar
     5    37    38   ar
     6    23    24   ar
     7    21    20   ar
     8    36    35   ar
     9    32    38    1
    10    32    28    1
    11    20    25   ar
    12    27    28    2
    13    27    26    2
    14    24    25   ar
    15    24    26    1
    16    38    33   ar
    17    28    29    2
    18    26    31    1
    19    35    34   ar
    20    29    30    1
    21    33    34   ar
    22    31    30    2
    23    34    40    1
    24    40    41   am
    25    41    42    2
    26    41     1    1
    27     1     2   ar
    28     1     6   ar
    29     2     3   ar
    30     6     5   ar
    31     3     4   ar
    32     5     4   ar
    33     5     7    1
    34     4    11    1
    35    10     7    1
    36     9     7    1
    37     7     8    1
    38    11    12    1
    39    12    13    1
    40    12    16    1
    41    13    14    1
    42    16    15    1
    43    15    14    1
    44    15    17    1
    45    19    17    1
    46    17    18    1
