@<TRIPOS>MOLECULE
2e2h_GTP_T_1.pdb
 32 34 0 0 0
SMALL
GASTEIGER

@<TRIPOS>ATOM
      1  PG        -3.5830   -0.7940   49.8780 P.3   3000  GTP3000     0.5373
      2  O1G       -4.8200   -0.3800   50.6390 O.3   3000  GTP3000    -0.1143
      3  O2G       -2.9930    0.3630   49.1080 O.3   3000  GTP3000    -0.1143
      4  O3G       -3.8890   -1.9020   48.9010 O.2   3000  GTP3000    -0.2221
      5  O3B       -2.5270   -1.2930   50.9670 O.3   3000  GTP3000    -0.2258
      6  PB        -2.2850   -2.8640   51.0700 P.3   3000  GTP3000     0.2277
      7  O1B       -1.4870   -3.1040   52.3310 O.3   3000  GTP3000    -0.4368
      8  O2B       -3.5870   -3.6310   51.0440 O.2   3000  GTP3000    -0.5168
      9  O3A       -1.4470   -3.2090   49.7440 O.3   3000  GTP3000    -0.2700
     10  PA        -0.5960   -2.1530   48.8720 P.3   3000  GTP3000     0.2189
     11  O1A       -1.3990   -1.0890   48.1760 O.3   3000  GTP3000    -0.4371
     12  O2A        0.1350   -2.9430   47.8270 O.2   3000  GTP3000    -0.5170
     13  O5'        0.4290   -1.4920   49.9090 O.3   3000  GTP3000    -0.3112
     14  C5'        1.5830   -0.8520   49.4180 C.3   3000  GTP3000     0.1813
     15  C4'        2.6430   -1.8760   48.9940 C.3   3000  GTP3000     0.1799
     16  O4'        3.5830   -1.3020   48.0940 O.3   3000  GTP3000    -0.3326
     17  C3'        3.4210   -2.4190   50.1780 C.3   3000  GTP3000     0.2158
     18  O3'        3.0450   -3.7550   50.4220 O.3   3000  GTP3000    -0.2175
     19  C2'        4.8900   -2.2550   49.8010 C.3   3000  GTP3000     0.2310
     20  O2'        5.4840   -3.4730   49.4210 O.3   3000  GTP3000    -0.2158
     21  C1'        4.9060   -1.3380   48.5920 C.3   3000  GTP3000     0.2293
     22  N9         5.3070    0.0330   48.9640 N.pl3 3000  GTP3000    -0.2354
     23  C8         4.4630    1.0390   49.3640 C.3   3000  GTP3000     0.2246
     24  N7         5.1750    2.1570   49.6200 N.2   3000  GTP3000    -0.2322
     25  C5         6.4780    1.8900   49.3870 C.2   3000  GTP3000     0.2182
     26  C6         7.6270    2.6800   49.4920 C.1   3000  GTP3000     0.2372
     27  O6         7.5650    3.8550   49.8520 O.2   3000  GTP3000    -0.2069
     28  N1         8.8540    2.1370   49.1870 N.2   3000  GTP3000    -0.2485
     29  C2         8.9290    0.8220   48.7790 C.1   3000  GTP3000     0.2531
     30  N2        10.1230    0.3190   48.4940 N.pl3 3000  GTP3000    -0.0226
     31  N3         7.7890    0.0330   48.6740 N.2   3000  GTP3000    -0.3074
     32  C4         6.5750    0.5580   48.9730 C.2   3000  GTP3000     0.2300
@<TRIPOS>BOND
     1    12    10    2
     2    16    21    1
     3    16    15    1
     4    11    10    1
     5    30    29    1
     6    21    22    1
     7    21    19    1
     8    31    29    2
     9    31    32    2
    10    29    28    2
    11    10     9    1
    12    10    13    1
    13     4     1    2
    14    22    32    1
    15    22    23    1
    16    32    25    1
    17    15    14    1
    18    15    17    1
    19     3     1    1
    20    28    26    2
    21    23    24    1
    22    25    26    1
    23    25    24    2
    24    14    13    1
    25    20    19    1
    26    26    27    2
    27     9     6    1
    28    19    17    1
    29     1     2    1
    30     1     5    1
    31    17    18    1
    32     5     6    1
    33     8     6    2
    34     6     7    1
