@<TRIPOS>MOLECULE
2e2i_DGT_B_1.pdb
 32 35 0 0 0
SMALL
GASTEIGER

@<TRIPOS>ATOM
      1  PG        -0.3980   -1.6340   50.0640 P.3   1308  DGT1308     0.5373
      2  PG        -1.7360   -4.6540   54.6840 P.3   1308  DGT1308    -0.0198
      3  O1G       -1.4450   -1.1380   49.0740 O.2   1308  DGT1308    -0.2221
      4  O2G        0.6290   -2.5620   49.4440 O.3   1308  DGT1308    -0.1143
      5  O3G        0.2340   -0.5320   50.9050 O.3   1308  DGT1308    -0.1143
      6  O3B       -1.2040   -2.6200   51.1050 O.3   1308  DGT1308    -0.2258
      7  PB        -1.8450   -2.1940   52.5480 P.3   1308  DGT1308     0.2277
      8  O1B       -3.0170   -3.0980   52.8900 O.3   1308  DGT1308    -0.4368
      9  O2B       -2.1240   -0.7120   52.4780 O.2   1308  DGT1308    -0.5168
     10  O3A       -0.7250   -2.4350   53.7090 O.3   1308  DGT1308    -0.2700
     11  PA         0.9140   -2.4860   53.6470 P.3   1308  DGT1308     0.2189
     12  O1A        1.4220   -1.1770   54.2100 O.3   1308  DGT1308    -0.4371
     13  O2A        1.4290   -2.9300   52.2880 O.2   1308  DGT1308    -0.5170
     14  O5'        1.2680   -3.6490   54.7360 O.3   1308  DGT1308    -0.3112
     15  C5'        1.6180   -5.0150   54.4300 C.3   1308  DGT1308     0.1815
     16  C4'        0.6270   -5.7980   53.5370 C.3   1308  DGT1308     0.1791
     17  O4'        0.7920   -7.2100   53.7210 O.3   1308  DGT1308    -0.3341
     18  C3'       -0.8620   -5.5300   53.7850 C.3   1308  DGT1308     0.1774
     19  O3'       -1.5600   -5.4630   52.5370 O.3   1308  DGT1308    -0.2179
     20  C2'       -1.4230   -6.7070   54.5530 C.3   1308  DGT1308     0.1045
     21  C1'       -0.3820   -7.7850   54.3090 C.3   1308  DGT1308     0.2026
     22  N9         0.0230   -8.3450   55.6040 N.pl3 1308  DGT1308    -0.2371
     23  C8         0.7190   -7.7340   56.5870 C.3   1308  DGT1308     0.2245
     24  N7         0.9230   -8.5730   57.6370 N.2   1308  DGT1308    -0.2322
     25  C5         0.3450   -9.7390   57.3090 C.2   1308  DGT1308     0.2182
     26  C6         0.1780  -11.0670   57.9490 C.1   1308  DGT1308     0.2372
     27  O6         0.6460  -11.2670   59.0850 O.2   1308  DGT1308    -0.2069
     28  N1        -0.4870  -12.0210   57.2730 N.2   1308  DGT1308    -0.2485
     29  C2        -1.0100  -11.8140   56.0410 C.1   1308  DGT1308     0.2531
     30  N2        -1.6710  -12.8240   55.4290 N.pl3 1308  DGT1308    -0.0226
     31  N3        -0.8990  -10.6190   55.3890 N.2   1308  DGT1308    -0.3074
     32  C4        -0.2460   -9.5840   55.9690 C.2   1308  DGT1308     0.2299
@<TRIPOS>BOND
     1     3     1    2
     2     4     1    1
     3     1     5    1
     4     1     6    1
     5     6     7    1
     6    13    11    2
     7     9     7    2
     8    19    18    1
     9     7     8    1
    10     7    10    1
    11    16    17    1
    12    16    18    1
    13    16    15    1
    14    11    10    1
    15    11    12    1
    16    11    14    1
    17    17    21    1
    18    18    20    1
    19    18     2    1
    20    21    20    1
    21    21    22    1
    22    15    14    1
    23    20     2    1
    24    31    32    2
    25    31    29    2
    26    30    29    1
    27    22    32    1
    28    22    23    1
    29    32    25    1
    30    29    28    2
    31    23    24    1
    32    28    26    2
    33    25    24    2
    34    25    26    1
    35    26    27    2
