@<TRIPOS>MOLECULE
2e2j_G2P_T_1.pdb
 32 34 0 0 0
SMALL
GASTEIGER

@<TRIPOS>ATOM
      1  PG        -0.9650   -3.3860   52.0120 P.3   3000  G2P3000     0.5389
      2  O1G       -0.9340   -4.6650   51.2080 O.2   3000  G2P3000    -0.2220
      3  O2G       -0.9940   -3.6470   53.5090 O.3   3000  G2P3000    -0.1143
      4  O3G       -2.1660   -2.5580   51.6140 O.3   3000  G2P3000    -0.1143
      5  O3B        0.3710   -2.5900   51.6280 O.3   3000  G2P3000    -0.2026
      6  PB         0.5990   -1.1470   52.3060 P.3   3000  G2P3000     0.3895
      7  O1B       -0.7150   -0.5890   52.8160 O.2   3000  G2P3000    -0.2544
      8  O2B        1.6020   -1.1960   53.4440 O.3   3000  G2P3000    -0.1388
      9  C3A        1.0960   -0.0050   50.9310 C.3   3000  G2P3000     0.2357
     10  PA         2.1560   -0.7610   49.6330 P.3   3000  G2P3000     0.3820
     11  O1A        2.1830    0.1400   48.4200 O.2   3000  G2P3000    -0.2548
     12  O2A        1.7200   -2.1760   49.2870 O.3   3000  G2P3000    -0.1392
     13  O5'        3.6150   -0.7130   50.3020 O.3   3000  G2P3000    -0.2896
     14  C5'        4.2030   -1.9040   50.7530 C.3   3000  G2P3000     0.1836
     15  C4'        5.1250   -2.4570   49.6790 C.3   3000  G2P3000     0.1800
     16  O4'        5.4050   -1.5360   48.6430 O.3   3000  G2P3000    -0.3326
     17  C3'        6.4490   -2.7820   50.3070 C.3   3000  G2P3000     0.2158
     18  O3'        6.4220   -4.1600   50.5610 O.3   3000  G2P3000    -0.2175
     19  C2'        7.5070   -2.3070   49.3190 C.3   3000  G2P3000     0.2310
     20  O2'        8.0310   -3.3280   48.5160 O.3   3000  G2P3000    -0.2158
     21  C1'        6.7910   -1.3480   48.3990 C.3   3000  G2P3000     0.2293
     22  N9         7.1740    0.0430   48.7380 N.pl3 3000  G2P3000    -0.2354
     23  C8         6.2960    1.0740   49.0030 C.3   3000  G2P3000     0.2246
     24  N7         6.9840    2.2060   49.2860 N.2   3000  G2P3000    -0.2322
     25  C5         8.3040    1.9170   49.2100 C.2   3000  G2P3000     0.2182
     26  C6         9.4360    2.7030   49.4120 C.1   3000  G2P3000     0.2372
     27  O6         9.3210    3.8960   49.7140 O.2   3000  G2P3000    -0.2069
     28  N1        10.6830    2.1290   49.2720 N.2   3000  G2P3000    -0.2485
     29  C2        10.7930    0.8010   48.9340 C.1   3000  G2P3000     0.2531
     30  N2        11.9890    0.2580   48.8010 N.pl3 3000  G2P3000    -0.0226
     31  N3         9.6740    0.0280   48.7340 N.2   3000  G2P3000    -0.3074
     32  C4         8.4410    0.5690   48.8660 C.2   3000  G2P3000     0.2300
@<TRIPOS>BOND
     1    21    16    1
     2    21    22    1
     3    21    19    1
     4    11    10    2
     5    20    19    1
     6    16    15    1
     7    31    32    2
     8    31    29    2
     9    22    32    1
    10    22    23    1
    11    30    29    1
    12    32    25    1
    13    29    28    2
    14    23    24    1
    15    25    24    2
    16    25    26    1
    17    28    26    2
    18    12    10    1
    19    19    17    1
    20    26    27    2
    21    10    13    1
    22    10     9    1
    23    15    17    1
    24    15    14    1
    25    13    14    1
    26    17    18    1
    27     9     6    1
    28     2     1    2
    29     4     1    1
    30     5     1    1
    31     5     6    1
    32     1     3    1
    33     6     7    2
    34     6     8    1
