@<TRIPOS>MOLECULE
2e2o_BGC_A_1.pdb
 12 12 0 0 0
SMALL
GASTEIGER

@<TRIPOS>ATOM
      1  C2         8.0930    5.7480   52.8430 C.3   400  BGC400      0.2434
      2  C3         9.1750    5.1850   53.7680 C.3   400  BGC400      0.2199
      3  C4         8.5700    4.6820   55.0790 C.3   400  BGC400      0.2144
      4  C5         7.4080    3.7280   54.7930 C.3   400  BGC400      0.1836
      5  C6         6.6940    3.2940   56.0630 C.3   400  BGC400      0.2142
      6  C1         6.9580    4.7370   52.6750 C.3   400  BGC400      0.3024
      7  O1         5.9360    5.3080   51.9310 O.3   400  BGC400     -0.1869
      8  O2         8.6530    6.0290   51.5710 O.3   400  BGC400     -0.2148
      9  O3        10.1330    6.1930   54.0550 O.3   400  BGC400     -0.2174
     10  O4         9.5690    4.0000   55.8230 O.3   400  BGC400     -0.2176
     11  O5         6.4290    4.3800   53.9560 O.3   400  BGC400     -0.3236
     12  O6         6.2540    4.4130   56.8250 O.3   400  BGC400     -0.2176
@<TRIPOS>BOND
     1     8     1    1
     2     7     6    1
     3     6     1    1
     4     6    11    1
     5     1     2    1
     6     2     9    1
     7     2     3    1
     8    11     4    1
     9     4     3    1
    10     4     5    1
    11     3    10    1
    12     5    12    1
