@<TRIPOS>MOLECULE
2e2p_ADP_A_1.pdb
 27 29 0 0 0
SMALL
GASTEIGER

@<TRIPOS>ATOM
      1  PB         6.6670   -5.0820   28.7580 P.3   600  ADP600      0.5373
      2  O1B        6.8300   -4.5560   27.3790 O.2   600  ADP600     -0.2221
      3  O2B        7.3750   -4.2660   29.7990 O.3   600  ADP600     -0.1143
      4  O3B        5.1520   -5.3240   29.1150 O.3   600  ADP600     -0.1143
      5  PA         8.3280   -7.2220   27.7080 P.3   600  ADP600      0.2231
      6  O1A        9.2910   -6.2070   27.1310 O.2   600  ADP600     -0.5169
      7  O2A        8.9700   -8.4390   28.3270 O.3   600  ADP600     -0.4370
      8  O3A        7.3980   -6.5140   28.7590 O.3   600  ADP600     -0.2261
      9  O5'        7.3590   -7.5360   26.4880 O.3   600  ADP600     -0.3111
     10  C5'        6.6750   -8.8270   26.3900 C.3   600  ADP600      0.1813
     11  C4'        5.7130   -8.8750   25.2120 C.3   600  ADP600      0.1821
     12  O4'        6.3840   -9.3200   24.0110 O.3   600  ADP600     -0.3135
     13  C3'        4.4580   -9.7750   25.3390 C.3   600  ADP600      0.2184
     14  O3'        3.3240   -8.9820   24.9460 O.3   600  ADP600     -0.2174
     15  C2'        4.7480  -10.9770   24.4310 C.3   600  ADP600      0.2570
     16  O2'        3.6140  -11.4300   23.6680 O.3   600  ADP600     -0.2130
     17  C1'        5.8340  -10.5090   23.4760 C.3   600  ADP600      0.3186
     18  N9         6.8770  -11.5650   23.2290 N.pl3 600  ADP600     -0.1439
     19  C8         7.7410  -12.1380   24.1060 C.3   600  ADP600      0.3377
     20  N7         8.5360  -13.0580   23.5230 N.2   600  ADP600     -0.2095
     21  C5         8.1390  -13.0560   22.2210 C.2   600  ADP600      0.2526
     22  C6         8.5990  -13.8130   21.0660 C.2   600  ADP600      0.4393
     23  N6         9.5290  -14.7100   21.0600 N.pl3 600  ADP600      0.2180
     24  N1         7.9260  -13.5100   19.8890 N.2   600  ADP600      0.0021
     25  C2         6.9100  -12.5620   19.8030 C.3   600  ADP600      0.5254
     26  N3         6.4810  -11.8590   20.8550 N.2   600  ADP600     -0.0055
     27  C4         7.1200  -12.1290   22.0220 C.2   600  ADP600      0.3518
@<TRIPOS>BOND
     1    25    24    1
     2    25    26    1
     3    24    22    2
     4    26    27    2
     5    23    22    1
     6    22    21    1
     7    27    21    1
     8    27    18    1
     9    21    20    2
    10    18    17    1
    11    18    19    1
    12    17    12    1
    13    17    15    1
    14    20    19    1
    15    16    15    1
    16    12    11    1
    17    15    13    1
    18    14    13    1
    19    11    13    1
    20    11    10    1
    21    10     9    1
    22     9     5    1
    23     6     5    2
    24     2     1    2
    25     5     7    1
    26     5     8    1
    27     1     8    1
    28     1     4    1
    29     1     3    1
