@<TRIPOS>MOLECULE
2e2q_XYP_A_1.pdb
 10 10 0 0 0
SMALL
GASTEIGER

@<TRIPOS>ATOM
      1  O4A       16.6480   38.9180   25.2640 O.3   300  XYP300     -0.1869
      2  C1B       16.1590   39.5190   24.1140 C.3   300  XYP300      0.3024
      3  C2B       16.3870   38.5920   22.9160 C.3   300  XYP300      0.2434
      4  C3B       15.7340   39.1960   21.6630 C.3   300  XYP300      0.2199
      5  C4B       14.2550   39.4960   21.9300 C.3   300  XYP300      0.2143
      6  C5B       14.1280   40.3800   23.1740 C.3   300  XYP300      0.1804
      7  O2B       17.7820   38.4310   22.7090 O.3   300  XYP300     -0.2148
      8  O3B       15.8540   38.2990   20.5720 O.3   300  XYP300     -0.2174
      9  O4B       13.6890   40.1700   20.8160 O.3   300  XYP300     -0.2176
     10  O5B       14.7560   39.7400   24.3050 O.3   300  XYP300     -0.3237
@<TRIPOS>BOND
     1     8     4    1
     2     9     5    1
     3     4     5    1
     4     4     3    1
     5     5     6    1
     6     7     3    1
     7     3     2    1
     8     6    10    1
     9     2    10    1
    10     2     1    1
