@<TRIPOS>MOLECULE
2e2q_ADP_A_1.pdb
 27 29 0 0 0
SMALL
GASTEIGER

@<TRIPOS>ATOM
      1  PB         8.0460   37.8090   26.9820 P.3   302  ADP302      0.5373
      2  O1B        9.5360   37.7990   27.0790 O.3   302  ADP302     -0.1143
      3  O2B        7.5450   38.2090   25.6330 O.2   302  ADP302     -0.2221
      4  O3B        7.4340   36.4580   27.4880 O.3   302  ADP302     -0.1143
      5  PA         6.2020   39.6890   28.1930 P.3   302  ADP302      0.2231
      6  O1A        6.0930   40.8040   27.1760 O.2   302  ADP302     -0.5169
      7  O2A        5.0820   38.6920   28.1940 O.3   302  ADP302     -0.4370
      8  O3A        7.5850   38.9690   27.9930 O.3   302  ADP302     -0.2261
      9  O5'        6.3950   40.4960   29.5540 O.3   302  ADP302     -0.3111
     10  C5'        6.3430   39.8470   30.8620 C.3   302  ADP302      0.1813
     11  C4'        7.3040   40.5140   31.8420 C.3   302  ADP302      0.1821
     12  O4'        6.9320   41.8870   32.1460 O.3   302  ADP302     -0.3135
     13  C3'        7.5430   39.8330   33.2120 C.3   302  ADP302      0.2184
     14  O3'        8.9630   39.6280   33.3300 O.3   302  ADP302     -0.2174
     15  C2'        6.9450   40.8040   34.2510 C.3   302  ADP302      0.2570
     16  O2'        7.7480   40.9920   35.4220 O.3   302  ADP302     -0.2130
     17  C1'        6.7920   42.1350   33.5260 C.3   302  ADP302      0.3186
     18  N9         5.5270   42.8640   33.8890 N.pl3 302  ADP302     -0.1439
     19  C8         4.2370   42.4690   33.7460 C.3   302  ADP302      0.3377
     20  N7         3.3640   43.3900   34.1970 N.2   302  ADP302     -0.2095
     21  C5         4.1540   44.4040   34.6440 C.2   302  ADP302      0.2526
     22  C6         3.8280   45.6870   35.2470 C.2   302  ADP302      0.4393
     23  N6         2.6450   46.1320   35.4990 N.pl3 302  ADP302      0.2180
     24  N1         4.9390   46.4570   35.5690 N.2   302  ADP302      0.0021
     25  C2         6.2460   46.0520   35.3330 C.3   302  ADP302      0.5254
     26  N3         6.5570   44.8780   34.7800 N.2   302  ADP302     -0.0055
     27  C4         5.4930   44.1010   34.4520 C.2   302  ADP302      0.3518
@<TRIPOS>BOND
     1     3     1    2
     2     1     2    1
     3     1     4    1
     4     1     8    1
     5     6     5    2
     6     8     5    1
     7     5     7    1
     8     5     9    1
     9     9    10    1
    10    10    11    1
    11    11    12    1
    12    11    13    1
    13    12    17    1
    14    13    14    1
    15    13    15    1
    16    17    18    1
    17    17    15    1
    18    19    18    1
    19    19    20    1
    20    18    27    1
    21    20    21    2
    22    15    16    1
    23    27    21    1
    24    27    26    2
    25    21    22    1
    26    26    25    1
    27    22    23    1
    28    22    24    2
    29    25    24    1
