@<TRIPOS>MOLECULE
2e2r_2OH_A_1.pdb
 17 18 0 0 0
SMALL
GASTEIGER

@<TRIPOS>ATOM
      1  O2       -15.4450   -8.5040  -26.0930 O.3   1401  2OH1401    -0.2866
      2  C13      -15.7110   -7.2250  -26.3890 C.ar  1401  2OH1401     0.1957
      3  C12      -14.9260   -6.5570  -27.3240 C.ar  1401  2OH1401     0.0417
      4  C11      -15.1840   -5.2140  -27.6120 C.ar  1401  2OH1401    -0.0007
      5  C14      -16.7690   -6.5360  -25.7910 C.ar  1401  2OH1401     0.0417
      6  C15      -17.0320   -5.1930  -26.0930 C.ar  1401  2OH1401    -0.0007
      7  C4       -16.2410   -4.5020  -27.0230 C.ar  1401  2OH1401    -0.0188
      8  C2       -16.4780   -3.0370  -27.3560 C.3   1401  2OH1401     0.0377
      9  C3       -17.8150   -2.5040  -26.8370 C.3   1401  2OH1401     0.0088
     10  C5       -15.4060   -2.2610  -26.5980 C.3   1401  2OH1401     0.0088
     11  C1       -16.4130   -2.8260  -28.8560 C.ar  1401  2OH1401    -0.0188
     12  C10      -17.4580   -3.3050  -29.6390 C.ar  1401  2OH1401    -0.0007
     13  C9       -17.4560   -3.1530  -31.0140 C.ar  1401  2OH1401     0.0417
     14  C6       -15.3450   -2.1930  -29.4950 C.ar  1401  2OH1401    -0.0007
     15  C7       -15.3570   -2.0410  -30.8900 C.ar  1401  2OH1401     0.0417
     16  C8       -16.4030   -2.5220  -31.6510 C.ar  1401  2OH1401     0.1957
     17  O1       -16.4200   -2.3820  -32.9910 O.3   1401  2OH1401    -0.2866
@<TRIPOS>BOND
     1    17    16    1
     2    16    13   ar
     3    16    15   ar
     4    13    12   ar
     5    15    14   ar
     6    12    11   ar
     7    14    11   ar
     8    11     8    1
     9     4     3   ar
    10     4     7   ar
    11     8     7    1
    12     8     9    1
    13     8    10    1
    14     3     2   ar
    15     7     6   ar
    16     2     1    1
    17     2     5   ar
    18     6     5   ar
