@<TRIPOS>MOLECULE
2e2u_4HL_A_1.pdb
 10 10 0 0 0
SMALL
GASTEIGER

@<TRIPOS>ATOM
      1  C1         3.8470   -1.1310   26.1140 C.3   1382  4HL1382     0.1372
      2  NX1        2.6880   -0.7240   26.9530 N.3   1382  4HL1382    -0.1078
      3  NX2        1.4940   -1.3360   26.5550 N.3   1382  4HL1382    -0.0201
      4  C4'        3.0940   -0.3230   23.7930 C.ar  1382  4HL1382     0.0005
      5  C5'        3.3060    0.4220   22.6050 C.ar  1382  4HL1382     0.0418
      6  C6'        4.5030    1.1690   22.4420 C.ar  1382  4HL1382     0.1957
      7  C1'        5.4910    1.1770   23.4620 C.ar  1382  4HL1382     0.0418
      8  C2'        5.2840    0.4320   24.6540 C.ar  1382  4HL1382     0.0005
      9  C3'        4.0810   -0.3240   24.8280 C.ar  1382  4HL1382    -0.0029
     10  OH'        4.6980    1.8850   21.2950 O.3   1382  4HL1382    -0.2866
@<TRIPOS>BOND
     1    10     6    1
     2     6     5   ar
     3     6     7   ar
     4     5     4   ar
     5     7     8   ar
     6     4     9   ar
     7     8     9   ar
     8     9     1    1
     9     1     2    1
    10     3     2    1
