@<TRIPOS>MOLECULE
2e2y_HEM_A_1.pdb
 43 50 0 0 0
SMALL
GASTEIGER

@<TRIPOS>ATOM
      1  CHA      -20.8660  -32.0210   -3.5840 C.2   154  HEM154      0.0000
      2  CHB      -23.0890  -29.7100    0.0570 C.2   154  HEM154      0.0000
      3  CHC      -21.6560  -25.4420   -1.7420 C.2   154  HEM154      0.0000
      4  CHD      -19.5240  -27.7100   -5.4590 C.2   154  HEM154      0.0000
      5  C1A      -21.5930  -31.7730   -2.4420 C.2   154  HEM154      0.0000
      6  C2A      -22.1950  -32.7780   -1.5850 C.2   154  HEM154      0.0000
      7  C3A      -22.8100  -32.1320   -0.5790 C.2   154  HEM154      0.0000
      8  C4A      -22.6110  -30.7070   -0.7710 C.2   154  HEM154      0.0000
      9  CMA      -23.5930  -32.7640    0.5900 C.3   154  HEM154      0.0000
     10  CAA      -22.1150  -34.3110   -1.8040 C.3   154  HEM154      0.0000
     11  CBA      -21.1130  -34.9270   -0.8060 C.3   154  HEM154      0.0000
     12  CGA      -19.7590  -34.2500   -0.8190 C.2   154  HEM154      0.0000
     13  O1A      -19.0490  -34.3260   -1.8570 O.co2 154  HEM154      0.0000
     14  O2A      -19.3810  -33.6470    0.2210 O.co2 154  HEM154      0.0000
     15  C1B      -22.8880  -28.3460   -0.0900 C.ar  154  HEM154      0.0000
     16  C2B      -23.3450  -27.3020    0.8110 C.ar  154  HEM154      0.0000
     17  C3B      -22.9490  -26.1210    0.3070 C.ar  154  HEM154      0.0000
     18  C4B      -22.2190  -26.3890   -0.9160 C.ar  154  HEM154      0.0000
     19  CMB      -24.1510  -27.5460    2.1110 C.3   154  HEM154      0.0000
     20  CAB      -23.1790  -24.7120    0.8820 C.2   154  HEM154      0.0000
     21  CBB      -24.3280  -24.3860    1.4780 C.2   154  HEM154      0.0000
     22  C1C      -21.0100  -25.6810   -2.9340 C.2   154  HEM154      0.0000
     23  C2C      -20.5610  -24.6710   -3.8760 C.2   154  HEM154      0.0000
     24  C3C      -19.9760  -25.3010   -4.9090 C.2   154  HEM154      0.0000
     25  C4C      -20.0240  -26.7250   -4.6390 C.2   154  HEM154      0.0000
     26  CMC      -20.7710  -23.1570   -3.6540 C.3   154  HEM154      0.0000
     27  CAC      -19.3270  -24.7130   -6.1900 C.2   154  HEM154      0.0000
     28  CBC      -19.3930  -23.4250   -6.5390 C.2   154  HEM154      0.0000
     29  C1D      -19.7030  -29.0610   -5.3150 C.ar  154  HEM154      0.0000
     30  C2D      -19.2540  -30.0560   -6.2560 C.ar  154  HEM154      0.0000
     31  C3D      -19.6690  -31.3950   -5.6810 C.ar  154  HEM154      0.0000
     32  C4D      -20.3380  -31.0830   -4.4390 C.ar  154  HEM154      0.0000
     33  CMD      -18.5130  -29.8410   -7.5870 C.3   154  HEM154      0.0000
     34  CAD      -19.4450  -32.7740   -6.3210 C.3   154  HEM154      0.0000
     35  CBD      -20.5840  -33.0010   -7.3170 C.3   154  HEM154      0.0000
     36  CGD      -20.5420  -34.3780   -7.9380 C.2   154  HEM154      0.0000
     37  O1D      -21.4230  -34.6750   -8.7810 O.co2 154  HEM154      0.0000
     38  O2D      -19.6370  -35.1950   -7.6220 O.co2 154  HEM154      0.0000
     39  NA       -21.8510  -30.5260   -1.9160 N.2   154  HEM154      0.0000
     40  NB       -22.2040  -27.7500   -1.1280 N.ar  154  HEM154      0.0000
     41  NC       -20.6640  -26.9230   -3.4290 N.2   154  HEM154      0.0000
     42  ND       -20.3290  -29.6990   -4.2480 N.ar  154  HEM154      0.0000
     43 FE        -21.1060  -28.7270   -2.5890 Fe    154  HEM154      0.0000
@<TRIPOS>BOND
     1    37    36   ar
     2    36    38   ar
     3    36    35    1
     4    33    30    1
     5    35    34    1
     6    28    27    2
     7    34    31    1
     8    30    31   ar
     9    30    29   ar
    10    27    24    1
    11    31    32   ar
    12     4    29    2
    13     4    25    1
    14    29    42   ar
    15    24    25    1
    16    24    23    2
    17    25    41    2
    18    32    42   ar
    19    32     1    2
    20    42    43    1
    21    23    26    1
    22    23    22    1
    23     1     5    1
    24    41    22    1
    25    41    43    1
    26    22     3    2
    27    43    39    1
    28    43    40    1
    29     5    39    2
    30     5     6    1
    31    39     8    1
    32    13    12   ar
    33    10     6    1
    34    10    11    1
    35     3    18    1
    36     6     7    2
    37    40    18   ar
    38    40    15   ar
    39    18    17   ar
    40    12    11    1
    41    12    14   ar
    42     8     7    1
    43     8     2    2
    44     7     9    1
    45    15     2    1
    46    15    16   ar
    47    17    16   ar
    48    17    20    1
    49    16    19    1
    50    20    21    2
