@<TRIPOS>MOLECULE
2e33_NAG_B_1.pdb
 14 14 0 0 0
SMALL
GASTEIGER

@<TRIPOS>ATOM
      1  C1        16.6260  -41.0420  -53.8080 C.3   1001  NAG1001     0.1665
      2  C2        16.4600  -42.5680  -53.7600 C.3   1001  NAG1001     0.1576
      3  C3        17.8220  -43.1940  -53.6370 C.3   1001  NAG1001     0.2069
      4  C4        18.7350  -42.7230  -54.7500 C.3   1001  NAG1001     0.2134
      5  C5        18.5860  -41.2630  -55.1630 C.3   1001  NAG1001     0.1809
      6  C6        17.8870  -41.1350  -56.5280 C.3   1001  NAG1001     0.2141
      7  C7        14.2560  -42.6820  -52.7710 C.2   1001  NAG1001     0.2420
      8  C8        13.4400  -42.5380  -51.5300 C.3   1001  NAG1001     0.0964
      9  N2        15.5630  -42.9270  -52.6750 N.am  1001  NAG1001    -0.2019
     10  O3        17.6060  -44.5340  -53.8720 O.3   1001  NAG1001    -0.2184
     11  O4        20.0300  -42.9270  -54.3070 O.3   1001  NAG1001    -0.2176
     12  O5        17.8850  -40.5390  -54.1760 O.3   1001  NAG1001    -0.3489
     13  O6        19.0260  -41.2980  -57.3470 O.3   1001  NAG1001    -0.2176
     14  O7        13.6590  -42.5410  -53.8410 O.2   1001  NAG1001    -0.2733
@<TRIPOS>BOND
     1    13     6    1
     2     6     5    1
     3     5     4    1
     4     5    12    1
     5     4    11    1
     6     4     3    1
     7    12     1    1
     8    10     3    1
     9    14     7    2
    10     1     2    1
    11     2     3    1
    12     2     9    1
    13     7     9   am
    14     7     8    1
