@<TRIPOS>MOLECULE
2e37_NAD_A_1.pdb
 44 48 0 0 0
SMALL
GASTEIGER

@<TRIPOS>ATOM
      1  PA        73.7100   66.9800   90.7120 P.3   1401  NAD1401     0.2189
      2  O1A       73.9550   65.9520   89.6610 O.2   1401  NAD1401    -0.5170
      3  O2A       74.8100   67.0980   91.7600 O.3   1401  NAD1401    -0.4371
      4  O5B       73.5080   68.3780   89.9830 O.3   1401  NAD1401    -0.3112
      5  C5B       73.3130   69.5560   90.7390 C.3   1401  NAD1401     0.1813
      6  C4B       73.1780   70.6990   89.5750 C.3   1401  NAD1401     0.1821
      7  O4B       72.9330   71.9950   90.1470 O.3   1401  NAD1401    -0.3135
      8  C3B       74.4870   70.6780   88.7130 C.3   1401  NAD1401     0.2184
      9  O3B       74.2160   70.6270   87.3230 O.3   1401  NAD1401    -0.2174
     10  C2B       75.2210   71.9210   89.2430 C.3   1401  NAD1401     0.2570
     11  O2B       76.2410   72.4920   88.4510 O.3   1401  NAD1401    -0.2130
     12  C1B       74.0180   72.7410   89.5160 C.3   1401  NAD1401     0.3186
     13  N9A       74.2730   73.9900   90.2920 N.pl3 1401  NAD1401    -0.1439
     14  C8A       74.8920   74.1790   91.5170 C.3   1401  NAD1401     0.3377
     15  N7A       74.8890   75.4910   91.8310 N.2   1401  NAD1401    -0.2095
     16  C5A       74.2780   76.1610   90.8360 C.2   1401  NAD1401     0.2526
     17  C6A       73.9630   77.5440   90.5800 C.2   1401  NAD1401     0.4393
     18  N6A       74.2970   78.4880   91.4530 N.pl3 1401  NAD1401     0.2180
     19  N1A       73.2740   77.9120   89.3640 N.2   1401  NAD1401     0.0021
     20  C2A       72.8910   76.9320   88.3920 C.3   1401  NAD1401     0.5254
     21  N3A       73.2010   75.5740   88.6420 N.2   1401  NAD1401    -0.0055
     22  C4A       73.8770   75.2090   89.8370 C.2   1401  NAD1401     0.3518
     23  O3        72.3700   66.6790   91.5390 O.3   1401  NAD1401    -0.2703
     24  PN        71.0000   65.8840   91.2450 P.3   1401  NAD1401     0.2189
     25  O1N       70.3810   66.3320   89.9830 O.2   1401  NAD1401    -0.5170
     26  O2N       71.3880   64.4530   91.3160 O.3   1401  NAD1401    -0.4371
     27  O5D       70.3500   66.3780   92.5930 O.3   1401  NAD1401    -0.3112
     28  C5D       69.8620   67.6970   92.6750 C.3   1401  NAD1401     0.1813
     29  C4D       70.1550   68.2940   94.0240 C.3   1401  NAD1401     0.1799
     30  O4D       69.4720   67.6320   95.0490 O.3   1401  NAD1401    -0.3327
     31  C3D       71.6340   68.2110   94.4590 C.3   1401  NAD1401     0.2158
     32  O3D       72.3740   69.5000   94.3980 O.3   1401  NAD1401    -0.2175
     33  C2D       71.7090   68.0400   95.9070 C.3   1401  NAD1401     0.2309
     34  O2D       72.1230   69.2310   96.5610 O.3   1401  NAD1401    -0.2158
     35  C1D       70.3230   67.4580   96.2060 C.3   1401  NAD1401     0.2263
     36  N1N       70.2770   65.9870   96.5600 N.pl3 1401  NAD1401    -0.2787
     37  C2N       69.6780   65.0330   95.6490 C.3   1401  NAD1401     0.1244
     38  C3N       69.7000   63.6390   95.9970 C.2   1401  NAD1401     0.0544
     39  C7N       69.0570   62.6460   95.0970 C.2   1401  NAD1401     0.2818
     40  O7N       69.1270   61.3470   95.4710 O.2   1401  NAD1401    -0.2670
     41  N7N       68.4380   62.9480   93.9840 N.am  1401  NAD1401    -0.0839
     42  C4N       70.3900   63.2400   97.2560 C.2   1401  NAD1401     0.0033
     43  C5N       71.0310   64.2040   98.1370 C.2   1401  NAD1401     0.0157
     44  C6N       71.0010   65.5830   97.7530 C.2   1401  NAD1401     0.0633
@<TRIPOS>BOND
     1     9     8    1
     2    20    21    1
     3    20    19    1
     4    11    10    1
     5    21    22    2
     6     8    10    1
     7     8     6    1
     8    10    12    1
     9    19    17    2
    10    12     7    1
    11    12    13    1
    12     6     7    1
    13     6     5    1
    14     2     1    2
    15    22    13    1
    16    22    16    1
    17     4     1    1
    18     4     5    1
    19    25    24    2
    20    13    14    1
    21    17    16    1
    22    17    18    1
    23     1    23    1
    24     1     3    1
    25    16    15    2
    26    24    26    1
    27    24    23    1
    28    24    27    1
    29    14    15    1
    30    27    28    1
    31    28    29    1
    32    41    39   am
    33    29    31    1
    34    29    30    1
    35    32    31    1
    36    31    33    1
    37    30    35    1
    38    39    40    2
    39    39    38    1
    40    37    38    1
    41    37    36    1
    42    33    35    1
    43    33    34    1
    44    38    42    2
    45    35    36    1
    46    36    44    1
    47    42    43    1
    48    44    43    2
