@<TRIPOS>MOLECULE
2e39_HEM_A_1.pdb
 43 50 0 0 0
SMALL
GASTEIGER

@<TRIPOS>ATOM
      1  CHA       18.6480   20.0100   28.5520 C.2   401  HEM401      0.0000
      2  CHB       15.2760   23.5060   28.1850 C.2   401  HEM401      0.0000
      3  CHC       18.4580   26.6600   29.9210 C.2   401  HEM401      0.0000
      4  CHD       21.4010   23.0280   31.0480 C.2   401  HEM401      0.0000
      5  C1A       17.4360   20.6720   28.3350 C.ar  401  HEM401      0.0000
      6  C2A       16.1920   20.0230   27.9490 C.ar  401  HEM401      0.0000
      7  C3A       15.2270   20.9870   27.9300 C.ar  401  HEM401      0.0000
      8  C4A       15.8680   22.2430   28.2840 C.ar  401  HEM401      0.0000
      9  CMA       13.7610   20.8690   27.5350 C.3   401  HEM401      0.0000
     10  CAA       15.9650   18.5550   27.7000 C.3   401  HEM401      0.0000
     11  CBA       15.8680   17.7120   28.9500 C.3   401  HEM401      0.0000
     12  CGA       15.5640   16.2730   28.6280 C.2   401  HEM401      0.0000
     13  O1A       16.3170   15.3400   28.9770 O.co2 401  HEM401      0.0000
     14  O2A       14.5370   16.0500   27.9550 O.co2 401  HEM401      0.0000
     15  C1B       15.8720   24.7020   28.5150 C.2   401  HEM401      0.0000
     16  C2B       15.2380   26.0030   28.4710 C.2   401  HEM401      0.0000
     17  C3B       16.1600   26.9450   28.8570 C.2   401  HEM401      0.0000
     18  C4B       17.3550   26.1850   29.2260 C.2   401  HEM401      0.0000
     19  CMB       13.8510   26.1670   27.8710 C.3   401  HEM401      0.0000
     20  CAB       15.8730   28.3220   28.9540 C.3   401  HEM401      0.0000
     21  CBB       16.8390   29.3560   28.9340 C.3   401  HEM401      0.0000
     22  C1C       19.4840   25.9610   30.5180 C.ar  401  HEM401      0.0000
     23  C2C       20.4540   26.4810   31.4690 C.ar  401  HEM401      0.0000
     24  C3C       21.2650   25.4340   31.8580 C.ar  401  HEM401      0.0000
     25  C4C       20.7630   24.2640   31.1320 C.ar  401  HEM401      0.0000
     26  CMC       20.4470   27.9120   31.9590 C.3   401  HEM401      0.0000
     27  CAC       22.2720   25.3510   32.8520 C.3   401  HEM401      0.0000
     28  CBC       23.2680   26.4080   33.0510 C.3   401  HEM401      0.0000
     29  C1D       21.0250   21.9210   30.2840 C.2   401  HEM401      0.0000
     30  C2D       21.7920   20.6990   30.0940 C.2   401  HEM401      0.0000
     31  C3D       21.0010   19.8630   29.3880 C.2   401  HEM401      0.0000
     32  C4D       19.7580   20.5420   29.1660 C.2   401  HEM401      0.0000
     33  CMD       23.2320   20.5320   30.5160 C.3   401  HEM401      0.0000
     34  CAD       21.3470   18.4630   28.9390 C.3   401  HEM401      0.0000
     35  CBD       20.8000   17.3850   29.8870 C.3   401  HEM401      0.0000
     36  CGD       21.1660   15.9730   29.4370 C.2   401  HEM401      0.0000
     37  O1D       20.7350   15.0710   30.1740 O.co2 401  HEM401      0.0000
     38  O2D       22.0070   15.8210   28.5170 O.co2 401  HEM401      0.0000
     39  NA        17.2360   22.0290   28.5240 N.ar  401  HEM401      0.0000
     40  NB        17.1470   24.8180   29.0010 N.2   401  HEM401      0.0000
     41  NC        19.6970   24.5940   30.2980 N.ar  401  HEM401      0.0000
     42  ND        19.7800   21.8170   29.6640 N.2   401  HEM401      0.0000
     43 FE         18.5150   23.3370   29.3480 Fe    401  HEM401      0.0000
@<TRIPOS>BOND
     1     9     7    1
     2    10     6    1
     3    10    11    1
     4    19    16    1
     5     7     6   ar
     6     7     8   ar
     7     6     5   ar
     8    14    12   ar
     9     2     8    2
    10     2    15    1
    11     8    39   ar
    12     5    39   ar
    13     5     1    2
    14    16    15    1
    15    16    17    2
    16    15    40    2
    17    38    36   ar
    18    39    43    1
    19     1    32    1
    20    12    11    1
    21    12    13   ar
    22    17    20    1
    23    17    18    1
    24    21    20    1
    25    34    31    1
    26    34    35    1
    27    40    18    1
    28    40    43    1
    29    32    31    1
    30    32    42    2
    31    18     3    2
    32    43    42    1
    33    43    41    1
    34    31    30    2
    35    36    35    1
    36    36    37   ar
    37    42    29    1
    38     3    22    1
    39    30    29    1
    40    30    33    1
    41    29     4    2
    42    41    22   ar
    43    41    25   ar
    44    22    23   ar
    45     4    25    1
    46    25    24   ar
    47    23    24   ar
    48    23    26    1
    49    24    27    1
    50    27    28    1
