@<TRIPOS>MOLECULE
2e39_MAN_A_1.pdb
 11 11 0 0 0
SMALL
GASTEIGER

@<TRIPOS>ATOM
      1  C1        23.1990    8.4910   12.3960 C.3   404  MAN404      0.1777
      2  C2        21.8100    8.5340   12.8860 C.3   404  MAN404      0.2141
      3  C3        21.7340    8.9060   14.4050 C.3   404  MAN404      0.2173
      4  C4        22.6520    7.9650   15.1600 C.3   404  MAN404      0.2142
      5  C5        24.0460    7.9110   14.6140 C.3   404  MAN404      0.1810
      6  C6        24.8690    6.7740   15.2280 C.3   404  MAN404      0.2141
      7  O2        21.2250    7.2030   12.7780 O.3   404  MAN404     -0.2176
      8  O3        20.4100    8.7850   14.9280 O.3   404  MAN404     -0.2175
      9  O4        22.7640    8.3360   16.5320 O.3   404  MAN404     -0.2176
     10  O5        24.0580    7.6390   13.2000 O.3   404  MAN404     -0.3481
     11  O6        26.2090    6.6090   14.7890 O.3   404  MAN404     -0.2176
@<TRIPOS>BOND
     1     1     2    1
     2     1    10    1
     3     7     2    1
     4     2     3    1
     5    10     5    1
     6     3     8    1
     7     3     4    1
     8     5     4    1
     9     5     6    1
    10    11     6    1
    11     4     9    1
