@<TRIPOS>MOLECULE
2e3a_MAN_A_1.pdb
 11 11 0 0 0
SMALL
GASTEIGER

@<TRIPOS>ATOM
      1  C1        23.1630    8.4130   12.4230 C.3   404  MAN404      0.1777
      2  C2        21.7820    8.4720   12.9370 C.3   404  MAN404      0.2141
      3  C3        21.6980    8.8230   14.4570 C.3   404  MAN404      0.2173
      4  C4        22.6150    7.8910   15.2250 C.3   404  MAN404      0.2142
      5  C5        24.0050    7.8700   14.6700 C.3   404  MAN404      0.1810
      6  C6        24.8240    6.7200   15.2950 C.3   404  MAN404      0.2141
      7  O2        21.1930    7.1680   12.8100 O.3   404  MAN404     -0.2176
      8  O3        20.3880    8.7730   15.0160 O.3   404  MAN404     -0.2175
      9  O4        22.7590    8.3210   16.5920 O.3   404  MAN404     -0.2176
     10  O5        24.0730    7.6100   13.2360 O.3   404  MAN404     -0.3481
     11  O6        26.1720    6.6230   14.8090 O.3   404  MAN404     -0.2176
@<TRIPOS>BOND
     1     1     2    1
     2     1    10    1
     3     7     2    1
     4     2     3    1
     5    10     5    1
     6     3     8    1
     7     3     4    1
     8     5     4    1
     9     5     6    1
    10    11     6    1
    11     4     9    1
