@<TRIPOS>MOLECULE
2e3a_HEM_A_1.pdb
 43 50 0 0 0
SMALL
GASTEIGER

@<TRIPOS>ATOM
      1  CHA       18.6550   19.9600   28.7150 C.2   401  HEM401      0.0000
      2  CHB       15.3150   23.4490   28.3220 C.2   401  HEM401      0.0000
      3  CHC       18.4950   26.5980   30.0910 C.2   401  HEM401      0.0000
      4  CHD       21.4830   22.9660   31.2060 C.2   401  HEM401      0.0000
      5  C1A       17.4510   20.6160   28.4480 C.ar  401  HEM401      0.0000
      6  C2A       16.2000   19.9860   28.0910 C.ar  401  HEM401      0.0000
      7  C3A       15.2560   20.9600   28.0630 C.ar  401  HEM401      0.0000
      8  C4A       15.9310   22.2140   28.3760 C.ar  401  HEM401      0.0000
      9  CMA       13.7960   20.8360   27.6560 C.3   401  HEM401      0.0000
     10  CAA       16.0950   18.5090   27.7960 C.3   401  HEM401      0.0000
     11  CBA       15.9060   17.6840   29.0570 C.3   401  HEM401      0.0000
     12  CGA       15.5610   16.2540   28.6910 C.2   401  HEM401      0.0000
     13  O1A       16.2930   15.3140   29.0670 O.co2 401  HEM401      0.0000
     14  O2A       14.5510   16.0210   28.0370 O.co2 401  HEM401      0.0000
     15  C1B       15.9100   24.6390   28.7100 C.2   401  HEM401      0.0000
     16  C2B       15.3050   25.9400   28.6110 C.2   401  HEM401      0.0000
     17  C3B       16.2380   26.8880   28.9710 C.2   401  HEM401      0.0000
     18  C4B       17.3830   26.0750   29.4310 C.2   401  HEM401      0.0000
     19  CMB       13.9250   26.1560   28.0310 C.3   401  HEM401      0.0000
     20  CAB       16.0320   28.2890   29.1070 C.3   401  HEM401      0.0000
     21  CBB       15.7550   29.2540   28.0920 C.3   401  HEM401      0.0000
     22  C1C       19.5510   25.8830   30.6530 C.ar  401  HEM401      0.0000
     23  C2C       20.5180   26.4160   31.5820 C.ar  401  HEM401      0.0000
     24  C3C       21.3420   25.3810   31.9670 C.ar  401  HEM401      0.0000
     25  C4C       20.8440   24.2080   31.2170 C.ar  401  HEM401      0.0000
     26  CMC       20.5810   27.8490   32.0610 C.3   401  HEM401      0.0000
     27  CAC       22.3560   25.3020   32.9340 C.3   401  HEM401      0.0000
     28  CBC       23.3250   26.3400   33.1690 C.3   401  HEM401      0.0000
     29  C1D       21.0790   21.9010   30.4060 C.2   401  HEM401      0.0000
     30  C2D       21.8150   20.6760   30.1730 C.2   401  HEM401      0.0000
     31  C3D       20.9910   19.8280   29.5300 C.2   401  HEM401      0.0000
     32  C4D       19.7820   20.5140   29.2890 C.2   401  HEM401      0.0000
     33  CMD       23.2270   20.4190   30.6090 C.3   401  HEM401      0.0000
     34  CAD       21.3750   18.4270   29.0680 C.3   401  HEM401      0.0000
     35  CBD       20.8250   17.3040   29.9820 C.3   401  HEM401      0.0000
     36  CGD       21.2030   15.9190   29.5210 C.2   401  HEM401      0.0000
     37  O1D       20.7360   14.9880   30.2200 O.co2 401  HEM401      0.0000
     38  O2D       22.0140   15.7550   28.5940 O.co2 401  HEM401      0.0000
     39  NA        17.2600   21.9850   28.7190 N.ar  401  HEM401      0.0000
     40  NB        17.1790   24.7160   29.2360 N.2   401  HEM401      0.0000
     41  NC        19.7150   24.5020   30.4690 N.ar  401  HEM401      0.0000
     42  ND        19.8350   21.7970   29.7890 N.2   401  HEM401      0.0000
     43 FE         18.5250   23.2570   29.5390 Fe    401  HEM401      0.0000
@<TRIPOS>BOND
     1     9     7    1
     2    10     6    1
     3    10    11    1
     4    19    16    1
     5    14    12   ar
     6     7     6   ar
     7     7     8   ar
     8     6     5   ar
     9    21    20    1
    10     2     8    2
    11     2    15    1
    12     8    39   ar
    13     5     1    2
    14     5    39   ar
    15    38    36   ar
    16    16    15    1
    17    16    17    2
    18    12    11    1
    19    12    13   ar
    20    15    40    2
    21     1    32    1
    22    39    43    1
    23    17    20    1
    24    17    18    1
    25    34    31    1
    26    34    35    1
    27    40    18    1
    28    40    43    1
    29    32    31    1
    30    32    42    2
    31    18     3    2
    32    36    35    1
    33    36    37   ar
    34    31    30    2
    35    43    42    1
    36    43    41    1
    37    42    29    1
    38     3    22    1
    39    30    29    1
    40    30    33    1
    41    29     4    2
    42    41    22   ar
    43    41    25   ar
    44    22    23   ar
    45     4    25    1
    46    25    24   ar
    47    23    24   ar
    48    23    26    1
    49    24    27    1
    50    27    28    1
