@<TRIPOS>MOLECULE
2e3b_MAN_A_1.pdb
 11 11 0 0 0
SMALL
GASTEIGER

@<TRIPOS>ATOM
      1  C1        22.9440    8.4610   12.4020 C.3   404  MAN404      0.1777
      2  C2        21.5600    8.5010   12.9030 C.3   404  MAN404      0.2141
      3  C3        21.4860    8.8670   14.4260 C.3   404  MAN404      0.2173
      4  C4        22.3800    7.8950   15.1670 C.3   404  MAN404      0.2142
      5  C5        23.7720    7.8590   14.6110 C.3   404  MAN404      0.1810
      6  C6        24.6010    6.7270   15.2160 C.3   404  MAN404      0.2141
      7  O2        21.0460    7.1490   12.8360 O.3   404  MAN404     -0.2176
      8  O3        20.1540    8.7610   14.9370 O.3   404  MAN404     -0.2175
      9  O4        22.5180    8.2570   16.5410 O.3   404  MAN404     -0.2176
     10  O5        23.7860    7.5800   13.1960 O.3   404  MAN404     -0.3481
     11  O6        25.9220    6.5770   14.7530 O.3   404  MAN404     -0.2176
@<TRIPOS>BOND
     1     1     2    1
     2     1    10    1
     3     7     2    1
     4     2     3    1
     5    10     5    1
     6     3     8    1
     7     3     4    1
     8     5     4    1
     9     5     6    1
    10    11     6    1
    11     4     9    1
