@<TRIPOS>MOLECULE
2e3b_HEM_A_1.pdb
 43 50 0 0 0
SMALL
GASTEIGER

@<TRIPOS>ATOM
      1  CHA       18.4310   19.8980   28.4460 C.2   401  HEM401      0.0000
      2  CHB       15.1220   23.3210   28.1010 C.2   401  HEM401      0.0000
      3  CHC       18.2710   26.4500   29.8350 C.2   401  HEM401      0.0000
      4  CHD       21.2490   22.8720   30.9480 C.2   401  HEM401      0.0000
      5  C1A       17.2490   20.5320   28.2040 C.ar  401  HEM401      0.0000
      6  C2A       16.0110   19.8640   27.8460 C.ar  401  HEM401      0.0000
      7  C3A       15.0660   20.8220   27.7820 C.ar  401  HEM401      0.0000
      8  C4A       15.6950   22.0790   28.1480 C.ar  401  HEM401      0.0000
      9  CMA       13.6030   20.6930   27.4190 C.3   401  HEM401      0.0000
     10  CAA       15.8990   18.4020   27.5440 C.3   401  HEM401      0.0000
     11  CBA       15.7490   17.6100   28.8290 C.3   401  HEM401      0.0000
     12  CGA       15.3810   16.1740   28.5030 C.2   401  HEM401      0.0000
     13  O1A       16.1180   15.2440   28.8750 O.co2 401  HEM401      0.0000
     14  O2A       14.3690   15.9550   27.8100 O.co2 401  HEM401      0.0000
     15  C1B       15.7220   24.5070   28.4320 C.2   401  HEM401      0.0000
     16  C2B       15.1050   25.8030   28.3290 C.2   401  HEM401      0.0000
     17  C3B       16.0100   26.7310   28.7670 C.2   401  HEM401      0.0000
     18  C4B       17.1750   25.9560   29.1710 C.2   401  HEM401      0.0000
     19  CMB       13.6920   26.0310   27.8280 C.3   401  HEM401      0.0000
     20  CAB       15.7620   28.1410   28.8250 C.3   401  HEM401      0.0000
     21  CBB       16.6870   29.1850   28.6970 C.3   401  HEM401      0.0000
     22  C1C       19.2930   25.7560   30.4290 C.ar  401  HEM401      0.0000
     23  C2C       20.2670   26.2780   31.3450 C.ar  401  HEM401      0.0000
     24  C3C       21.0900   25.2490   31.6880 C.ar  401  HEM401      0.0000
     25  C4C       20.5950   24.0890   30.9720 C.ar  401  HEM401      0.0000
     26  CMC       20.3180   27.7170   31.7760 C.3   401  HEM401      0.0000
     27  CAC       22.1130   25.1440   32.6660 C.3   401  HEM401      0.0000
     28  CBC       23.0560   26.2120   32.8950 C.3   401  HEM401      0.0000
     29  C1D       20.8030   21.7660   30.2190 C.2   401  HEM401      0.0000
     30  C2D       21.5450   20.5500   29.9860 C.2   401  HEM401      0.0000
     31  C3D       20.7610   19.7260   29.2870 C.2   401  HEM401      0.0000
     32  C4D       19.5380   20.4220   29.0550 C.2   401  HEM401      0.0000
     33  CMD       22.9750   20.3440   30.4140 C.3   401  HEM401      0.0000
     34  CAD       21.1060   18.3360   28.8280 C.3   401  HEM401      0.0000
     35  CBD       20.5680   17.2550   29.7720 C.3   401  HEM401      0.0000
     36  CGD       20.9600   15.8610   29.3430 C.2   401  HEM401      0.0000
     37  O1D       20.5120   14.9630   30.0610 O.co2 401  HEM401      0.0000
     38  O2D       21.7570   15.7230   28.3960 O.co2 401  HEM401      0.0000
     39  NA        17.0210   21.8760   28.4710 N.ar  401  HEM401      0.0000
     40  NB        16.9780   24.6060   28.9680 N.2   401  HEM401      0.0000
     41  NC        19.4740   24.4000   30.2180 N.ar  401  HEM401      0.0000
     42  ND        19.5760   21.6730   29.5970 N.2   401  HEM401      0.0000
     43 FE         18.3220   23.1590   29.2200 Fe    401  HEM401      0.0000
@<TRIPOS>BOND
     1     9     7    1
     2    10     6    1
     3    10    11    1
     4     7     6   ar
     5     7     8   ar
     6    14    12   ar
     7    19    16    1
     8     6     5   ar
     9     2     8    2
    10     2    15    1
    11     8    39   ar
    12     5     1    2
    13     5    39   ar
    14    16    15    1
    15    16    17    2
    16    38    36   ar
    17    15    40    2
    18     1    32    1
    19    39    43    1
    20    12    11    1
    21    12    13   ar
    22    21    20    1
    23    17    20    1
    24    17    18    1
    25    34    31    1
    26    34    35    1
    27    40    18    1
    28    40    43    1
    29    32    31    1
    30    32    42    2
    31    18     3    2
    32    43    42    1
    33    43    41    1
    34    31    30    2
    35    36    35    1
    36    36    37   ar
    37    42    29    1
    38     3    22    1
    39    30    29    1
    40    30    33    1
    41    41    22   ar
    42    41    25   ar
    43    29     4    2
    44    22    23   ar
    45     4    25    1
    46    25    24   ar
    47    23    24   ar
    48    23    26    1
    49    24    27    1
    50    27    28    1
