@<TRIPOS>MOLECULE
2e3n_6CM_A_1.pdb
 28 27 0 0 0
SMALL
GASTEIGER

@<TRIPOS>ATOM
      1  O19        9.2550   27.8230   -1.6960 O.2   600  6CM600     -0.2733
      2  C19        9.5270   28.8220   -2.3460 C.2   600  6CM600      0.2415
      3  N2         8.8680   29.9790   -2.2350 N.am  600  6CM600     -0.2015
      4  C2         7.6590   30.1790   -1.4300 C.3   600  6CM600      0.1626
      5  C1         7.3180   31.6780   -1.4020 C.3   600  6CM600      0.2065
      6  O1         6.9530   32.1630   -2.7090 O.3   600  6CM600     -0.2184
      7  C3         6.4810   29.2770   -1.8550 C.3   600  6CM600      0.1961
      8  C4         6.4790   29.0730   -3.3660 C.2   600  6CM600      0.0034
      9  C5         6.3580   27.8710   -3.9420 C.2   600  6CM600     -0.0282
     10  C6         6.3910   27.7480   -5.4490 C.3   600  6CM600      0.0258
     11  C7         5.0350   27.3980   -6.0420 C.3   600  6CM600      0.0047
     12  C8         5.1270   27.2450   -7.5600 C.3   600  6CM600      0.0003
     13  C9         3.7300   27.0230   -8.1300 C.3   600  6CM600      0.0000
     14  C10        3.6390   27.3900   -9.6030 C.3   600  6CM600      0.0000
     15  C11        3.5680   26.1010  -10.4050 C.3   600  6CM600      0.0000
     16  C12        3.8560   26.3460  -11.8820 C.3   600  6CM600      0.0000
     17  C13        4.0490   25.0150  -12.5970 C.3   600  6CM600      0.0000
     18  C14        3.6810   25.1050  -14.0770 C.3   600  6CM600      0.0000
     19  C15        4.7280   25.8540  -14.8910 C.3   600  6CM600      0.0000
     20  C16        4.8900   25.2220  -16.2660 C.3   600  6CM600      0.0000
     21  C17        6.2030   25.6490  -16.9060 C.3   600  6CM600      0.0000
     22  C18        6.2710   25.1660  -18.3380 C.3   600  6CM600      0.0000
     23  O3         6.5720   28.0160   -1.1520 O.3   600  6CM600     -0.2164
     24  C20       10.6420   28.8100   -3.3620 C.3   600  6CM600      0.0868
     25  C21       10.0450   28.3010   -4.6690 C.3   600  6CM600      0.0096
     26  C22       11.1030   28.1160   -5.7450 C.3   600  6CM600      0.0005
     27  C23       10.4640   27.7590   -7.0830 C.3   600  6CM600      0.0000
     28  C24       11.5560   27.4770   -8.1120 C.3   600  6CM600      0.0000
@<TRIPOS>BOND
     1    22    21    1
     2    21    20    1
     3    20    19    1
     4    19    18    1
     5    18    17    1
     6    17    16    1
     7    16    15    1
     8    15    14    1
     9    14    13    1
    10    13    12    1
    11    28    27    1
    12    12    11    1
    13    27    26    1
    14    11    10    1
    15    26    25    1
    16    10     9    1
    17    25    24    1
    18     9     8    2
    19     8     7    1
    20    24     2    1
    21     6     5    1
    22     2     3   am
    23     2     1    2
    24     3     4    1
    25     7     4    1
    26     7    23    1
    27     4     5    1
