@<TRIPOS>MOLECULE
2e3o_16C_A_1.pdb
 38 37 0 0 0
SMALL
GASTEIGER

@<TRIPOS>ATOM
      1  O19       18.3320   -0.2340   -1.8540 O.2   600  16C600     -0.2733
      2  C19       18.2690   -1.2880   -2.4870 C.2   600  16C600      0.2415
      3  N2        19.0740   -2.3410   -2.2910 N.am  600  16C600     -0.2015
      4  C2        20.1500   -2.4100   -1.3030 C.3   600  16C600      0.1626
      5  C1        20.6830   -3.8400   -1.1720 C.3   600  16C600      0.2065
      6  O1        21.2140   -4.3010   -2.4230 O.3   600  16C600     -0.2184
      7  C3        21.2690   -1.3990   -1.5750 C.3   600  16C600      0.1961
      8  C4        21.4440   -1.1930   -3.0770 C.2   600  16C600      0.0034
      9  C5        21.3710   -0.0090   -3.6850 C.2   600  16C600     -0.0282
     10  C6        21.5280    0.0290   -5.1950 C.3   600  16C600      0.0258
     11  C7        22.7070    0.8850   -5.6230 C.3   600  16C600      0.0047
     12  C8        22.7580    1.0440   -7.1390 C.3   600  16C600      0.0003
     13  C9        24.1530    0.6500   -7.6190 C.3   600  16C600      0.0000
     14  C10       24.5730    1.3050   -8.9340 C.3   600  16C600      0.0000
     15  C11       23.5780    1.0810  -10.0650 C.3   600  16C600      0.0000
     16  C12       23.5170   -0.3530  -10.5890 C.3   600  16C600      0.0000
     17  C13       22.1070   -0.6360  -11.1030 C.3   600  16C600      0.0000
     18  C14       21.9450   -2.0370  -11.6780 C.3   600  16C600      0.0000
     19  C15       20.5060   -2.2260  -12.1350 C.3   600  16C600      0.0000
     20  C16       20.3030   -3.5660  -12.8230 C.3   600  16C600      0.0000
     21  C17       18.8480   -3.7760  -13.2160 C.3   600  16C600      0.0000
     22  C18       18.6860   -5.0820  -13.9670 C.3   600  16C600      0.0000
     23  O3        20.8950   -0.1900   -0.9040 O.3   600  16C600     -0.2164
     24  C20       17.2400   -1.4680   -3.5800 C.3   600  16C600      0.0868
     25  C21       17.7130   -0.7380   -4.8350 C.3   600  16C600      0.0096
     26  C22       16.9510   -1.2540   -6.0510 C.3   600  16C600      0.0005
     27  C23       16.9880   -0.2720   -7.2110 C.3   600  16C600      0.0000
     28  C24       18.3690   -0.2080   -7.8340 C.3   600  16C600      0.0000
     29  C25       18.2690    0.2750   -9.2730 C.3   600  16C600      0.0000
     30  C26       19.2380    1.4180   -9.5230 C.3   600  16C600      0.0000
     31  C27       19.1850    1.8040  -10.9930 C.3   600  16C600      0.0000
     32  C28       19.9970    3.0650  -11.2560 C.3   600  16C600      0.0000
     33  C29       20.0440    3.4090  -12.7470 C.3   600  16C600      0.0000
     34  C30       20.9570    2.4910  -13.5660 C.3   600  16C600      0.0000
     35  C31       22.4220    2.6050  -13.1570 C.3   600  16C600      0.0000
     36  C32       23.3370    1.8050  -14.0760 C.3   600  16C600      0.0000
     37  C33       24.7030    2.4770  -14.1750 C.3   600  16C600      0.0000
     38  C34       25.3200    2.2090  -15.5430 C.3   600  16C600      0.0000
@<TRIPOS>BOND
     1    38    37    1
     2    37    36    1
     3    36    35    1
     4    22    21    1
     5    34    35    1
     6    34    33    1
     7    21    20    1
     8    20    19    1
     9    33    32    1
    10    19    18    1
    11    18    17    1
    12    32    31    1
    13    17    16    1
    14    31    30    1
    15    16    15    1
    16    15    14    1
    17    30    29    1
    18    29    28    1
    19    14    13    1
    20    28    27    1
    21    13    12    1
    22    27    26    1
    23    12    11    1
    24    26    25    1
    25    11    10    1
    26    10     9    1
    27    25    24    1
    28     9     8    2
    29    24     2    1
    30     8     7    1
    31     2     3   am
    32     2     1    2
    33     6     5    1
    34     3     4    1
    35     7     4    1
    36     7    23    1
    37     4     5    1
