@<TRIPOS>MOLECULE
2e3p_16C_A_1.pdb
 38 37 0 0 0
SMALL
GASTEIGER

@<TRIPOS>ATOM
      1  O19       37.5090   38.5350   27.6660 O.2   600  16C600     -0.2733
      2  C19       37.7090   38.3400   26.4670 C.2   600  16C600      0.2415
      3  N2        38.8920   38.5390   25.8700 N.am  600  16C600     -0.2015
      4  C2        40.0710   39.1450   26.4980 C.3   600  16C600      0.1626
      5  C1        41.2570   39.0780   25.5320 C.3   600  16C600      0.2065
      6  O1        41.0750   39.9050   24.3680 O.3   600  16C600     -0.2184
      7  C3        39.8290   40.5490   27.0690 C.3   600  16C600      0.1961
      8  C4        38.8270   41.3020   26.1980 C.2   600  16C600      0.0034
      9  C5        37.7450   41.9440   26.6480 C.2   600  16C600     -0.0282
     10  C6        36.8290   42.6230   25.6400 C.3   600  16C600      0.0258
     11  C7        36.8320   44.1460   25.7640 C.3   600  16C600      0.0047
     12  C8        35.6920   44.7800   24.9680 C.3   600  16C600      0.0003
     13  C9        36.0280   46.2120   24.5550 C.3   600  16C600      0.0000
     14  C10       34.8550   46.9020   23.8530 C.3   600  16C600      0.0000
     15  C11       34.9120   46.7360   22.3320 C.3   600  16C600      0.0000
     16  C12       34.0520   45.5650   21.8530 C.3   600  16C600      0.0000
     17  C13       33.7940   45.5950   20.3470 C.3   600  16C600      0.0000
     18  C14       33.8120   44.1830   19.7720 C.3   600  16C600      0.0000
     19  C15       32.8600   44.0390   18.5920 C.3   600  16C600      0.0000
     20  C16       32.9490   42.6550   17.9630 C.3   600  16C600      0.0000
     21  C17       31.9080   42.4720   16.8630 C.3   600  16C600      0.0000
     22  C18       32.3980   41.5280   15.7870 C.3   600  16C600      0.0000
     23  O3        39.3760   40.4010   28.4260 O.3   600  16C600     -0.2164
     24  C20       36.5890   37.8920   25.5380 C.3   600  16C600      0.0868
     25  C21       35.5840   39.0300   25.4000 C.3   600  16C600      0.0096
     26  C22       34.4640   38.8300   24.3720 C.3   600  16C600      0.0005
     27  C23       33.9740   40.2100   23.9260 C.3   600  16C600      0.0000
     28  C24       32.4560   40.2960   23.8310 C.3   600  16C600      0.0000
     29  C25       32.0360   41.5160   23.0180 C.3   600  16C600      0.0000
     30  C26       31.7540   42.7250   23.9030 C.3   600  16C600      0.0000
     31  C27       30.5420   43.4930   23.3870 C.3   600  16C600      0.0000
     32  C28       30.2960   44.7460   24.2180 C.3   600  16C600      0.0000
     33  C29       29.5870   45.8270   23.4040 C.3   600  16C600      0.0000
     34  C30       30.5570   46.9280   22.9780 C.3   600  16C600      0.0000
     35  C31       30.3880   47.2660   21.4990 C.3   600  16C600      0.0000
     36  C32       31.4020   48.3110   21.0420 C.3   600  16C600      0.0000
     37  C33       30.7580   49.6720   20.8000 C.3   600  16C600      0.0000
     38  C34       30.2100   49.7760   19.3810 C.3   600  16C600      0.0000
@<TRIPOS>BOND
     1    22    21    1
     2    21    20    1
     3    20    19    1
     4    19    18    1
     5    38    37    1
     6    18    17    1
     7    17    16    1
     8    37    36    1
     9    36    35    1
    10    35    34    1
    11    16    15    1
    12    15    14    1
    13    34    33    1
    14    29    28    1
    15    29    30    1
    16    31    30    1
    17    31    32    1
    18    33    32    1
    19    28    27    1
    20    14    13    1
    21    27    26    1
    22     6     5    1
    23    26    25    1
    24    13    12    1
    25    12    11    1
    26    25    24    1
    27     5     4    1
    28    24     2    1
    29    10    11    1
    30    10     9    1
    31     3     2   am
    32     3     4    1
    33     8     9    2
    34     8     7    1
    35     2     1    2
    36     4     7    1
    37     7    23    1
