@<TRIPOS>MOLECULE
2e3q_18C_A_1.pdb
 40 39 0 0 0
SMALL
GASTEIGER

@<TRIPOS>ATOM
      1  O19       17.7840   -0.7750   -0.6070 O.2   600  18C600     -0.2733
      2  C19       17.6240   -1.9740   -0.9410 C.2   600  18C600      0.2415
      3  N2        18.3490   -3.0290   -0.4780 N.am  600  18C600     -0.2015
      4  C2        19.5620   -2.9840    0.3700 C.3   600  18C600      0.1626
      5  C1        19.9540   -4.3820    0.8520 C.3   600  18C600      0.2065
      6  O1        20.2440   -5.2570   -0.2520 O.3   600  18C600     -0.2184
      7  C3        20.7840   -2.2370   -0.2000 C.3   600  18C600      0.1961
      8  C4        20.7630   -2.0170   -1.7060 C.2   600  18C600      0.0034
      9  C5        20.6230   -0.7890   -2.2620 C.2   600  18C600     -0.0282
     10  C6        20.5660   -0.5210   -3.7660 C.3   600  18C600      0.0258
     11  C7        21.9410   -0.2450   -4.3680 C.3   600  18C600      0.0047
     12  C8        22.0010   -0.5030   -5.8840 C.3   600  18C600      0.0003
     13  C9        23.4080   -0.2750   -6.4730 C.3   600  18C600      0.0000
     14  C10       23.6190   -0.7560   -7.9110 C.3   600  18C600      0.0000
     15  C11       22.2940   -0.9710   -8.6460 C.3   600  18C600      0.0000
     16  C12       22.3500   -2.0030   -9.7850 C.3   600  18C600      0.0000
     17  C13       21.0080   -2.1250  -10.5260 C.3   600  18C600      0.0000
     18  C14       20.2320   -3.3810  -10.1260 C.3   600  18C600      0.0000
     19  C15       18.9520   -3.5430  -10.9490 C.3   600  18C600      0.0000
     20  C16       18.6450   -5.0120  -11.2760 C.3   600  18C600      0.0000
     21  C17       17.2810   -5.1830  -11.9460 C.3   600  18C600      0.0000
     22  C18       17.2460   -6.4680  -12.7370 C.3   600  18C600      0.0000
     23  O3        20.6510   -1.0100    0.4700 O.3   600  18C600     -0.2164
     24  C20       16.5800   -2.4010   -1.9590 C.3   600  18C600      0.0868
     25  C21       16.6380   -1.5710   -3.2500 C.3   600  18C600      0.0096
     26  C22       16.0030   -2.3430   -4.4190 C.3   600  18C600      0.0005
     27  C23       15.8890   -1.5180   -5.6940 C.3   600  18C600      0.0000
     28  C24       17.2580   -1.2920   -6.3190 C.3   600  18C600      0.0000
     29  C25       17.1270   -1.0340   -7.8110 C.3   600  18C600      0.0000
     30  C26       17.9450    0.1840   -8.2170 C.3   600  18C600      0.0000
     31  C27       17.8240    0.4440   -9.7120 C.3   600  18C600      0.0000
     32  C28       18.5850    1.6860  -10.1620 C.3   600  18C600      0.0000
     33  C29       20.0020    1.7310   -9.6110 C.3   600  18C600      0.0000
     34  C30       21.0190    1.7660  -10.7510 C.3   600  18C600      0.0000
     35  C31       22.3510    2.3980  -10.3100 C.3   600  18C600      0.0000
     36  C32       23.6030    1.5570  -10.6060 C.3   600  18C600      0.0000
     37  C33       23.8490    1.2890  -12.0970 C.3   600  18C600      0.0000
     38  C34       23.3490   -0.0770  -12.5710 C.3   600  18C600      0.0000
     39  C35       23.6440   -0.2310  -14.0530 C.3   600  18C600      0.0000
     40  C36       22.3660   -0.2260  -14.8780 C.3   600  18C600      0.0000
@<TRIPOS>BOND
     1    40    39    1
     2    39    38    1
     3    22    21    1
     4    38    37    1
     5    37    36    1
     6    21    20    1
     7    20    19    1
     8    19    18    1
     9    34    35    1
    10    34    33    1
    11    36    35    1
    12    17    18    1
    13    17    16    1
    14    32    31    1
    15    32    33    1
    16    16    15    1
    17    31    30    1
    18    15    14    1
    19    30    29    1
    20    14    13    1
    21    29    28    1
    22    13    12    1
    23    28    27    1
    24    12    11    1
    25    27    26    1
    26    26    25    1
    27    11    10    1
    28    10     9    1
    29    25    24    1
    30     9     8    2
    31    24     2    1
    32     8     7    1
    33     2     1    2
    34     2     3   am
    35     3     4    1
    36     6     5    1
    37     7     4    1
    38     7    23    1
    39     4     5    1
