@<TRIPOS>MOLECULE
2e3t_URC_A_1.pdb
 12 13 0 0 0
SMALL
GASTEIGER

@<TRIPOS>ATOM
      1  N1        29.3010   92.7770  203.7310 N.2   4001  URC4001    -0.2289
      2  C2        29.1320   91.9420  204.7980 C.1   4001  URC4001     0.3754
      3  C6        30.2610   92.5790  202.7760 C.1   4001  URC4001     0.2604
      4  N3        29.9300   90.8590  204.9500 N.2   4001  URC4001    -0.2368
      5  O11       28.2580   92.1710  205.6250 O.2   4001  URC4001    -0.1738
      6  C4        30.9070   90.5800  204.0570 C.1   4001  URC4001     0.2099
      7  C5        31.1420   91.3710  202.9590 C.2   4001  URC4001     0.3262
      8  N9        31.7880   89.6230  203.9870 N.2   4001  URC4001    -0.2373
      9  O13       30.4360   93.3180  201.8080 O.2   4001  URC4001    -0.2051
     10  N7        32.1350   90.8460  202.3060 N.2   4001  URC4001    -0.2823
     11  C8        32.5560   89.7580  202.9250 C.1   4001  URC4001     0.3665
     12  O24       33.4710   89.0250  202.5880 O.2   4001  URC4001    -0.1745
@<TRIPOS>BOND
     1     9     3    2
     2    10    11    2
     3    10     7    2
     4    12    11    2
     5     3     7    1
     6     3     1    2
     7    11     8    2
     8     7     6    1
     9     1     2    2
    10     8     6    2
    11     6     4    2
    12     2     4    2
    13     2     5    2
