@<TRIPOS>MOLECULE
2e3x_GM6_A_1.pdb
 28 29 0 0 0
SMALL
GASTEIGER

@<TRIPOS>ATOM
      1  OAG       54.2800   43.6840   16.6190 O.3   700  GM6700     -0.4026
      2  NAF       54.1280   44.5100   17.6860 N.am  700  GM6700     -0.2030
      3  CAD       54.7550   44.2620   18.8350 C.2   700  GM6700      0.0873
      4  OAE       55.4990   43.3080   19.0310 O.2   700  GM6700     -0.5395
      5  CAC       54.4790   45.2750   19.9430 C.3   700  GM6700      0.0603
      6  CAB       55.4820   46.4360   19.9730 C.3   700  GM6700      0.0845
      7  CAK       55.1070   47.3650   21.1410 C.2   700  GM6700      0.2417
      8  OAL       53.9750   47.8900   21.2030 O.2   700  GM6700     -0.2733
      9  NAM       56.1070   47.5540   22.0430 N.am  700  GM6700     -0.1974
     10  CAN       56.0110   48.4270   23.2470 C.3   700  GM6700      0.1771
     11  CAY       55.8910   49.8850   22.7860 C.2   700  GM6700      0.2616
     12  OAZ       56.4330   50.2570   21.7420 O.2   700  GM6700     -0.2715
     13  NBB       55.2020   50.6860   23.6120 N.am  700  GM6700     -0.2021
     14  CBA       55.9390   51.7380   24.3370 C.3   700  GM6700      0.1386
     15  CAO       57.2790   48.4460   24.0730 C.3   700  GM6700      0.0590
     16  CAP       57.7590   47.1670   24.7500 C.2   700  GM6700      0.0003
     17  CAT       57.6110   45.8900   24.3790 C.2   700  GM6700      0.0943
     18  NAU       58.2110   45.0850   25.2650 N.2   700  GM6700     -0.2482
     19  CAR       58.7720   45.8000   26.2440 C.2   700  GM6700      0.0631
     20  CAV       59.5170   45.4770   27.4000 C.3   700  GM6700      0.0717
     21  CAX       59.9760   46.5180   28.2510 C.2   700  GM6700     -0.0198
     22  CAW       59.6850   47.8730   27.9400 C.2   700  GM6700     -0.0042
     23  CAS       58.9420   48.1790   26.7810 C.2   700  GM6700      0.0006
     24  CAQ       58.4820   47.1260   25.9210 C.2   700  GM6700      0.0115
     25  CAA       55.4520   47.2000   18.6100 C.3   700  GM6700      0.0095
     26  CAH       56.3990   48.4120   18.5260 C.3   700  GM6700      0.0005
     27  CAJ       56.1100   49.2650   17.2850 C.3   700  GM6700      0.0000
     28  CAI       57.8570   47.9440   18.4860 C.3   700  GM6700      0.0000
@<TRIPOS>BOND
     1     1     2    1
     2    27    26    1
     3     2     3   am
     4    28    26    1
     5    26    25    1
     6    25     6    1
     7     3     4    2
     8     3     5    1
     9     5     6    1
    10     6     7    1
    11     7     8    2
    12     7     9   am
    13    12    11    2
    14     9    10    1
    15    11    10    1
    16    11    13   am
    17    10    15    1
    18    13    14    1
    19    15    16    1
    20    17    16    2
    21    17    18    1
    22    16    24    1
    23    18    19    2
    24    24    19    1
    25    24    23    2
    26    19    20    1
    27    23    22    1
    28    20    21    1
    29    22    21    2
