@<TRIPOS>MOLECULE
2e40_LGC_A_1.pdb
 12 12 0 0 0
SMALL
GASTEIGER

@<TRIPOS>ATOM
      1  C1       -22.3000  -16.7460    8.1220 C.2   1001  LGC1001     0.3505
      2  C2       -22.4330  -15.4570    8.9630 C.3   1001  LGC1001     0.2823
      3  O5       -23.1340  -17.8080    8.3380 O.3   1001  LGC1001    -0.4450
      4  O1       -21.4780  -16.8180    7.2470 O.2   1001  LGC1001    -0.2472
      5  O2       -21.1450  -14.9090    9.2250 O.3   1001  LGC1001    -0.2082
      6  C3       -23.1700  -15.6920   10.3210 C.3   1001  LGC1001     0.2270
      7  O3       -23.6110  -14.4310   10.8360 O.3   1001  LGC1001    -0.2169
      8  C4       -24.3780  -16.6280   10.1230 C.3   1001  LGC1001     0.2276
      9  O4       -25.0760  -16.8060   11.3620 O.3   1001  LGC1001    -0.2163
     10  C5       -23.8530  -17.9840    9.5990 C.3   1001  LGC1001     0.2344
     11  C6       -25.0030  -18.9650    9.3780 C.3   1001  LGC1001     0.2281
     12  O6       -25.7530  -18.5770    8.2290 O.3   1001  LGC1001    -0.2163
@<TRIPOS>BOND
     1     4     1    2
     2     1     3    1
     3     1     2    1
     4    12    11    1
     5     3    10    1
     6     2     5    1
     7     2     6    1
     8    11    10    1
     9    10     8    1
    10     8     6    1
    11     8     9    1
    12     6     7    1
