@<TRIPOS>MOLECULE
2e41_BTX_A_1.pdb
 37 41 0 0 0
SMALL
GASTEIGER

@<TRIPOS>ATOM
      1  P        -19.6500  -13.3130   -5.4550 P.3   1301  BTX1301     0.2141
      2  O1P      -18.6260  -14.1790   -6.1660 O.2   1301  BTX1301    -0.5172
      3  O2P      -20.8300  -14.0050   -5.2080 O.3   1301  BTX1301    -0.4373
      4  O5'      -18.9780  -12.7790   -4.2910 O.3   1301  BTX1301    -0.3114
      5  C5'      -19.5390  -11.9010   -3.2650 C.3   1301  BTX1301     0.1813
      6  C4'      -18.5820  -11.9300   -2.1880 C.3   1301  BTX1301     0.1821
      7  O4'      -17.5520  -10.9590   -2.2730 O.3   1301  BTX1301    -0.3135
      8  C3'      -19.2620  -11.7130   -0.8610 C.3   1301  BTX1301     0.2184
      9  O3'      -19.8620  -12.8960   -0.3020 O.3   1301  BTX1301    -0.2174
     10  C2'      -18.1570  -11.0930   -0.0110 C.3   1301  BTX1301     0.2570
     11  O2'      -17.4680  -12.0090    0.7680 O.3   1301  BTX1301    -0.2130
     12  C1'      -17.2430  -10.3980   -0.9810 C.3   1301  BTX1301     0.3186
     13  N9       -17.4400   -8.8770   -1.1620 N.pl3 1301  BTX1301    -0.1439
     14  C8       -18.5590   -8.0700   -0.9050 C.3   1301  BTX1301     0.3377
     15  N7       -18.2950   -6.7670   -1.2190 N.2   1301  BTX1301    -0.2095
     16  C5       -17.0180   -6.7370   -1.6720 C.2   1301  BTX1301     0.2526
     17  C6       -16.2090   -5.6660   -2.1460 C.2   1301  BTX1301     0.4393
     18  N6       -16.6790   -4.4210   -2.1930 N.pl3 1301  BTX1301     0.2180
     19  N1       -14.8720   -5.9770   -2.5650 N.2   1301  BTX1301     0.0021
     20  C2       -14.3320   -7.2770   -2.5360 C.3   1301  BTX1301     0.5254
     21  N3       -15.1480   -8.3390   -2.0640 N.2   1301  BTX1301    -0.0055
     22  C4       -16.4660   -8.0590   -1.6460 C.2   1301  BTX1301     0.3518
     23  CBB      -19.1150  -11.2030   -6.9440 C.3   1301  BTX1301     0.1491
     24  OBB      -20.0390  -12.2290   -6.3590 O.3   1301  BTX1301    -0.3141
     25  CAB      -19.7930  -10.1980   -7.8750 C.3   1301  BTX1301     0.0325
     26  C9B      -19.9910   -8.9740   -7.5660 C.3   1301  BTX1301     0.0026
     27  C8B      -20.6660   -8.1600   -8.6180 C.3   1301  BTX1301     0.0010
     28  C7B      -20.8230   -6.7340   -8.1310 C.3   1301  BTX1301     0.0128
     29  C2B      -21.4850   -5.7500   -9.0870 C.3   1301  BTX1301     0.0729
     30  S1B      -21.5930   -4.0980   -8.4100 S.3   1301  BTX1301    -0.1369
     31  C6B      -22.4250   -3.6240   -9.9410 C.3   1301  BTX1301     0.0848
     32  C5B      -23.5140   -4.7360  -10.0480 C.3   1301  BTX1301     0.1509
     33  N1B      -24.7150   -4.4580   -9.2170 N.2   1301  BTX1301    -0.1859
     34  C3B      -24.8830   -5.4770   -8.3200 C.1   1301  BTX1301     0.2386
     35  O3B      -25.7950   -5.5520   -7.4690 O.2   1301  BTX1301    -0.2023
     36  N2B      -23.9060   -6.4270   -8.4690 N.2   1301  BTX1301    -0.1860
     37  C4B      -22.9750   -6.0750   -9.5350 C.3   1301  BTX1301     0.1500
@<TRIPOS>BOND
     1    32    31    1
     2    32    37    1
     3    32    33    1
     4    31    30    1
     5    37    29    1
     6    37    36    1
     7    33    34    2
     8    29    30    1
     9    29    28    1
    10    27    28    1
    11    27    26    1
    12    36    34    2
    13    34    35    2
    14    25    26    1
    15    25    23    1
    16    23    24    1
    17    24     1    1
    18     2     1    2
    19     1     3    1
    20     1     4    1
    21     4     5    1
    22     5     6    1
    23    19    20    1
    24    19    17    2
    25    20    21    1
    26     7     6    1
    27     7    12    1
    28    18    17    1
    29     6     8    1
    30    17    16    1
    31    21    22    2
    32    16    22    1
    33    16    15    2
    34    22    13    1
    35    15    14    1
    36    13    12    1
    37    13    14    1
    38    12    10    1
    39     8     9    1
    40     8    10    1
    41    10    11    1
