@<TRIPOS>MOLECULE
2e4a_BE2_A_1.pdb
 10 10 0 0 0
SMALL
GASTEIGER

@<TRIPOS>ATOM
      1  C         32.2600   61.4530   17.3100 C.2   352  BE2352      0.3891
      2  O1        32.2620   62.5190   16.6450 O.co2 352  BE2352     -0.2405
      3  O2        32.9210   61.3260   18.3840 O.co2 352  BE2352     -0.2405
      4  C1        31.4420   60.2820   16.8190 C.ar  352  BE2352      0.0965
      5  C2        30.8000   60.2570   15.5720 C.ar  352  BE2352      0.0954
      6  C3        30.0670   59.1380   15.1790 C.ar  352  BE2352      0.0183
      7  N2        30.8570   61.3010   14.7100 N.pl3 352  BE2352     -0.1278
      8  C4        29.9600   58.0430   16.0450 C.ar  352  BE2352      0.0014
      9  C5        30.5890   58.0620   17.2870 C.ar  352  BE2352      0.0003
     10  C6        31.3280   59.1800   17.6670 C.ar  352  BE2352      0.0079
@<TRIPOS>BOND
     1     7     5    1
     2     6     5   ar
     3     6     8   ar
     4     5     4   ar
     5     8     9   ar
     6     2     1   ar
     7     4     1    1
     8     4    10   ar
     9     9    10   ar
    10     1     3   ar
