@<TRIPOS>MOLECULE
2e4g_TRP_A_1.pdb
 15 16 0 0 0
SMALL
GASTEIGER

@<TRIPOS>ATOM
      1  N          0.5240   32.9250   -7.6000 N.3   1001  TRP1001    -0.1205
      2  CA         1.6610   33.2000   -8.5280 C.3   1001  TRP1001     0.1984
      3  C          2.6180   32.0090   -8.4760 C.2   1001  TRP1001     0.3822
      4  O          3.0290   31.5190   -9.5510 O.co2 1001  TRP1001    -0.2440
      5  CB         2.3940   34.4740   -8.0910 C.3   1001  TRP1001     0.0549
      6  CG         3.3960   35.0190   -9.0950 C.2   1001  TRP1001    -0.0138
      7  CD1        3.1250   35.7710  -10.2010 C.2   1001  TRP1001     0.0907
      8  CD2        4.8220   34.8600   -9.0580 C.3   1001  TRP1001     0.0819
      9  NE1        4.2960   36.0970  -10.8560 N.2   1001  TRP1001    -0.2482
     10  CE2        5.3510   35.5490  -10.1750 C.2   1001  TRP1001     0.0665
     11  CE3        5.7060   34.2030   -8.1860 C.2   1001  TRP1001    -0.0164
     12  CZ2        6.7250   35.5990  -10.4480 C.2   1001  TRP1001     0.0153
     13  CZ3        7.0750   34.2540   -8.4550 C.2   1001  TRP1001    -0.0038
     14  CH2        7.5680   34.9480   -9.5790 C.2   1001  TRP1001     0.0009
     15  OXT        2.9440   31.5820   -7.3490 O.co2 1001  TRP1001    -0.2440
@<TRIPOS>BOND
     1     9     7    1
     2     9    10    2
     3    12    10    1
     4    12    14    2
     5     7     6    2
     6    10     8    1
     7    14    13    1
     8     4     3   ar
     9     6     8    1
    10     6     5    1
    11     8    11    1
    12     2     3    1
    13     2     5    1
    14     2     1    1
    15     3    15   ar
    16    13    11    2
