@<TRIPOS>MOLECULE
2e4n_SAH_A_1.pdb
 26 28 0 0 0
SMALL
GASTEIGER

@<TRIPOS>ATOM
      1  N         33.4030   91.5700   66.5920 N.3   1301  SAH1301    -0.1208
      2  CA        31.9330   91.1890   66.4730 C.3   1301  SAH1301     0.1952
      3  CB        31.3170   90.5750   67.6960 C.3   1301  SAH1301     0.0422
      4  CG        31.9480   89.3080   68.2520 C.3   1301  SAH1301     0.0597
      5  SD        30.8450   88.6520   69.5740 S.3   1301  SAH1301    -0.1375
      6  C         31.1500   92.5050   66.0440 C.2   1301  SAH1301     0.3819
      7  O         31.7960   93.5570   65.9070 O.co2 1301  SAH1301    -0.2441
      8  OXT       29.8730   92.3950   65.8530 O.co2 1301  SAH1301    -0.2441
      9  C5'       29.8500   87.5840   68.6100 C.3   1301  SAH1301     0.0899
     10  C4'       28.3830   87.5430   69.1880 C.3   1301  SAH1301     0.1630
     11  O4'       27.7740   88.8350   68.9150 O.3   1301  SAH1301    -0.3153
     12  C3'       27.4920   86.5240   68.5700 C.3   1301  SAH1301     0.2168
     13  O3'       27.6180   85.2730   69.2370 O.3   1301  SAH1301    -0.2175
     14  C2'       26.1090   87.2040   68.7090 C.3   1301  SAH1301     0.2569
     15  O2'       25.5520   87.0040   70.0100 O.3   1301  SAH1301    -0.2130
     16  C1'       26.3860   88.6790   68.3820 C.3   1301  SAH1301     0.3185
     17  N9        26.3310   89.0000   67.0630 N.pl3 1301  SAH1301    -0.1439
     18  C8        27.2800   89.2470   66.0840 C.3   1301  SAH1301     0.3377
     19  N7        26.8070   89.5350   64.9130 N.2   1301  SAH1301    -0.2095
     20  C5        25.4000   89.4930   65.0760 C.2   1301  SAH1301     0.2526
     21  C6        24.3200   89.7250   64.1470 C.2   1301  SAH1301     0.4393
     22  N6        24.4890   90.0480   62.8530 N.pl3 1301  SAH1301     0.2180
     23  N1        23.0620   89.5910   64.6850 N.2   1301  SAH1301     0.0021
     24  C2        22.8280   89.2630   65.9880 C.3   1301  SAH1301     0.5254
     25  N3        23.8270   89.0340   66.9010 N.2   1301  SAH1301    -0.0055
     26  C4        25.0870   89.1660   66.3800 C.2   1301  SAH1301     0.3518
@<TRIPOS>BOND
     1    22    21    1
     2    21    23    2
     3    21    20    1
     4    23    24    1
     5    19    20    2
     6    19    18    1
     7    20    26    1
     8     8     6   ar
     9     7     6   ar
    10    24    25    1
    11     6     2    1
    12    18    17    1
    13    26    25    2
    14    26    17    1
    15     2     1    1
    16     2     3    1
    17    17    16    1
    18     3     4    1
    19     4     5    1
    20    16    14    1
    21    16    11    1
    22    12    14    1
    23    12    10    1
    24    12    13    1
    25     9    10    1
    26     9     5    1
    27    14    15    1
    28    11    10    1
