@<TRIPOS>MOLECULE
2e4p_TRE_A_1.pdb
 23 24 0 0 0
SMALL
GASTEIGER

@<TRIPOS>ATOM
      1  C1        -7.5580   11.1470    2.6630 C.3   2002  TRE2002     0.2713
      2  C2        -7.3260    9.7760    3.3040 C.3   2002  TRE2002     0.2406
      3  C3        -6.1400    9.0760    2.6490 C.3   2002  TRE2002     0.2198
      4  C4        -6.3270    8.9720    1.1400 C.3   2002  TRE2002     0.2144
      5  C5        -6.6080   10.3630    0.5610 C.3   2002  TRE2002     0.1835
      6  C6        -6.8640   10.3330   -0.9470 C.3   2002  TRE2002     0.2142
      7  O1        -6.4550   12.0150    2.9860 O.3   2002  TRE2002    -0.3016
      8  O2        -7.0470    9.9330    4.6940 O.3   2002  TRE2002    -0.2149
      9  O3        -5.9540    7.7760    3.2090 O.3   2002  TRE2002    -0.2174
     10  O4        -5.1290    8.4200    0.5860 O.3   2002  TRE2002    -0.2176
     11  O5        -7.7230   10.9740    1.2450 O.3   2002  TRE2002    -0.3256
     12  O6        -8.2610   10.1340   -1.1850 O.3   2002  TRE2002    -0.2176
     13  C1P       -6.6630   13.4290    2.8220 C.3   2002  TRE2002     0.2713
     14  C2P       -5.3240   14.1570    2.9820 C.3   2002  TRE2002     0.2406
     15  C3P       -4.8280   14.1110    4.4300 C.3   2002  TRE2002     0.2198
     16  C4P       -5.9040   14.6020    5.3930 C.3   2002  TRE2002     0.2144
     17  C5P       -7.2170   13.8560    5.1510 C.3   2002  TRE2002     0.1835
     18  C6P       -8.3350   14.3940    6.0360 C.3   2002  TRE2002     0.2142
     19  O2P       -4.3420   13.5650    2.1240 O.3   2002  TRE2002    -0.2149
     20  O3P       -3.6500   14.9090    4.5980 O.3   2002  TRE2002    -0.2174
     21  O4P       -5.4410   14.4250    6.7390 O.3   2002  TRE2002    -0.2176
     22  O5P       -7.6070   13.9570    3.7700 O.3   2002  TRE2002    -0.3256
     23  O6P       -9.5620   13.7390    5.7000 O.3   2002  TRE2002    -0.2176
@<TRIPOS>BOND
     1    12     6    1
     2     6     5    1
     3     5     4    1
     4     5    11    1
     5    10     4    1
     6     4     3    1
     7    11     1    1
     8    19    14    1
     9     3     9    1
    10     3     2    1
    11     1     7    1
    12     1     2    1
    13    13    14    1
    14    13     7    1
    15    13    22    1
    16    14    15    1
    17     2     8    1
    18    22    17    1
    19    15    20    1
    20    15    16    1
    21    17    16    1
    22    17    18    1
    23    16    21    1
    24    23    18    1
