@<TRIPOS>MOLECULE
2e4r_SAH_A_1.pdb
 26 28 0 0 0
SMALL
GASTEIGER

@<TRIPOS>ATOM
      1  N         33.7810   92.9010   67.3620 N.3   1301  SAH1301    -0.1208
      2  CA        32.3170   92.5050   67.2610 C.3   1301  SAH1301     0.1952
      3  CB        31.6980   91.8370   68.4540 C.3   1301  SAH1301     0.0422
      4  CG        32.3330   90.5670   68.9800 C.3   1301  SAH1301     0.0597
      5  SD        31.1690   89.8680   70.2130 S.3   1301  SAH1301    -0.1375
      6  C         31.5170   93.8120   66.8780 C.2   1301  SAH1301     0.3819
      7  O         32.1530   94.8720   66.7440 O.co2 1301  SAH1301    -0.2441
      8  OXT       30.2320   93.6850   66.7310 O.co2 1301  SAH1301    -0.2441
      9  C5'       30.2320   88.8330   69.1650 C.3   1301  SAH1301     0.0899
     10  C4'       28.7560   88.7240   69.7160 C.3   1301  SAH1301     0.1630
     11  O4'       28.1000   89.9950   69.4640 O.3   1301  SAH1301    -0.3153
     12  C3'       27.9260   87.6730   69.0700 C.3   1301  SAH1301     0.2168
     13  O3'       28.0740   86.4330   69.7510 O.3   1301  SAH1301    -0.2175
     14  C2'       26.5110   88.2860   69.1470 C.3   1301  SAH1301     0.2569
     15  O2'       25.8930   88.0210   70.4160 O.3   1301  SAH1301    -0.2130
     16  C1'       26.7300   89.7860   68.8710 C.3   1301  SAH1301     0.3185
     17  N9        26.6820   90.1430   67.5570 N.pl3 1301  SAH1301    -0.1439
     18  C8        27.6270   90.4210   66.5770 C.3   1301  SAH1301     0.3377
     19  N7        27.1410   90.7360   65.4160 N.2   1301  SAH1301    -0.2095
     20  C5        25.7320   90.6780   65.5900 C.2   1301  SAH1301     0.2526
     21  C6        24.6400   90.9270   64.6720 C.2   1301  SAH1301     0.4393
     22  N6        24.7980   91.2840   63.3860 N.pl3 1301  SAH1301     0.2180
     23  N1        23.3840   90.7700   65.2110 N.2   1301  SAH1301     0.0021
     24  C2        23.1580   90.4050   66.5000 C.3   1301  SAH1301     0.5254
     25  N3        24.1640   90.1590   67.4040 N.2   1301  SAH1301    -0.0055
     26  C4        25.4280   90.3150   66.8800 C.2   1301  SAH1301     0.3518
@<TRIPOS>BOND
     1    22    21    1
     2    21    23    2
     3    21    20    1
     4    23    24    1
     5    19    20    2
     6    19    18    1
     7    20    26    1
     8    24    25    1
     9    18    17    1
    10     8     6   ar
    11     7     6   ar
    12     6     2    1
    13    26    25    2
    14    26    17    1
    15     2     1    1
    16     2     3    1
    17    17    16    1
    18     3     4    1
    19    16    14    1
    20    16    11    1
    21     4     5    1
    22    12    14    1
    23    12    10    1
    24    12    13    1
    25    14    15    1
    26     9    10    1
    27     9     5    1
    28    11    10    1
