@<TRIPOS>MOLECULE
2e4u_GLU_A_1.pdb
 10 9 0 0 0
SMALL
GASTEIGER

@<TRIPOS>ATOM
      1  N         19.3020   -5.5570   50.7310 N.3   701  GLU701     -0.1208
      2  CA        20.2910   -4.4450   50.7090 C.3   701  GLU701      0.1949
      3  C         20.2960   -3.6880   49.3730 C.2   701  GLU701      0.3819
      4  O         20.8590   -2.5720   49.3400 O.co2 701  GLU701     -0.2441
      5  CB        21.6870   -5.0030   51.0090 C.3   701  GLU701      0.0424
      6  CG        21.8610   -5.5150   52.4560 C.3   701  GLU701      0.1161
      7  CD        23.1160   -6.3540   52.6390 C.2   701  GLU701      0.3649
      8  OE1       24.1710   -5.9920   52.0670 O.co2 701  GLU701     -0.2457
      9  OE2       23.0550   -7.3750   53.3630 O.co2 701  GLU701     -0.2457
     10  OXT       19.7420   -4.2030   48.3760 O.co2 701  GLU701     -0.2441
@<TRIPOS>BOND
     1    10     3   ar
     2     4     3   ar
     3     3     2    1
     4     2     1    1
     5     2     5    1
     6     5     6    1
     7     8     7   ar
     8     6     7    1
     9     7     9   ar
