@<TRIPOS>MOLECULE
2e4v_2CG_A_1.pdb
 14 14 0 0 0
SMALL
GASTEIGER

@<TRIPOS>ATOM
      1  N         19.5540   -5.3550   50.7490 N.3   1001  2CG1001    -0.1208
      2  CA        20.5400   -4.2290   50.6640 C.3   1001  2CG1001     0.1954
      3  C         20.3920   -3.5490   49.2930 C.2   1001  2CG1001     0.3819
      4  O         20.8860   -2.4130   49.1460 O.co2 1001  2CG1001    -0.2441
      5  OXT       19.7920   -4.1480   48.3720 O.co2 1001  2CG1001    -0.2441
      6  CB        21.9490   -4.7940   50.8030 C.3   1001  2CG1001     0.0512
      7  CG1       22.2260   -5.1070   52.2460 C.3   1001  2CG1001     0.1166
      8  CD1       23.2330   -6.2120   52.3500 C.2   1001  2CG1001     0.3649
      9  O11       22.9640   -7.2300   53.0210 O.co2 1001  2CG1001    -0.2457
     10  O12       24.3320   -6.1070   51.7680 O.co2 1001  2CG1001    -0.2457
     11  CG2       22.8580   -3.9000   51.6160 C.3   1001  2CG1001     0.1166
     12  CD2       22.1740   -2.6580   52.1470 C.2   1001  2CG1001     0.3649
     13  O21       21.5360   -1.9060   51.3780 O.co2 1001  2CG1001    -0.2457
     14  O22       22.2930   -2.3730   53.3610 O.co2 1001  2CG1001    -0.2457
@<TRIPOS>BOND
     1     5     3   ar
     2     4     3   ar
     3     3     2    1
     4     2     1    1
     5     2     6    1
     6     6    11    1
     7     6     7    1
     8    13    12   ar
     9    11    12    1
    10    11     7    1
    11    10     8   ar
    12    12    14   ar
    13     7     8    1
    14     8     9   ar
