@<TRIPOS>MOLECULE
2e4w_C5A_A_1.pdb
 12 12 0 0 0
SMALL
GASTEIGER

@<TRIPOS>ATOM
      1  N         19.2290   -5.6960   50.3960 N.3   1001  C5A1001    -0.1229
      2  CA        20.3480   -4.7070   50.3920 C.3   1001  C5A1001     0.1704
      3  C         20.3240   -3.7760   49.1730 C.2   1001  C5A1001     0.3800
      4  O         19.7080   -4.1250   48.1510 O.co2 1001  C5A1001    -0.2441
      5  OXT       20.9100   -2.6800   49.2210 O.co2 1001  C5A1001    -0.2441
      6  CB1       21.6220   -5.5300   50.4710 C.3   1001  C5A1001     0.0398
      7  CB2       20.2400   -3.9220   51.6900 C.3   1001  C5A1001     0.0292
      8  CG2       21.1920   -4.6800   52.6950 C.3   1001  C5A1001     0.0133
      9  CD        21.6350   -5.9410   51.9390 C.3   1001  C5A1001     0.1054
     10  CE        23.0150   -6.4130   52.3950 C.2   1001  C5A1001     0.3644
     11  OZ1       23.0990   -7.3140   53.2570 O.co2 1001  C5A1001    -0.2457
     12  OZ2       24.0440   -5.9060   51.9040 O.co2 1001  C5A1001    -0.2457
@<TRIPOS>BOND
     1     4     3   ar
     2     3     5   ar
     3     3     2    1
     4     2     1    1
     5     2     6    1
     6     2     7    1
     7     6     9    1
     8     7     8    1
     9    12    10   ar
    10     9    10    1
    11     9     8    1
    12    10    11   ar
