@<TRIPOS>MOLECULE
2e4x_C5B_A_1.pdb
 12 12 0 0 0
SMALL
GASTEIGER

@<TRIPOS>ATOM
      1  N         19.1360   -5.7470   50.6820 N.3   1001  C5B1001    -0.1229
      2  CA        20.3000   -4.8260   50.6280 C.3   1001  C5B1001     0.1704
      3  C         20.3400   -3.9610   49.3650 C.2   1001  C5B1001     0.3800
      4  O         19.6550   -4.2840   48.3720 O.co2 1001  C5B1001    -0.2441
      5  OXT       21.0630   -2.9480   49.3410 O.co2 1001  C5B1001    -0.2441
      6  CB1       21.5300   -5.7100   50.7420 C.3   1001  C5B1001     0.0398
      7  CB2       20.2150   -3.9530   51.8770 C.3   1001  C5B1001     0.0292
      8  CG2       21.3690   -4.4190   52.7720 C.3   1001  C5B1001     0.0133
      9  CD        22.3730   -5.0270   51.8030 C.3   1001  C5B1001     0.1054
     10  CE        23.2750   -6.0330   52.4950 C.2   1001  C5B1001     0.3644
     11  OZ1       24.4720   -5.7340   52.7040 O.co2 1001  C5B1001    -0.2457
     12  OZ2       22.8110   -7.1410   52.8390 O.co2 1001  C5B1001    -0.2457
@<TRIPOS>BOND
     1     4     3   ar
     2     5     3   ar
     3     3     2    1
     4     2     1    1
     5     2     6    1
     6     2     7    1
     7     6     9    1
     8     9    10    1
     9     9     8    1
    10     7     8    1
    11    10    11   ar
    12    10    12   ar
