@<TRIPOS>MOLECULE
2e4y_52A_A_1.pdb
 12 12 0 0 0
SMALL
GASTEIGER

@<TRIPOS>ATOM
      1  N         19.7840    6.9510   53.3510 N.3   1001  52A1001    -0.1213
      2  CA        21.0060    7.7330   53.1790 C.3   1001  52A1001     0.1876
      3  C         20.9250    8.4220   51.8130 C.2   1001  52A1001     0.3814
      4  O         21.2180    9.6230   51.7080 O.co2 1001  52A1001    -0.2441
      5  OXT       20.5640    7.7730   50.8130 O.co2 1001  52A1001    -0.2441
      6  CB1       22.2380    6.8380   53.2580 C.3   1001  52A1001     0.0590
      7  CB2       21.1970    8.7610   54.3100 C.3   1001  52A1001     0.1178
      8  CG1       23.2600    7.7740   53.8690 C.3   1001  52A1001     0.1778
      9  NG2       22.5480    8.5700   54.8480 N.3   1001  52A1001    -0.2062
     10  CD        24.3330    6.9710   54.5490 C.2   1001  52A1001     0.3803
     11  OE1       25.3700    7.5400   54.9160 O.co2 1001  52A1001    -0.2441
     12  OE2       24.1520    5.7530   54.7400 O.co2 1001  52A1001    -0.2441
@<TRIPOS>BOND
     1     5     3   ar
     2     4     3   ar
     3     3     2    1
     4     2     6    1
     5     2     1    1
     6     2     7    1
     7     6     8    1
     8     8    10    1
     9     8     9    1
    10     7     9    1
    11    10    12   ar
    12    10    11   ar
