@<TRIPOS>MOLECULE
2e50_TRE_A_1.pdb
 23 24 0 0 0
SMALL
GASTEIGER

@<TRIPOS>ATOM
      1  C1       -10.8390    5.7840    0.6160 C.3   226  TRE226      0.2713
      2  C2       -12.1480    6.3740    1.1570 C.3   226  TRE226      0.2406
      3  C3       -12.0400    6.5730    2.6580 C.3   226  TRE226      0.2198
      4  C4       -11.7850    5.2340    3.3240 C.3   226  TRE226      0.2144
      5  C5       -10.4880    4.6710    2.7950 C.3   226  TRE226      0.1835
      6  C6       -10.0920    3.3470    3.4760 C.3   226  TRE226      0.2142
      7  O1        -9.7900    6.6920    0.9550 O.3   226  TRE226     -0.3016
      8  O2       -12.5520    7.5830    0.5830 O.3   226  TRE226     -0.2149
      9  O3       -13.2070    7.1940    3.1690 O.3   226  TRE226     -0.2174
     10  O4       -11.6520    5.3480    4.7450 O.3   226  TRE226     -0.2176
     11  O5       -10.5610    4.5700    1.3670 O.3   226  TRE226     -0.3256
     12  O6        -9.3160    2.6660    2.4780 O.3   226  TRE226     -0.2176
     13  C1P       -8.5730    6.3630    0.3450 C.3   226  TRE226      0.2713
     14  C2P       -7.4550    7.2980    0.8410 C.3   226  TRE226      0.2406
     15  C3P       -7.6180    8.7090    0.2720 C.3   226  TRE226      0.2198
     16  C4P       -7.7310    8.6480   -1.2510 C.3   226  TRE226      0.2144
     17  C5P       -8.9780    7.8360   -1.5400 C.3   226  TRE226      0.1835
     18  C6P       -9.1900    7.7910   -3.0480 C.3   226  TRE226      0.2142
     19  O2P       -7.4840    7.2840    2.2550 O.3   226  TRE226     -0.2149
     20  O3P       -6.5490    9.5330    0.6630 O.3   226  TRE226     -0.2174
     21  O4P       -8.0520    9.9070   -1.8200 O.3   226  TRE226     -0.2176
     22  O5P       -8.8280    6.5050   -1.0440 O.3   226  TRE226     -0.3256
     23  O6P       -8.0630    7.0460   -3.4750 O.3   226  TRE226     -0.2176
@<TRIPOS>BOND
     1    23    18    1
     2    18    17    1
     3    21    16    1
     4    17    16    1
     5    17    22    1
     6    16    15    1
     7    22    13    1
     8    15    20    1
     9    15    14    1
    10    13    14    1
    11    13     7    1
    12     8     2    1
    13     1     7    1
    14     1     2    1
    15     1    11    1
    16    14    19    1
    17     2     3    1
    18    11     5    1
    19    12     6    1
    20     3     9    1
    21     3     4    1
    22     5     4    1
    23     5     6    1
    24     4    10    1
