@<TRIPOS>MOLECULE
2e51_GLA_A_1.pdb
 12 12 0 0 0
SMALL
GASTEIGER

@<TRIPOS>ATOM
      1  C1       129.1280   10.4710   -5.8010 C.3   401  GLA401      0.3024
      2  C2       128.5410    9.4790   -4.7560 C.3   401  GLA401      0.2434
      3  C3       127.9200   10.2480   -3.5640 C.3   401  GLA401      0.2199
      4  C4       128.9620   11.2000   -2.9770 C.3   401  GLA401      0.2144
      5  C5       129.5010   12.1470   -4.0730 C.3   401  GLA401      0.1836
      6  C6       130.5870   13.0720   -3.5210 C.3   401  GLA401      0.2142
      7  O1       128.1150   11.2130   -6.3930 O.3   401  GLA401     -0.1869
      8  O2       127.5500    8.6640   -5.3720 O.3   401  GLA401     -0.2148
      9  O3       127.4280    9.3770   -2.4910 O.3   401  GLA401     -0.2174
     10  O4       130.0250   10.4350   -2.4120 O.3   401  GLA401     -0.2176
     11  O5       130.0710   11.3800   -5.1770 O.3   401  GLA401     -0.3236
     12  O6       131.0830   13.9650   -4.5050 O.3   401  GLA401     -0.2176
@<TRIPOS>BOND
     1     7     1    1
     2     1    11    1
     3     1     2    1
     4     8     2    1
     5    11     5    1
     6     2     3    1
     7    12     6    1
     8     5     6    1
     9     5     4    1
    10     3     4    1
    11     3     9    1
    12     4    10    1
