@<TRIPOS>MOLECULE
2e53_GLA_A_1.pdb
 11 11 0 0 0
SMALL
GASTEIGER

@<TRIPOS>ATOM
      1  C1       126.9860    7.8160   -2.7000 C.3   400  GLA400      0.1777
      2  C2       125.6470    7.4220   -2.0160 C.3   400  GLA400      0.2141
      3  C3       125.7960    7.6640   -0.4880 C.3   400  GLA400      0.2173
      4  C4       126.9540    6.7980    0.0380 C.3   400  GLA400      0.2142
      5  C5       128.2520    7.1700   -0.7260 C.3   400  GLA400      0.1810
      6  C6       129.4200    6.2990   -0.2720 C.3   400  GLA400      0.2141
      7  O2       124.5810    8.2070   -2.5440 O.3   400  GLA400     -0.2176
      8  O3       124.5950    7.3480    0.2010 O.3   400  GLA400     -0.2175
      9  O4       126.6460    5.4130   -0.1470 O.3   400  GLA400     -0.2176
     10  O5       128.0600    7.0020   -2.1670 O.3   400  GLA400     -0.3481
     11  O6       130.6140    6.6400   -0.9630 O.3   400  GLA400     -0.2176
@<TRIPOS>BOND
     1     1    10    1
     2     1     2    1
     3     7     2    1
     4    10     5    1
     5     2     3    1
     6    11     6    1
     7     5     6    1
     8     5     4    1
     9     3     4    1
    10     3     8    1
    11     9     4    1
