@<TRIPOS>MOLECULE
2e54_PLP_A_1.pdb
 16 16 0 0 0
SMALL
GASTEIGER

@<TRIPOS>ATOM
      1  N1        25.2370    8.1790   43.0650 N.ar  1001  PLP1001    -0.2452
      2  C2        24.8750    9.4240   43.4400 C.ar  1001  PLP1001     0.0982
      3  C2A       23.4900    9.9330   43.1170 C.3   1001  PLP1001     0.0555
      4  C3        25.7840   10.2560   44.1320 C.ar  1001  PLP1001     0.2120
      5  O3        25.4330   11.5110   44.5150 O.3   1001  PLP1001    -0.2852
      6  C4        27.0890    9.7500   44.4260 C.ar  1001  PLP1001     0.0822
      7  C4A       28.0970   10.5880   45.1550 C.2   1001  PLP1001     0.2372
      8  O4A       27.9580   11.7890   45.2870 O.2   1001  PLP1001    -0.2830
      9  C5        27.4270    8.4150   44.0070 C.ar  1001  PLP1001     0.0333
     10  C6        26.4640    7.6530   43.3220 C.ar  1001  PLP1001     0.0969
     11  C5A       28.8140    7.9090   44.3430 C.3   1001  PLP1001     0.1819
     12  O4P       28.7130    7.2780   45.6200 O.3   1001  PLP1001    -0.2653
     13  P         30.1480    6.7300   46.0980 P.3   1001  PLP1001     0.5329
     14  O1P       31.0510    7.9090   46.2320 O.3   1001  PLP1001    -0.1145
     15  O2P       29.9520    6.0320   47.5230 O.3   1001  PLP1001    -0.1145
     16  O3P       30.8010    5.7100   45.0690 O.2   1001  PLP1001    -0.2224
@<TRIPOS>BOND
     1     1    10   ar
     2     1     2   ar
     3     3     2    1
     4    10     9   ar
     5     2     4   ar
     6     9    11    1
     7     9     6   ar
     8     4     6   ar
     9     4     5    1
    10    11    12    1
    11     6     7    1
    12    16    13    2
    13     7     8    2
    14    12    13    1
    15    13    14    1
    16    13    15    1
