@<TRIPOS>MOLECULE
2e56_NAG_A_1.pdb
 14 14 0 0 0
SMALL
GASTEIGER

@<TRIPOS>ATOM
      1  C1        18.6750   21.3530   12.2380 C.3   801  NAG801      0.1665
      2  C2        20.0810   21.9680   12.1750 C.3   801  NAG801      0.1576
      3  C3        20.7250   22.0260   10.7880 C.3   801  NAG801      0.2069
      4  C4        20.2450   20.9920    9.7810 C.3   801  NAG801      0.2134
      5  C5        18.8090   20.5290   10.0320 C.3   801  NAG801      0.1809
      6  C6        18.5030   19.3010    9.1830 C.3   801  NAG801      0.2141
      7  C7        20.8200   23.6900   13.6440 C.2   801  NAG801      0.2420
      8  C8        20.9220   25.1610   13.9460 C.3   801  NAG801      0.0964
      9  N2        20.0220   23.3270   12.6590 N.am  801  NAG801     -0.2019
     10  O3        22.1250   21.8750   10.9040 O.3   801  NAG801     -0.2184
     11  O4        20.3770   21.5470    8.4870 O.3   801  NAG801     -0.2176
     12  O5        18.6800   20.2020   11.4060 O.3   801  NAG801     -0.3489
     13  O6        19.2930   18.2000    9.6190 O.3   801  NAG801     -0.2176
     14  O7        21.4430   22.8510   14.2840 O.2   801  NAG801     -0.2733
@<TRIPOS>BOND
     1    11     4    1
     2     6    13    1
     3     6     5    1
     4     4     5    1
     5     4     3    1
     6     5    12    1
     7     3    10    1
     8     3     2    1
     9    12     1    1
    10     2     1    1
    11     2     9    1
    12     9     7   am
    13     7     8    1
    14     7    14    2
