@<TRIPOS>MOLECULE
2e59_LP4_A_1.pdb
 47 47 0 0 0
SMALL
GASTEIGER

@<TRIPOS>ATOM
      1  O48       -1.8230    5.5690   13.5600 O.2   601  LP4601     -0.2224
      2  P45       -1.1610    5.8550   14.8970 P.3   601  LP4601      0.5327
      3  O46       -1.3640    4.8230   15.9890 O.3   601  LP4601     -0.1145
      4  O47        0.2680    6.3350   14.7660 O.3   601  LP4601     -0.1145
      5  O4        -2.0150    7.1330   15.3970 O.3   601  LP4601     -0.2664
      6  C4        -1.7600    7.7610   16.6460 C.3   601  LP4601      0.1973
      7  C5        -2.9230    7.4500   17.5800 C.3   601  LP4601      0.1793
      8  O5        -2.7470    8.1700   18.8010 O.3   601  LP4601     -0.3490
      9  C6        -2.9860    5.9480   17.8670 C.3   601  LP4601      0.2141
     10  O6        -4.3470    5.5110   17.9870 O.3   601  LP4601     -0.2176
     11  C3        -1.5330    9.2570   16.4390 C.3   601  LP4601      0.2209
     12  O3        -0.2790    9.4370   15.7660 O.3   601  LP4601     -0.4477
     13  C28       -0.3520   10.1080   14.4700 C.2   601  LP4601      0.3196
     14  O42       -1.4200   10.5810   14.1030 O.2   601  LP4601     -0.2500
     15  C29        0.8860   10.2140   13.5930 C.3   601  LP4601      0.1423
     16  C30        0.5360    9.9520   12.1210 C.3   601  LP4601      0.1631
     17  O43        1.0970    8.7060   11.6830 O.3   601  LP4601     -0.2225
     18  C31        1.0640   11.0720   11.2280 C.3   601  LP4601      0.0335
     19  C32        2.5640   10.9620   10.9920 C.3   601  LP4601      0.0026
     20  C33        3.1330   12.2970   10.5180 C.3   601  LP4601      0.0001
     21  C34        4.3610   12.7100   11.3290 C.3   601  LP4601      0.0000
     22  C35        4.2480   14.1230   11.9000 C.3   601  LP4601      0.0000
     23  C36        3.8330   15.1290   10.8310 C.3   601  LP4601      0.0000
     24  C37        2.7720   16.0870   11.3690 C.3   601  LP4601      0.0000
     25  C38        1.5170   15.3390   11.8560 C.3   601  LP4601      0.0000
     26  C39        0.6840   16.1340   12.8770 C.3   601  LP4601      0.0000
     27  C40       -0.7110   15.5410   13.0500 C.3   601  LP4601      0.0000
     28  C41       -0.6520   14.0540   13.3410 C.3   601  LP4601      0.0000
     29  C2        -1.5210    9.9770   17.7860 C.3   601  LP4601      0.1671
     30  C1        -2.7400    9.5800   18.6120 C.3   601  LP4601      0.1676
     31  N2        -1.7100   11.3960   17.4990 N.am  601  LP4601     -0.2007
     32  C7        -0.7720   12.2990   17.7470 C.2   601  LP4601      0.2441
     33  O7         0.3090   12.0070   18.2300 O.2   601  LP4601     -0.2733
     34  C8        -1.1000   13.7280   17.3860 C.3   601  LP4601      0.1196
     35  C16       -0.3810   14.6740   18.3340 C.3   601  LP4601      0.1611
     36  O44       -1.2180   14.8460   19.4770 O.3   601  LP4601     -0.2226
     37  C17       -0.1310   16.0200   17.6470 C.3   601  LP4601      0.0334
     38  C18        0.4100   17.0940   18.5900 C.3   601  LP4601      0.0026
     39  C19        1.4660   17.9720   17.9280 C.3   601  LP4601      0.0001
     40  C20        1.2600   19.4470   18.2400 C.3   601  LP4601      0.0000
     41  C21        2.5810   20.1840   18.4300 C.3   601  LP4601      0.0000
     42  C22        2.9540   21.0030   17.2020 C.3   601  LP4601      0.0000
     43  C23        4.0330   20.2660   16.4090 C.3   601  LP4601      0.0000
     44  C24        4.5420   21.0230   15.1800 C.3   601  LP4601      0.0000
     45  C25        3.5690   20.9260   14.0060 C.3   601  LP4601      0.0000
     46  C26        3.6520   19.6050   13.2510 C.3   601  LP4601      0.0000
     47  C27        2.2480   19.2410   12.8280 C.3   601  LP4601      0.0000
@<TRIPOS>BOND
     1    20    19    1
     2    20    21    1
     3    23    24    1
     4    23    22    1
     5    19    18    1
     6    18    16    1
     7    21    22    1
     8    24    25    1
     9    17    16    1
    10    25    26    1
    11    16    15    1
    12    47    46    1
    13    26    27    1
    14    27    28    1
    15    46    45    1
    16     1     2    2
    17    15    13    1
    18    45    44    1
    19    14    13    2
    20    13    12    1
    21     4     2    1
    22     2     5    1
    23     2     3    1
    24    44    43    1
    25     5     6    1
    26    12    11    1
    27    43    42    1
    28    11     6    1
    29    11    29    1
    30     6     7    1
    31    42    41    1
    32    34    32    1
    33    34    35    1
    34    31    32   am
    35    31    29    1
    36     7     9    1
    37     7     8    1
    38    37    35    1
    39    37    38    1
    40    32    33    2
    41    29    30    1
    42     9    10    1
    43    39    40    1
    44    39    38    1
    45    40    41    1
    46    35    36    1
    47    30     8    1
