@<TRIPOS>MOLECULE
2e59_NAG_A_1.pdb
 14 14 0 0 0
SMALL
GASTEIGER

@<TRIPOS>ATOM
      1  C1        18.7940   21.4270   12.4090 C.3   801  NAG801      0.1665
      2  C2        20.1340   22.1510   12.2930 C.3   801  NAG801      0.1576
      3  C3        20.5730   22.4750   10.8670 C.3   801  NAG801      0.2069
      4  C4        20.3520   21.2960    9.9270 C.3   801  NAG801      0.2134
      5  C5        18.9290   20.7880   10.1390 C.3   801  NAG801      0.1809
      6  C6        18.5970   19.6010    9.2480 C.3   801  NAG801      0.2141
      7  C7        21.0830   23.7230   13.7710 C.2   801  NAG801      0.2420
      8  C8        21.3920   25.1930   13.8150 C.3   801  NAG801      0.0964
      9  N2        20.0620   23.3920   13.0110 N.am  801  NAG801     -0.2019
     10  O3        21.9390   22.8430   10.8760 O.3   801  NAG801     -0.2184
     11  O4        20.5710   21.6940    8.5800 O.3   801  NAG801     -0.2176
     12  O5        18.8190   20.3680   11.4800 O.3   801  NAG801     -0.3489
     13  O6        19.3300   18.4950    9.7410 O.3   801  NAG801     -0.2176
     14  O7        21.7300   22.8730   14.3900 O.2   801  NAG801     -0.2733
@<TRIPOS>BOND
     1    11     4    1
     2     6    13    1
     3     6     5    1
     4     4     5    1
     5     4     3    1
     6     5    12    1
     7     3    10    1
     8     3     2    1
     9    12     1    1
    10     2     1    1
    11     2     9    1
    12     9     7   am
    13     7     8    1
    14     7    14    2
