@<TRIPOS>MOLECULE
2e59_LP5_A_1.pdb
 48 48 0 0 0
SMALL
GASTEIGER

@<TRIPOS>ATOM
      1  O48       -5.7040   13.0360   25.5140 O.3   501  LP5501     -0.1145
      2  P45       -4.4730   12.3200   25.0120 P.3   501  LP5501      0.5345
      3  O46       -3.2000   12.6780   25.7370 O.3   501  LP5501     -0.1145
      4  O47       -4.6950   10.8350   24.8170 O.2   501  LP5501     -0.2223
      5  O1        -4.3210   12.9700   23.5370 O.3   501  LP5501     -0.2424
      6  C1        -3.1120   13.0200   22.7820 C.3   501  LP5501      0.2686
      7  C2        -3.3160   14.0190   21.6520 C.3   501  LP5501      0.1942
      8  N2        -3.7430   15.2650   22.2620 N.am  501  LP5501     -0.1981
      9  C7        -2.8930   16.2680   22.4870 C.2   501  LP5501      0.2442
     10  C8        -3.4780   17.5070   23.1330 C.3   501  LP5501      0.1196
     11  C16       -4.0240   18.4370   22.0640 C.3   501  LP5501      0.1611
     12  O44       -5.0140   17.7440   21.3010 O.3   501  LP5501     -0.2226
     13  C17       -2.8940   18.8380   21.1350 C.3   501  LP5501      0.0334
     14  C18       -3.4340   19.8140   20.1070 C.3   501  LP5501      0.0026
     15  C19       -2.6070   21.0890   20.1110 C.3   501  LP5501      0.0001
     16  C20       -2.9850   21.9380   18.9140 C.3   501  LP5501      0.0000
     17  C21       -3.7140   23.2080   19.3150 C.3   501  LP5501      0.0000
     18  C22       -3.1250   24.3660   18.5290 C.3   501  LP5501      0.0000
     19  C23       -4.0140   25.5830   18.6620 C.3   501  LP5501      0.0000
     20  C24       -3.6650   26.6470   17.6430 C.3   501  LP5501      0.0000
     21  C25       -4.7210   27.7370   17.6780 C.3   501  LP5501      0.0000
     22  C26       -4.0580   29.0320   18.0940 C.3   501  LP5501      0.0000
     23  C27       -4.1900   30.0780   17.0200 C.3   501  LP5501      0.0000
     24  O7        -1.7050   16.2170   22.2160 O.2   501  LP5501     -0.2733
     25  C3        -4.5090   13.6020   20.8140 C.3   501  LP5501      0.2262
     26  C4        -4.2820   12.1890   20.2880 C.3   501  LP5501      0.2231
     27  C5        -3.9320   11.2390   21.4390 C.3   501  LP5501      0.1845
     28  O5        -2.8260   11.7450   22.1910 O.3   501  LP5501     -0.3258
     29  C6        -3.6370    9.8140   20.9670 C.3   501  LP5501      0.2142
     30  O6        -2.6510    9.7680   19.9270 O.3   501  LP5501     -0.2176
     31  O4        -5.4510   11.7110   19.5990 O.3   501  LP5501     -0.2165
     32  O3        -4.6310   14.5500   19.7580 O.3   501  LP5501     -0.4475
     33  C28       -5.9880   14.7990   19.2790 C.2   501  LP5501      0.3196
     34  O42       -6.9590   14.2310   19.7750 O.2   501  LP5501     -0.2500
     35  C29       -6.1670   15.7740   18.1390 C.3   501  LP5501      0.1423
     36  C30       -5.1170   16.8750   18.2580 C.3   501  LP5501      0.1631
     37  O43       -5.7170   18.1320   17.9080 O.3   501  LP5501     -0.2225
     38  C31       -3.9210   16.5660   17.3620 C.3   501  LP5501      0.0335
     39  C32       -3.9150   17.4060   16.0880 C.3   501  LP5501      0.0026
     40  C33       -3.6410   18.8810   16.3480 C.3   501  LP5501      0.0001
     41  C34       -3.1660   19.6070   15.0910 C.3   501  LP5501      0.0000
     42  C35       -1.6960   19.3290   14.7880 C.3   501  LP5501      0.0000
     43  C36       -1.1540   20.2720   13.7120 C.3   501  LP5501      0.0000
     44  C37       -0.2050   21.3380   14.2720 C.3   501  LP5501      0.0000
     45  C38       -0.9020   22.6330   14.7210 C.3   501  LP5501      0.0000
     46  C39        0.0970   23.7420   15.0610 C.3   501  LP5501      0.0000
     47  C40       -0.3820   25.0090   14.3710 C.3   501  LP5501      0.0000
     48  C41       -0.2060   26.2080   15.2760 C.3   501  LP5501      0.0000
@<TRIPOS>BOND
     1    43    44    1
     2    43    42    1
     3    44    45    1
     4    47    46    1
     5    47    48    1
     6    45    46    1
     7    42    41    1
     8    41    40    1
     9    39    40    1
    10    39    38    1
    11    23    22    1
    12    38    36    1
    13    20    21    1
    14    20    19    1
    15    21    22    1
    16    37    36    1
    17    35    36    1
    18    35    33    1
    19    18    19    1
    20    18    17    1
    21    16    17    1
    22    16    15    1
    23    33    32    1
    24    33    34    2
    25    31    26    1
    26    32    25    1
    27    30    29    1
    28    14    15    1
    29    14    13    1
    30    26    25    1
    31    26    27    1
    32    25     7    1
    33    29    27    1
    34    13    11    1
    35    12    11    1
    36    27    28    1
    37     7     8    1
    38     7     6    1
    39    11    10    1
    40    28     6    1
    41    24     9    2
    42     8     9   am
    43     9    10    1
    44     6     5    1
    45     5     2    1
    46     4     2    2
    47     2     1    1
    48     2     3    1
