@<TRIPOS>MOLECULE
2e5a_LAQ_A_1.pdb
 34 37 0 0 0
SMALL
GASTEIGER

@<TRIPOS>ATOM
      1  O2P       38.8670   23.9390    6.6210 O.3   2001  LAQ2001    -0.4273
      2  P         39.2100   25.2980    6.0680 P.3   2001  LAQ2001     0.2722
      3  O1P       38.2780   25.9880    5.1190 O.2   2001  LAQ2001    -0.5082
      4  O3P       39.4280   26.2060    7.3790 O.3   2001  LAQ2001    -0.4101
      5  C10       39.7500   27.6180    7.3720 C.2   2001  LAQ2001     0.3210
      6  C11       39.5100   28.3570    8.6740 C.3   2001  LAQ2001     0.1098
      7  C12       40.1700   29.7290    8.6980 C.3   2001  LAQ2001     0.0117
      8  C13       40.3060   30.2240   10.1290 C.3   2001  LAQ2001     0.0015
      9  C14       40.9470   31.6040   10.1670 C.3   2001  LAQ2001     0.0117
     10  C15       41.1670   32.0980   11.5970 C.3   2001  LAQ2001     0.0588
     11  S15       42.3180   31.1450   12.5350 S.3   2001  LAQ2001    -0.0830
     12  S17       42.4720   32.5560   13.9770 S.3   2001  LAQ2001    -0.0821
     13  C17       42.2220   33.9770   12.9670 C.3   2001  LAQ2001     0.0696
     14  C16       41.7530   33.5140   11.5820 C.3   2001  LAQ2001     0.0242
     15  O10       40.2000   28.1480    6.3570 O.2   2001  LAQ2001    -0.2498
     16  O5'       40.6780   25.3060    5.4280 O.3   2001  LAQ2001    -0.3024
     17  C5'       41.7890   24.6480    6.0360 C.3   2001  LAQ2001     0.1823
     18  C4'       42.8350   24.4190    4.9470 C.3   2001  LAQ2001     0.1822
     19  C3'       44.0310   23.5920    5.3870 C.3   2001  LAQ2001     0.2184
     20  O3'       43.7540   22.1950    5.3080 O.3   2001  LAQ2001    -0.2174
     21  C2'       45.1010   24.0380    4.4070 C.3   2001  LAQ2001     0.2570
     22  O2'       44.8000   23.4970    3.1210 O.3   2001  LAQ2001    -0.2130
     23  C1'       44.8050   25.5170    4.2710 C.3   2001  LAQ2001     0.3186
     24  O4'       43.4050   25.6660    4.5400 O.3   2001  LAQ2001    -0.3135
     25  N9        45.5250   26.3750    5.2430 N.pl3 2001  LAQ2001    -0.1439
     26  C8        46.2350   26.0070    6.3300 C.3   2001  LAQ2001     0.3377
     27  N7        46.7250   27.0910    6.9780 N.2   2001  LAQ2001    -0.2095
     28  C5        46.3080   28.1800    6.3040 C.2   2001  LAQ2001     0.2526
     29  C6        46.4560   29.6510    6.4230 C.2   2001  LAQ2001     0.4393
     30  N6        47.1580   30.2170    7.4350 N.pl3 2001  LAQ2001     0.2180
     31  N1        45.8610   30.4210    5.4830 N.2   2001  LAQ2001     0.0021
     32  C2        45.1480   29.9120    4.4660 C.3   2001  LAQ2001     0.5254
     33  N3        44.9800   28.5880    4.3010 N.2   2001  LAQ2001    -0.0055
     34  C4        45.5250   27.6960    5.1640 C.2   2001  LAQ2001     0.3518
@<TRIPOS>BOND
     1    22    21    1
     2    23    21    1
     3    23    24    1
     4    23    25    1
     5    33    32    1
     6    33    34    2
     7    21    19    1
     8    32    31    1
     9    24    18    1
    10    18    19    1
    11    18    17    1
    12     3     2    2
    13    34    25    1
    14    34    28    1
    15    25    26    1
    16    20    19    1
    17    16    17    1
    18    16     2    1
    19    31    29    2
    20     2     1    1
    21     2     4    1
    22    28    29    1
    23    28    27    2
    24    26    27    1
    25    15     5    2
    26    29    30    1
    27     5     4    1
    28     5     6    1
    29     6     7    1
    30     7     8    1
    31     8     9    1
    32     9    10    1
    33    14    10    1
    34    14    13    1
    35    10    11    1
    36    11    12    1
    37    13    12    1
