@<TRIPOS>MOLECULE
2e5c_PRP_A_1.pdb
 22 22 0 0 0
SMALL
GASTEIGER

@<TRIPOS>ATOM
      1  C1        11.2260   11.7460   10.3960 C.3   902  PRP902      0.2742
      2  C2        11.0670   11.6180    8.8900 C.3   902  PRP902      0.2408
      3  C3         9.9760   10.5790    8.6940 C.3   902  PRP902      0.2167
      4  C4         9.8140    9.9110   10.0470 C.3   902  PRP902      0.1808
      5  C5        10.0370    8.4060    9.9830 C.3   902  PRP902      0.1859
      6  O1        10.3930   12.7900   10.8940 O.3   902  PRP902     -0.2857
      7  O2        10.7250   12.8740    8.2900 O.3   902  PRP902     -0.2149
      8  O3         8.7280   11.1910    8.3650 O.3   902  PRP902     -0.2175
      9  O4        10.7570   10.5110   10.9380 O.3   902  PRP902     -0.3255
     10  O5        10.1640    7.9070   11.3160 O.3   902  PRP902     -0.2675
     11  P          8.8770    7.5100   12.2040 P.3   902  PRP902      0.5327
     12  O1P        8.1000    6.5550   11.3290 O.2   902  PRP902     -0.2224
     13  O2P        9.4910    6.8870   13.4320 O.3   902  PRP902     -0.1145
     14  O3P        8.1640    8.8140   12.4780 O.3   902  PRP902     -0.1145
     15  PA        10.9240   13.9110   11.9190 P.3   902  PRP902      0.2249
     16  O1A       10.9180   15.2160   11.1640 O.2   902  PRP902     -0.5169
     17  O2A       12.1890   13.4390   12.5940 O.3   902  PRP902     -0.4370
     18  O3A        9.7660   13.9330   13.0370 O.3   902  PRP902     -0.2260
     19  PB         8.3750   14.7180   12.8310 P.3   902  PRP902      0.5373
     20  O1B        8.7620   16.1770   12.8850 O.3   902  PRP902     -0.1143
     21  O2B        7.5460   14.2570   14.0050 O.3   902  PRP902     -0.1143
     22  O3B        7.8680   14.2590   11.4840 O.2   902  PRP902     -0.2221
@<TRIPOS>BOND
     1     7     2    1
     2     8     3    1
     3     3     2    1
     4     3     4    1
     5     2     1    1
     6     5     4    1
     7     5    10    1
     8     4     9    1
     9     1     6    1
    10     1     9    1
    11     6    15    1
    12    16    15    2
    13    10    11    1
    14    12    11    2
    15    22    19    2
    16    15    17    1
    17    15    18    1
    18    11    14    1
    19    11    13    1
    20    19    20    1
    21    19    18    1
    22    19    21    1
