@<TRIPOS>MOLECULE
2e5m_NAP_A_1.pdb
 48 52 0 0 0
SMALL
GASTEIGER

@<TRIPOS>ATOM
      1  PA       -26.0830   17.8500   24.3960 P.3   450  NAP450      0.2189
      2  O1A      -27.2010   16.8980   24.2520 O.3   450  NAP450     -0.4371
      3  O2A      -24.6470   17.1700   24.1900 O.2   450  NAP450     -0.5170
      4  O5B      -26.1950   19.1080   25.4150 O.3   450  NAP450     -0.3112
      5  C5B      -27.4790   19.2110   26.0750 C.3   450  NAP450      0.1813
      6  C4B      -27.7200   18.2190   27.2520 C.3   450  NAP450      0.1820
      7  O4B      -26.5310   17.4410   27.6610 O.3   450  NAP450     -0.3136
      8  C3B      -28.2450   18.9750   28.5310 C.3   450  NAP450      0.2157
      9  O3B      -29.6320   18.8190   28.7980 O.3   450  NAP450     -0.2175
     10  C2B      -27.2980   18.5280   29.7270 C.3   450  NAP450      0.2314
     11  O2B      -27.9790   17.4950   30.5560 O.3   450  NAP450     -0.2630
     12  C1B      -26.1130   17.8630   29.0190 C.3   450  NAP450      0.3158
     13  N9A      -24.8520   18.7590   28.9950 N.pl3 450  NAP450     -0.1439
     14  C8A      -24.0400   19.0080   27.8900 C.3   450  NAP450      0.3377
     15  N7A      -23.0550   19.7960   28.2290 N.2   450  NAP450     -0.2095
     16  C5A      -23.1520   20.1030   29.5270 C.2   450  NAP450      0.2526
     17  C6A      -22.3700   20.8960   30.4080 C.2   450  NAP450      0.4393
     18  N6A      -21.2390   21.5420   29.9360 N.pl3 450  NAP450      0.2180
     19  N1A      -22.7420   21.0160   31.7250 N.2   450  NAP450      0.0021
     20  C2A      -23.8550   20.3780   32.1990 C.3   450  NAP450      0.5254
     21  N3A      -24.6210   19.6080   31.3690 N.2   450  NAP450     -0.0055
     22  C4A      -24.2950   19.4520   30.0450 C.2   450  NAP450      0.3518
     23  O3       -26.2040   18.6890   22.9260 O.3   450  NAP450     -0.2703
     24  PN       -27.7180   18.8340   22.2300 P.3   450  NAP450      0.2189
     25  O1N      -28.8890   18.9750   23.2510 O.3   450  NAP450     -0.4371
     26  O2N      -27.9950   18.1320   20.8640 O.2   450  NAP450     -0.5170
     27  O5D      -27.5950   20.4510   21.7360 O.3   450  NAP450     -0.3112
     28  C5D      -28.0340   20.7840   20.3780 C.3   450  NAP450      0.1813
     29  C4D      -26.8180   20.9970   19.4340 C.3   450  NAP450      0.1799
     30  O4D      -25.5500   20.5890   20.0530 O.3   450  NAP450     -0.3327
     31  C3D      -26.9640   20.1530   18.1680 C.3   450  NAP450      0.2158
     32  O3D      -27.5610   20.9180   17.0980 O.3   450  NAP450     -0.2175
     33  C2D      -25.5300   19.6820   17.8510 C.3   450  NAP450      0.2309
     34  O2D      -25.0820   20.0920   16.5370 O.3   450  NAP450     -0.2158
     35  C1D      -24.6200   20.2940   18.9720 C.3   450  NAP450      0.2263
     36  N1N      -23.3370   19.5810   19.2870 N.pl3 450  NAP450     -0.2787
     37  C2N      -22.1610   20.1910   18.9490 C.3   450  NAP450      0.1244
     38  C3N      -20.8970   19.5620   19.2250 C.2   450  NAP450      0.0544
     39  C7N      -19.6020   20.2550   18.8390 C.2   450  NAP450      0.2818
     40  O7N      -19.6240   21.3490   18.2920 O.2   450  NAP450     -0.2670
     41  N7N      -18.4150   19.6700   19.0930 N.am  450  NAP450     -0.0839
     42  C4N      -20.8920   18.2650   19.8740 C.2   450  NAP450      0.0033
     43  C5N      -22.1310   17.6490   20.2140 C.2   450  NAP450      0.0157
     44  C6N      -23.3570   18.3230   19.9120 C.2   450  NAP450      0.0633
     45  P2B      -28.7420   18.0750   31.8930 P.3   450  NAP450      0.5328
     46  O1X      -30.0020   18.7270   31.4880 O.2   450  NAP450     -0.2224
     47  O2X      -29.0620   16.8650   32.9030 O.3   450  NAP450     -0.1145
     48  O3X      -27.8000   19.1390   32.6530 O.3   450  NAP450     -0.1145
@<TRIPOS>BOND
     1    34    33    1
     2    32    31    1
     3    33    31    1
     4    33    35    1
     5    31    29    1
     6    40    39    2
     7    39    41   am
     8    39    38    1
     9    37    38    1
    10    37    36    1
    11    35    36    1
    12    35    30    1
    13    38    42    2
    14    36    44    1
    15    29    30    1
    16    29    28    1
    17    42    43    1
    18    44    43    2
    19    28    27    1
    20    26    24    2
    21    27    24    1
    22    24    23    1
    23    24    25    1
    24    23     1    1
    25     3     1    2
    26     2     1    1
    27     1     4    1
    28     4     5    1
    29     5     6    1
    30     6     7    1
    31     6     8    1
    32     7    12    1
    33    14    15    1
    34    14    13    1
    35    15    16    2
    36     8     9    1
    37     8    10    1
    38    13    12    1
    39    13    22    1
    40    12    10    1
    41    16    22    1
    42    16    17    1
    43    10    11    1
    44    18    17    1
    45    22    21    2
    46    17    19    2
    47    11    45    1
    48    21    20    1
    49    46    45    2
    50    19    20    1
    51    45    48    1
    52    45    47    1
