@<TRIPOS>MOLECULE
2e5w_MTA_A_1.pdb
 20 22 0 0 0
SMALL
GASTEIGER

@<TRIPOS>ATOM
      1  CS       -10.0690   15.7690   31.6090 C.3   1003  MTA1003     0.0693
      2  S5'      -11.0470   14.9550   30.3130 S.3   1003  MTA1003    -0.1367
      3  C5'      -12.2900   13.8770   31.1460 C.3   1003  MTA1003     0.0899
      4  C4'      -13.3210   14.5530   32.0920 C.3   1003  MTA1003     0.1630
      5  O4'      -14.2400   13.5930   32.6290 O.3   1003  MTA1003    -0.3153
      6  C2'      -13.7290   14.9090   34.4570 C.3   1003  MTA1003     0.2569
      7  O2'      -14.0840   16.0210   35.2890 O.3   1003  MTA1003    -0.2130
      8  C3'      -12.7280   15.3010   33.3090 C.3   1003  MTA1003     0.2168
      9  O3'      -12.7600   16.7140   33.0660 O.3   1003  MTA1003    -0.2175
     10  C1'      -14.9250   14.3160   33.6610 C.3   1003  MTA1003     0.3185
     11  N9       -15.7800   13.4090   34.4700 N.pl3 1003  MTA1003    -0.1439
     12  C8       -15.3840   12.5170   35.4430 C.3   1003  MTA1003     0.3377
     13  N7       -16.4260   11.8940   35.9390 N.2   1003  MTA1003    -0.2095
     14  C5       -17.5490   12.3360   35.3250 C.2   1003  MTA1003     0.2526
     15  C6       -18.9440   12.0450   35.4290 C.2   1003  MTA1003     0.4393
     16  N6       -19.4070   11.1060   36.3360 N.pl3 1003  MTA1003     0.2180
     17  N1       -19.8090   12.7080   34.6220 N.2   1003  MTA1003     0.0021
     18  C2       -19.3880   13.6250   33.7350 C.3   1003  MTA1003     0.5254
     19  N3       -18.0920   13.9280   33.6050 N.2   1003  MTA1003    -0.0055
     20  C4       -17.1500   13.3170   34.3690 C.2   1003  MTA1003     0.3518
@<TRIPOS>BOND
     1     2     3    1
     2     2     1    1
     3     3     4    1
     4     4     5    1
     5     4     8    1
     6     5    10    1
     7     9     8    1
     8     8     6    1
     9    19    18    1
    10    19    20    2
    11    10     6    1
    12    10    11    1
    13    18    17    1
    14    20    11    1
    15    20    14    1
    16     6     7    1
    17    11    12    1
    18    17    15    2
    19    14    15    1
    20    14    13    2
    21    15    16    1
    22    12    13    1
