@<TRIPOS>MOLECULE
2e5w_AG3_A_1.pdb
 13 12 0 0 0
SMALL
GASTEIGER

@<TRIPOS>ATOM
      1  N         -9.1590   10.8310   30.5350 N.3   1001  AG31001    -0.2180
      2  CA        -8.2620    9.8660   29.8740 C.3   1001  AG31001     0.0888
      3  CB        -8.4120    8.4590   30.4610 C.3   1001  AG31001     0.0225
      4  CG        -7.8580    8.3600   31.8910 C.3   1001  AG31001     0.0484
      5  CD        -6.3230    8.4900   31.9260 C.3   1001  AG31001     0.2205
      6  NE        -5.8200    7.7580   33.1010 N.pl3 1001  AG31001    -0.0865
      7  CZ        -4.4850    7.7460   33.4580 C.cat 1001  AG31001     0.5346
      8  NH1       -3.5820    8.4030   32.7640 N.pl3 1001  AG31001     0.1354
      9  NH2       -4.1070    7.0320   34.5640 N.pl3 1001  AG31001     0.1354
     10  C7        -9.5900   11.7930   29.4940 C.3   1001  AG31001     0.0902
     11  C8        -8.4930   12.8350   29.1910 C.3   1001  AG31001     0.0393
     12  C9        -8.4100   13.1080   27.6790 C.3   1001  AG31001     0.1108
     13  N10       -9.5120   13.6500   27.2420 N.3   1001  AG31001    -0.1313
@<TRIPOS>BOND
     1    13    12    1
     2    12    11    1
     3    11    10    1
     4    10     1    1
     5     2     3    1
     6     2     1    1
     7     3     4    1
     8     4     5    1
     9     5     6    1
    10     8     7    1
    11     6     7    2
    12     7     9    1
