@<TRIPOS>MOLECULE
2e5x_ITT_A_1.pdb
 31 33 0 0 0
SMALL
GASTEIGER

@<TRIPOS>ATOM
      1  PG       -11.1930   37.8680   18.9300 P.3   201  ITT201      0.5373
      2  O1G       -9.7500   38.1610   19.1080 O.3   201  ITT201     -0.1143
      3  O2G      -11.8100   37.4020   20.3300 O.3   201  ITT201     -0.1143
      4  O3G      -11.3530   36.6920   17.8510 O.2   201  ITT201     -0.2221
      5  PB       -13.1120   39.8030   19.2650 P.3   201  ITT201      0.2277
      6  O1B      -13.7140   40.8890   18.4590 O.2   201  ITT201     -0.5168
      7  O2B      -14.2340   38.6950   19.5680 O.3   201  ITT201     -0.4368
      8  O3B      -11.9270   39.1960   18.3250 O.3   201  ITT201     -0.2258
      9  PA       -12.8790   40.0660   22.1140 P.3   201  ITT201      0.2189
     10  O1A      -13.7320   38.8520   22.1350 O.2   201  ITT201     -0.5170
     11  O2A      -11.5390   39.8220   22.9660 O.3   201  ITT201     -0.4371
     12  O3A      -12.4070   40.5080   20.5880 O.3   201  ITT201     -0.2700
     13  O5'      -13.7290   41.3290   22.7760 O.3   201  ITT201     -0.3112
     14  C5'      -14.2160   42.1420   21.6770 C.3   201  ITT201      0.1813
     15  C4'      -14.9810   43.4480   22.0530 C.3   201  ITT201      0.1821
     16  O4'      -14.1710   44.3840   22.8500 O.3   201  ITT201     -0.3135
     17  C3'      -15.4000   44.1590   20.7470 C.3   201  ITT201      0.2184
     18  O3'      -16.8040   44.0870   20.5020 O.3   201  ITT201     -0.2174
     19  C2'      -14.9070   45.6130   20.8460 C.3   201  ITT201      0.2570
     20  O2'      -15.9540   46.5620   20.6620 O.3   201  ITT201     -0.2130
     21  C1'      -14.1910   45.7540   22.2520 C.3   201  ITT201      0.3186
     22  N9       -12.7650   46.3030   22.0920 N.pl3 201  ITT201     -0.1435
     23  C8       -11.6180   45.6260   22.4140 C.3   201  ITT201      0.3382
     24  N7       -10.5750   46.3620   22.1480 N.2   201  ITT201     -0.2054
     25  C5       -10.9790   47.5390   21.6140 C.2   201  ITT201      0.2446
     26  C6       -10.3190   48.7190   21.1400 C.1   201  ITT201      0.1792
     27  O6        -9.0940   48.8140   21.1490 O.2   201  ITT201     -0.2203
     28  N1       -11.0860   49.7550   20.6670 N.2   201  ITT201     -0.1458
     29  C2       -12.4620   49.6580   20.6370 C.3   201  ITT201      0.4017
     30  N3       -13.0840   48.5560   21.0450 N.2   201  ITT201     -0.0334
     31  C4       -12.3890   47.5060   21.5630 C.2   201  ITT201      0.3528
@<TRIPOS>BOND
     1     4     1    2
     2     8     1    1
     3     8     5    1
     4     6     5    2
     5     1     2    1
     6     1     3    1
     7     5     7    1
     8     5    12    1
     9    18    17    1
    10    12     9    1
    11    29    28    1
    12    29    30    1
    13    20    19    1
    14    28    26    2
    15    17    19    1
    16    17    15    1
    17    19    21    1
    18    30    31    2
    19    26    27    2
    20    26    25    1
    21    31    25    1
    22    31    22    1
    23    25    24    2
    24    14    15    1
    25    14    13    1
    26    15    16    1
    27    22    21    1
    28    22    23    1
    29     9    10    2
    30     9    13    1
    31     9    11    1
    32    24    23    1
    33    21    16    1
