@<TRIPOS>MOLECULE
2e5y_ATP_A_1.pdb
 31 33 0 0 0
SMALL
GASTEIGER

@<TRIPOS>ATOM
      1  PG        24.3820   13.9950    9.7310 P.3   1001  ATP1001     0.5373
      2  O1G       23.8720   12.9180   10.6960 O.3   1001  ATP1001    -0.1143
      3  O2G       23.2910   14.9340    9.3410 O.3   1001  ATP1001    -0.1143
      4  O3G       25.1830   13.4800    8.5500 O.2   1001  ATP1001    -0.2221
      5  PB        26.3190   16.1500   10.1240 P.3   1001  ATP1001     0.2277
      6  O1B       26.1120   16.4690    8.6530 O.2   1001  ATP1001    -0.5168
      7  O2B       27.6910   16.1670   10.6880 O.3   1001  ATP1001    -0.4368
      8  O3B       25.5190   14.8130   10.5180 O.3   1001  ATP1001    -0.2258
      9  PA        25.8500   18.7340   11.3740 P.3   1001  ATP1001     0.2189
     10  O1A       27.0770   18.8040   12.2340 O.3   1001  ATP1001    -0.4371
     11  O2A       25.8890   19.5080   10.0700 O.2   1001  ATP1001    -0.5170
     12  O3A       25.4790   17.2150   11.0070 O.3   1001  ATP1001    -0.2700
     13  O5'       24.4920   19.2300   12.1040 O.3   1001  ATP1001    -0.3112
     14  C5'       23.3000   19.5510   11.3900 C.3   1001  ATP1001     0.1813
     15  C4'       22.1560   19.6980   12.3910 C.3   1001  ATP1001     0.1821
     16  O4'       21.7830   18.3960   12.8280 O.3   1001  ATP1001    -0.3135
     17  C3'       22.6790   20.4250   13.6090 C.3   1001  ATP1001     0.2184
     18  O3'       21.4900   21.0480   14.0690 O.3   1001  ATP1001    -0.2174
     19  C2'       22.8330   19.4110   14.7060 C.3   1001  ATP1001     0.2570
     20  O2'       22.6920   19.8860   16.0490 O.3   1001  ATP1001    -0.2130
     21  C1'       22.0670   18.1990   14.2330 C.3   1001  ATP1001     0.3186
     22  N9        22.6830   16.9140   14.4720 N.pl3 1001  ATP1001    -0.1439
     23  C8        23.7800   16.4020   13.6830 C.3   1001  ATP1001     0.3377
     24  N7        24.0280   15.1110   14.2240 N.2   1001  ATP1001    -0.2095
     25  C5        23.2260   14.9010   15.3750 C.2   1001  ATP1001     0.2526
     26  C6        23.0860   13.7380   16.2970 C.2   1001  ATP1001     0.4393
     27  N6        23.6640   12.5210   15.9050 N.pl3 1001  ATP1001     0.2180
     28  N1        22.0020   13.9280   17.2340 N.2   1001  ATP1001     0.0021
     29  C2        21.1440   15.1030   17.3890 C.3   1001  ATP1001     0.5254
     30  N3        21.2840   16.2200   16.4710 N.2   1001  ATP1001    -0.0055
     31  C4        22.3690   16.0590   15.5380 C.2   1001  ATP1001     0.3518
@<TRIPOS>BOND
     1     4     1    2
     2     6     5    2
     3     3     1    1
     4     1     8    1
     5     1     2    1
     6    11     9    2
     7     5     8    1
     8     5     7    1
     9     5    12    1
    10    12     9    1
    11     9    13    1
    12     9    10    1
    13    14    13    1
    14    14    15    1
    15    15    16    1
    16    15    17    1
    17    16    21    1
    18    17    18    1
    19    17    19    1
    20    23    24    1
    21    23    22    1
    22    24    25    2
    23    21    22    1
    24    21    19    1
    25    22    31    1
    26    19    20    1
    27    25    31    1
    28    25    26    1
    29    31    30    2
    30    27    26    1
    31    26    28    2
    32    30    29    1
    33    28    29    1
