@<TRIPOS>MOLECULE
2e68_FMN_A_1.pdb
 31 33 0 0 0
SMALL
GASTEIGER

@<TRIPOS>ATOM
      1  N1        10.0530   47.6160   75.7790 N.2   1350  FMN1350    -0.2887
      2  C2        10.7460   48.1150   74.7110 C.1   1350  FMN1350     0.3669
      3  O2        11.3010   47.3500   73.9200 O.2   1350  FMN1350    -0.1744
      4  N3        10.8590   49.4830   74.5460 N.2   1350  FMN1350    -0.2300
      5  C4        10.2800   50.3860   75.4120 C.1   1350  FMN1350     0.2513
      6  O4        10.5660   51.6000   75.3230 O.2   1350  FMN1350    -0.2057
      7  C4A        9.5770   49.8760   76.4970 C.2   1350  FMN1350     0.2706
      8  N5         8.9840   50.7250   77.4190 N.2   1350  FMN1350    -0.3841
      9  C5A        8.3350   50.2030   78.5250 C.2   1350  FMN1350     0.1452
     10  C6         7.7390   51.0470   79.4600 C.2   1350  FMN1350     0.0252
     11  C7         7.0740   50.5330   80.5760 C.2   1350  FMN1350    -0.0375
     12  C7M        6.7990   51.4800   81.7180 C.3   1350  FMN1350     0.0268
     13  C8         6.9920   49.1420   80.7410 C.3   1350  FMN1350     0.0417
     14  C8M        6.5720   48.5420   82.0570 C.3   1350  FMN1350     0.0091
     15  C9         7.5730   48.2980   79.7940 C.2   1350  FMN1350    -0.0049
     16  C9A        8.2420   48.8180   78.6860 C.2   1350  FMN1350     0.0795
     17  N10        8.8050   47.9730   77.7410 N.pl3 1350  FMN1350    -0.2545
     18  C10        9.4850   48.4920   76.6700 C.2   1350  FMN1350     0.2449
     19  C1'        8.5830   46.4960   77.8070 C.3   1350  FMN1350     0.1336
     20  C2'        9.6810   45.9300   78.7070 C.3   1350  FMN1350     0.2048
     21  O2'       10.9630   46.1800   78.1470 O.3   1350  FMN1350    -0.2185
     22  C3'        9.5410   44.4320   78.9550 C.3   1350  FMN1350     0.2165
     23  O3'        9.7000   43.7900   77.7070 O.3   1350  FMN1350    -0.2175
     24  C4'        8.1970   44.0440   79.5810 C.3   1350  FMN1350     0.2147
     25  O4'        7.8130   45.0040   80.5520 O.3   1350  FMN1350    -0.2176
     26  C5'        8.2320   42.6430   80.1910 C.3   1350  FMN1350     0.1892
     27  O5'        9.1810   42.5510   81.2340 O.3   1350  FMN1350    -0.2674
     28  P          8.7270   42.5680   82.7810 P.3   1350  FMN1350     0.5327
     29  O1P        7.8020   41.3960   83.0080 O.3   1350  FMN1350    -0.1145
     30  O2P       10.0250   42.5170   83.5670 O.3   1350  FMN1350    -0.1145
     31  O3P        7.9750   43.8700   82.9970 O.2   1350  FMN1350    -0.2224
@<TRIPOS>BOND
     1     3     2    2
     2     4     2    2
     3     4     5    2
     4     2     1    2
     5     6     5    2
     6     5     7    1
     7     1    18    2
     8     7    18    1
     9     7     8    2
    10    18    17    1
    11     8     9    2
    12    23    22    1
    13    17    19    1
    14    17    16    1
    15    19    20    1
    16    21    20    1
    17     9    16    1
    18     9    10    1
    19    16    15    2
    20    20    22    1
    21    22    24    1
    22    10    11    2
    23    24    26    1
    24    24    25    1
    25    15    13    1
    26    26    27    1
    27    11    13    1
    28    11    12    1
    29    13    14    1
    30    27    28    1
    31    28    31    2
    32    28    29    1
    33    28    30    1
