@<TRIPOS>MOLECULE
2e68_DOR_A_1.pdb
 11 11 0 0 0
SMALL
GASTEIGER

@<TRIPOS>ATOM
      1  O2         5.3420   47.6490   76.7830 O.2   1353  DOR1353    -0.1881
      2  C2         5.8550   48.4750   76.0220 C.1   1353  DOR1353     0.3067
      3  N1         5.6090   49.7820   76.1650 N.2   1353  DOR1353    -0.1649
      4  N3         6.6590   48.0620   75.0300 N.2   1353  DOR1353    -0.2467
      5  C4         7.1840   48.8490   74.0840 C.1   1353  DOR1353     0.1951
      6  O4         7.9360   48.4300   73.2150 O.2   1353  DOR1353    -0.2133
      7  C5         6.8270   50.3080   74.0920 C.3   1353  DOR1353     0.1724
      8  C6         6.3900   50.8040   75.4650 C.3   1353  DOR1353     0.2370
      9  C7         5.6630   52.0940   75.2510 C.2   1353  DOR1353     0.3887
     10  O72        4.4090   52.0880   75.2220 O.co2 1353  DOR1353    -0.2434
     11  O71        6.3710   53.1180   75.1090 O.co2 1353  DOR1353    -0.2434
@<TRIPOS>BOND
     1     6     5    2
     2     5     7    1
     3     5     4    2
     4     7     8    1
     5     4     2    2
     6    11     9   ar
     7    10     9   ar
     8     9     8    1
     9     8     3    1
    10     2     3    2
    11     2     1    2
