@<TRIPOS>MOLECULE
2e6a_FMN_A_1.pdb
 31 33 0 0 0
SMALL
GASTEIGER

@<TRIPOS>ATOM
      1  N1        10.0680   47.5560   75.6230 N.2   1350  FMN1350    -0.2887
      2  C2        10.7590   48.0550   74.5550 C.1   1350  FMN1350     0.3669
      3  O2        11.3110   47.2680   73.7630 O.2   1350  FMN1350    -0.1744
      4  N3        10.8650   49.4230   74.3980 N.2   1350  FMN1350    -0.2300
      5  C4        10.2770   50.3210   75.2710 C.1   1350  FMN1350     0.2513
      6  O4        10.5530   51.5410   75.1640 O.2   1350  FMN1350    -0.2057
      7  C4A        9.5820   49.8040   76.3630 C.2   1350  FMN1350     0.2706
      8  N5         8.9750   50.6370   77.2920 N.2   1350  FMN1350    -0.3841
      9  C5A        8.3330   50.1020   78.3860 C.2   1350  FMN1350     0.1452
     10  C6         7.7530   50.9710   79.3100 C.2   1350  FMN1350     0.0252
     11  C7         7.0870   50.4510   80.4180 C.2   1350  FMN1350    -0.0375
     12  C7M        6.8010   51.4000   81.5540 C.3   1350  FMN1350     0.0268
     13  C8         6.9880   49.0650   80.6000 C.3   1350  FMN1350     0.0417
     14  C8M        6.6780   48.4940   81.9550 C.3   1350  FMN1350     0.0091
     15  C9         7.5540   48.2040   79.6600 C.2   1350  FMN1350    -0.0049
     16  C9A        8.2380   48.7230   78.5620 C.2   1350  FMN1350     0.0795
     17  N10        8.7810   47.8860   77.6060 N.pl3 1350  FMN1350    -0.2545
     18  C10        9.4820   48.4130   76.5320 C.2   1350  FMN1350     0.2449
     19  C1'        8.5770   46.4020   77.6600 C.3   1350  FMN1350     0.1336
     20  C2'        9.6770   45.8610   78.5750 C.3   1350  FMN1350     0.2048
     21  O2'       10.9480   46.1140   77.9970 O.3   1350  FMN1350    -0.2185
     22  C3'        9.5510   44.3540   78.7870 C.3   1350  FMN1350     0.2165
     23  O3'        9.7300   43.7000   77.5360 O.3   1350  FMN1350    -0.2175
     24  C4'        8.1930   43.9620   79.3940 C.3   1350  FMN1350     0.2147
     25  O4'        7.7650   44.9060   80.3660 O.3   1350  FMN1350    -0.2176
     26  C5'        8.2030   42.5730   80.0390 C.3   1350  FMN1350     0.1892
     27  O5'        9.1700   42.4620   81.0620 O.3   1350  FMN1350    -0.2674
     28  P          8.7240   42.4890   82.6160 P.3   1350  FMN1350     0.5327
     29  O1P        7.8130   41.3190   82.8520 O.3   1350  FMN1350    -0.1145
     30  O2P        9.9990   42.4610   83.4410 O.3   1350  FMN1350    -0.1145
     31  O3P        8.0020   43.7890   82.8260 O.2   1350  FMN1350    -0.2224
@<TRIPOS>BOND
     1     3     2    2
     2     4     2    2
     3     4     5    2
     4     2     1    2
     5     6     5    2
     6     5     7    1
     7     1    18    2
     8     7    18    1
     9     7     8    2
    10    18    17    1
    11     8     9    2
    12    23    22    1
    13    17    19    1
    14    17    16    1
    15    19    20    1
    16    21    20    1
    17     9    16    1
    18     9    10    1
    19    16    15    2
    20    20    22    1
    21    22    24    1
    22    10    11    2
    23    24    26    1
    24    24    25    1
    25    15    13    1
    26    26    27    1
    27    11    13    1
    28    11    12    1
    29    13    14    1
    30    27    28    1
    31    28    31    2
    32    28    29    1
    33    28    30    1
