@<TRIPOS>MOLECULE
2e6d_FMN_A_1.pdb
 31 33 0 0 0
SMALL
GASTEIGER

@<TRIPOS>ATOM
      1  N1        10.0270   47.5610   75.6060 N.2   1350  FMN1350    -0.2887
      2  C2        10.7110   48.0890   74.5380 C.1   1350  FMN1350     0.3669
      3  O2        11.2720   47.3240   73.7370 O.2   1350  FMN1350    -0.1744
      4  N3        10.8110   49.4680   74.3770 N.2   1350  FMN1350    -0.2300
      5  C4        10.2250   50.3470   75.2560 C.1   1350  FMN1350     0.2513
      6  O4        10.4330   51.5900   75.1850 O.2   1350  FMN1350    -0.2057
      7  C4A        9.5290   49.7920   76.3290 C.2   1350  FMN1350     0.2706
      8  N5         8.9130   50.6290   77.2340 N.2   1350  FMN1350    -0.3841
      9  C5A        8.2900   50.1040   78.3510 C.2   1350  FMN1350     0.1452
     10  C6         7.7090   50.9680   79.2690 C.2   1350  FMN1350     0.0252
     11  C7         7.0570   50.4750   80.4120 C.2   1350  FMN1350    -0.0375
     12  C7M        6.8390   51.4560   81.5440 C.3   1350  FMN1350     0.0268
     13  C8         6.9730   49.0950   80.6170 C.3   1350  FMN1350     0.0417
     14  C8M        6.6570   48.5240   81.9850 C.3   1350  FMN1350     0.0091
     15  C9         7.5500   48.2250   79.6780 C.2   1350  FMN1350    -0.0049
     16  C9A        8.2060   48.7230   78.5460 C.2   1350  FMN1350     0.0795
     17  N10        8.7350   47.8750   77.6020 N.pl3 1350  FMN1350    -0.2545
     18  C10        9.4380   48.3970   76.5150 C.2   1350  FMN1350     0.2449
     19  C1'        8.4890   46.3980   77.7150 C.3   1350  FMN1350     0.1336
     20  C2'        9.6520   45.8690   78.5590 C.3   1350  FMN1350     0.2048
     21  O2'       10.8610   46.1610   77.9120 O.3   1350  FMN1350    -0.2185
     22  C3'        9.5450   44.3720   78.8170 C.3   1350  FMN1350     0.2165
     23  O3'        9.7030   43.7030   77.5680 O.3   1350  FMN1350    -0.2175
     24  C4'        8.1740   44.0390   79.4520 C.3   1350  FMN1350     0.2147
     25  O4'        7.8560   44.9500   80.4960 O.3   1350  FMN1350    -0.2176
     26  C5'        8.1250   42.6250   80.0230 C.3   1350  FMN1350     0.1892
     27  O5'        9.1200   42.4610   81.0070 O.3   1350  FMN1350    -0.2674
     28  P          8.7250   42.4780   82.5740 P.3   1350  FMN1350     0.5327
     29  O1P        7.8230   41.3340   82.8530 O.3   1350  FMN1350    -0.1145
     30  O2P        9.9910   42.4480   83.3840 O.3   1350  FMN1350    -0.1145
     31  O3P        7.9310   43.7350   82.8230 O.2   1350  FMN1350    -0.2224
@<TRIPOS>BOND
     1     3     2    2
     2     4     2    2
     3     4     5    2
     4     2     1    2
     5     6     5    2
     6     5     7    1
     7     1    18    2
     8     7    18    1
     9     7     8    2
    10    18    17    1
    11     8     9    2
    12    23    22    1
    13    17    19    1
    14    17    16    1
    15    19    20    1
    16    21    20    1
    17     9    16    1
    18     9    10    1
    19    16    15    2
    20    20    22    1
    21    22    24    1
    22    10    11    2
    23    24    26    1
    24    24    25    1
    25    15    13    1
    26    26    27    1
    27    11    13    1
    28    11    12    1
    29    13    14    1
    30    27    28    1
    31    28    31    2
    32    28    29    1
    33    28    30    1
