@<TRIPOS>MOLECULE
2e6f_OXC_A_1.pdb
 11 11 0 0 0
SMALL
GASTEIGER

@<TRIPOS>ATOM
      1  N1         6.7170   47.9820   74.8590 N.2   1352  OXC1352    -0.2057
      2  C2         5.9170   48.4630   75.8440 C.1   1352  OXC1352     0.3772
      3  O2         5.4590   47.6860   76.7160 O.2   1352  OXC1352    -0.1737
      4  N3         5.6280   49.7810   75.8720 N.2   1352  OXC1352    -0.2336
      5  C4         6.1460   50.5800   74.9080 C.1   1352  OXC1352     0.2465
      6  N5         6.9350   50.1080   73.9140 N.2   1352  OXC1352    -0.2336
      7  C6         7.2310   48.7890   73.8920 C.1   1352  OXC1352     0.3772
      8  O6         7.9540   48.3140   72.9900 O.2   1352  OXC1352    -0.1737
      9  CG         5.7640   52.0170   74.8760 C.2   1352  OXC1352     0.4728
     10  OD1        6.5910   52.9450   74.9990 O.co2 1352  OXC1352    -0.2267
     11  OD2        4.5400   52.1940   74.6590 O.co2 1352  OXC1352    -0.2267
@<TRIPOS>BOND
     1     8     7    2
     2     7     6    2
     3     7     1    2
     4     6     5    2
     5    11     9   ar
     6     1     2    2
     7     9     5    1
     8     9    10   ar
     9     5     4    2
    10     2     4    2
    11     2     3    2
