@<TRIPOS>MOLECULE
2e6f_FMN_A_1.pdb
 31 33 0 0 0
SMALL
GASTEIGER

@<TRIPOS>ATOM
      1  N1        10.0520   47.5150   75.5750 N.2   1350  FMN1350    -0.2887
      2  C2        10.7570   48.0290   74.5170 C.1   1350  FMN1350     0.3669
      3  O2        11.3150   47.2650   73.7310 O.2   1350  FMN1350    -0.1744
      4  N3        10.8710   49.4010   74.3560 N.2   1350  FMN1350    -0.2300
      5  C4        10.2850   50.2910   75.2290 C.1   1350  FMN1350     0.2513
      6  O4        10.5810   51.4930   75.1560 O.2   1350  FMN1350    -0.2057
      7  C4A        9.5750   49.7760   76.3040 C.2   1350  FMN1350     0.2706
      8  N5         8.9850   50.6330   77.2120 N.2   1350  FMN1350    -0.3841
      9  C5A        8.3210   50.0990   78.3000 C.2   1350  FMN1350     0.1452
     10  C6         7.7400   50.9580   79.2290 C.2   1350  FMN1350     0.0252
     11  C7         7.0750   50.4550   80.3460 C.2   1350  FMN1350    -0.0375
     12  C7M        6.8540   51.4040   81.5000 C.3   1350  FMN1350     0.0268
     13  C8         6.9740   49.0650   80.5210 C.3   1350  FMN1350     0.0417
     14  C8M        6.5980   48.4830   81.8590 C.3   1350  FMN1350     0.0091
     15  C9         7.5470   48.2050   79.5840 C.2   1350  FMN1350    -0.0049
     16  C9A        8.2280   48.7160   78.4750 C.2   1350  FMN1350     0.0795
     17  N10        8.7890   47.8660   77.5350 N.pl3 1350  FMN1350    -0.2545
     18  C10        9.4820   48.3900   76.4700 C.2   1350  FMN1350     0.2449
     19  C1'        8.5960   46.3880   77.6360 C.3   1350  FMN1350     0.1336
     20  C2'        9.6930   45.8490   78.5500 C.3   1350  FMN1350     0.2048
     21  O2'       10.9650   46.1040   77.9780 O.3   1350  FMN1350    -0.2185
     22  C3'        9.5430   44.3540   78.7890 C.3   1350  FMN1350     0.2165
     23  O3'        9.6960   43.7140   77.5380 O.3   1350  FMN1350    -0.2175
     24  C4'        8.1950   43.9670   79.4100 C.3   1350  FMN1350     0.2147
     25  O4'        7.8000   44.9350   80.3630 O.3   1350  FMN1350    -0.2176
     26  C5'        8.2250   42.5670   80.0330 C.3   1350  FMN1350     0.1892
     27  O5'        9.1860   42.4940   81.0680 O.3   1350  FMN1350    -0.2674
     28  P          8.7550   42.5410   82.6220 P.3   1350  FMN1350     0.5327
     29  O1P        7.8460   41.3680   82.8950 O.3   1350  FMN1350    -0.1145
     30  O2P       10.0460   42.4750   83.4080 O.3   1350  FMN1350    -0.1145
     31  O3P        8.0160   43.8430   82.8480 O.2   1350  FMN1350    -0.2224
@<TRIPOS>BOND
     1     3     2    2
     2     4     2    2
     3     4     5    2
     4     2     1    2
     5     6     5    2
     6     5     7    1
     7     1    18    2
     8     7    18    1
     9     7     8    2
    10    18    17    1
    11     8     9    2
    12    17    19    1
    13    17    16    1
    14    23    22    1
    15    19    20    1
    16    21    20    1
    17     9    16    1
    18     9    10    1
    19    16    15    2
    20    20    22    1
    21    22    24    1
    22    10    11    2
    23    24    26    1
    24    24    25    1
    25    15    13    1
    26    26    27    1
    27    11    13    1
    28    11    12    1
    29    13    14    1
    30    27    28    1
    31    28    31    2
    32    28    29    1
    33    28    30    1
