@<TRIPOS>MOLECULE
2e6u_COA_X_1.pdb
 48 50 0 0 0
SMALL
GASTEIGER

@<TRIPOS>ATOM
      1  N1A       10.6230   12.4310   93.2120 N.2   200  COA200      0.0021
      2  C2A        9.2300   12.6870   92.8800 C.3   200  COA200      0.5254
      3  N3A        8.4940   13.4790   93.8480 N.2   200  COA200     -0.0055
      4  C4A        9.1330   13.9720   94.9370 C.2   200  COA200      0.3518
      5  C5A       10.4940   13.7420   95.1730 C.2   200  COA200      0.2526
      6  C6A       11.2350   12.9460   94.2930 C.2   200  COA200      0.4393
      7  N6A       12.5700   12.6340   94.4660 N.pl3 200  COA200      0.2180
      8  N7A       10.7860   14.3760   96.3390 N.2   200  COA200     -0.2095
      9  C8A        9.6750   14.9830   96.8020 C.3   200  COA200      0.3377
     10  N9A        8.6740   14.7340   95.9210 N.pl3 200  COA200     -0.1439
     11  C1B        7.2810   15.1600   96.0420 C.3   200  COA200      0.3185
     12  C2B        6.7580   14.9120   97.4750 C.3   200  COA200      0.2543
     13  O2B        6.2970   13.5680   97.6820 O.3   200  COA200     -0.2131
     14  C3B        5.6900   15.9900   97.6410 C.3   200  COA200      0.1928
     15  O3B        4.3510   15.4960   97.5810 O.3   200  COA200     -0.2673
     16  P3B        3.5810   15.0360   98.9140 P.3   200  COA200      0.5327
     17  O7A        4.5660   14.1100   99.6220 O.3   200  COA200     -0.1145
     18  O8A        3.3260   16.3250   99.6590 O.3   200  COA200     -0.1145
     19  O9A        2.2980   14.3820   98.4400 O.2   200  COA200     -0.2224
     20  C4B        5.9410   16.9380   96.4800 C.3   200  COA200      0.1795
     21  O4B        7.1680   16.5450   95.9180 O.3   200  COA200     -0.3136
     22  C5B        6.1230   18.3990   96.8810 C.3   200  COA200      0.1812
     23  O5B        7.0020   18.4440   98.0110 O.3   200  COA200     -0.3112
     24  P1A        7.8730   19.7710   98.2530 P.3   200  COA200      0.2189
     25  O1A        8.7760   19.9340   97.0660 O.2   200  COA200     -0.5170
     26  O2A        8.4510   19.5420   99.6420 O.3   200  COA200     -0.4371
     27  O3A        6.7150   20.8550   98.2890 O.3   200  COA200     -0.2703
     28  P2A        6.8200   22.4620   98.4080 P.3   200  COA200      0.2188
     29  O4A        8.2190   22.7750   98.8280 O.2   200  COA200     -0.5170
     30  O5A        5.5820   22.8770   99.1540 O.3   200  COA200     -0.4371
     31  O6A        6.6060   22.9230   96.9000 O.3   200  COA200     -0.3138
     32  CBP        7.0040   22.6340   94.5590 C.3   200  COA200      0.0599
     33  CCP        7.6570   22.8280   95.9260 C.3   200  COA200      0.1516
     34  CDP        6.2570   21.2950   94.4890 C.3   200  COA200      0.0052
     35  CEP        8.1320   22.5830   93.5170 C.3   200  COA200      0.0052
     36  CAP        5.9880   23.7440   94.2950 C.3   200  COA200      0.2012
     37  OAP        6.6060   25.0600   94.2570 O.3   200  COA200     -0.2187
     38  C9P        5.3040   23.3570   92.9800 C.3   200  COA200      0.2561
     39  O9P        3.9410   23.0720   93.2130 O.3   200  COA200     -0.2008
     40  N8P        5.5420   24.2890   91.9020 N.3   200  COA200     -0.1869
     41  C7P        4.7450   24.2850   90.6950 C.3   200  COA200      0.0955
     42  C6P        3.6890   25.3560   90.9270 C.3   200  COA200      0.0702
     43  C5P        2.8740   25.8160   89.7150 C.3   200  COA200      0.2270
     44  O5P        3.3770   25.4430   88.4490 O.3   200  COA200     -0.2036
     45  N4P        1.4800   25.5360   89.8160 N.3   200  COA200     -0.1883
     46  C3P        0.6470   25.7340   88.6510 C.3   200  COA200      0.1038
     47  C2P       -0.6500   26.4030   89.0450 C.3   200  COA200      0.0875
     48  S1P       -1.4190   27.0430   87.5370 S.3   200  COA200     -0.0806
@<TRIPOS>BOND
     1    48    47    1
     2    44    43    1
     3    46    47    1
     4    46    45    1
     5    43    45    1
     6    43    42    1
     7    41    42    1
     8    41    40    1
     9    40    38    1
    10     2     1    1
    11     2     3    1
    12    38    39    1
    13    38    36    1
    14     1     6    2
    15    35    32    1
    16     3     4    2
    17    37    36    1
    18     6     7    1
    19     6     5    1
    20    36    32    1
    21    34    32    1
    22    32    33    1
    23     4     5    1
    24     4    10    1
    25     5     8    2
    26    21    11    1
    27    21    20    1
    28    10    11    1
    29    10     9    1
    30    33    31    1
    31    11    12    1
    32     8     9    1
    33    20    22    1
    34    20    14    1
    35    22    23    1
    36    31    28    1
    37    25    24    2
    38    12    14    1
    39    12    13    1
    40    15    14    1
    41    15    16    1
    42    23    24    1
    43    24    27    1
    44    24    26    1
    45    27    28    1
    46    28    29    2
    47    28    30    1
    48    19    16    2
    49    16    17    1
    50    16    18    1
