@<TRIPOS>MOLECULE
2e6v_MAN_A_1.pdb
 11 11 0 0 0
SMALL
GASTEIGER

@<TRIPOS>ATOM
      1  C1        37.1560   10.6660   39.9850 C.3     2  MAN2        0.1777
      2  C2        36.4770   10.8830   38.6450 C.3     2  MAN2        0.2141
      3  C3        37.4080   11.8080   37.8450 C.3     2  MAN2        0.2173
      4  C4        37.6000   13.1520   38.5620 C.3     2  MAN2        0.2142
      5  C5        38.0120   12.9330   40.0300 C.3     2  MAN2        0.1810
      6  C6        37.8770   14.1990   40.8890 C.3     2  MAN2        0.2141
      7  O2        35.2530   11.5690   38.8990 O.3     2  MAN2       -0.2176
      8  O3        36.8900   12.0160   36.5570 O.3     2  MAN2       -0.2175
      9  O4        38.5540   13.9520   37.8760 O.3     2  MAN2       -0.2176
     10  O5        37.2390   11.9160   40.6550 O.3     2  MAN2       -0.3481
     11  O6        38.8420   14.1960   41.9310 O.3     2  MAN2       -0.2176
@<TRIPOS>BOND
     1     8     3    1
     2     3     4    1
     3     3     2    1
     4     9     4    1
     5     4     5    1
     6     2     7    1
     7     2     1    1
     8     1    10    1
     9     5    10    1
    10     5     6    1
    11     6    11    1
