@<TRIPOS>MOLECULE
2e6v_BMA_A_1.pdb
 12 12 0 0 0
SMALL
GASTEIGER

@<TRIPOS>ATOM
      1  C1        40.6930    9.3540   42.8220 C.3     1  BMA1        0.3024
      2  C2        40.1520   10.1460   41.6090 C.3     1  BMA1        0.2434
      3  C3        38.8270    9.5320   41.0910 C.3     1  BMA1        0.2199
      4  C4        38.9210    8.0170   40.9940 C.3     1  BMA1        0.2144
      5  C5        39.2660    7.4870   42.3700 C.3     1  BMA1        0.1836
      6  C6        39.1690    5.9610   42.4220 C.3     1  BMA1        0.2142
      7  O1        42.0440    9.6700   43.1130 O.3     1  BMA1       -0.1869
      8  O2        41.1280   10.2600   40.5820 O.3     1  BMA1       -0.2148
      9  O3        38.4400   10.0370   39.8330 O.3     1  BMA1       -0.2174
     10  O4        37.7300    7.4610   40.4970 O.3     1  BMA1       -0.2176
     11  O5        40.5850    7.9480   42.6340 O.3     1  BMA1       -0.3236
     12  O6        40.3970    5.3760   42.8220 O.3     1  BMA1       -0.2176
@<TRIPOS>BOND
     1     9     3    1
     2    10     4    1
     3     8     2    1
     4     4     3    1
     5     4     5    1
     6     3     2    1
     7     2     1    1
     8     5     6    1
     9     5    11    1
    10     6    12    1
    11    11     1    1
    12     1     7    1
