@<TRIPOS>MOLECULE
2e6y_U5P_A_1.pdb
 21 22 0 0 0
SMALL
GASTEIGER

@<TRIPOS>ATOM
      1  N1        27.0750  -18.2960   14.7590 N.am  301  U5P301     -0.1766
      2  C2        27.9820  -17.7900   13.7930 C.1   301  U5P301      0.2845
      3  N3        29.2960  -18.0730   14.0250 N.2   301  U5P301     -0.2452
      4  C4        29.8350  -18.7820   15.1300 C.1   301  U5P301      0.2182
      5  C5        28.9040  -19.1860   16.1050 C.2   301  U5P301      0.1242
      6  C6        27.5690  -18.9710   15.9510 C.2   301  U5P301      0.0929
      7  O2        27.5990  -17.1610   12.8280 O.2   301  U5P301     -0.1918
      8  O4        31.0330  -18.9760   15.1500 O.2   301  U5P301     -0.2085
      9  C1'       25.6190  -18.2810   14.4120 C.3   301  U5P301      0.2401
     10  C2'       24.9480  -16.9750   14.2010 C.3   301  U5P301      0.2319
     11  O2'       24.4110  -16.4740   15.4210 O.3   301  U5P301     -0.2157
     12  C3'       23.8440  -17.3270   13.1870 C.3   301  U5P301      0.2158
     13  C4'       24.5350  -18.2830   12.2470 C.3   301  U5P301      0.1801
     14  O3'       22.7410  -17.9740   13.8300 O.3   301  U5P301     -0.2175
     15  O4'       25.4930  -18.9750   13.1420 O.3   301  U5P301     -0.3320
     16  C5'       25.2580  -17.6650   11.0660 C.3   301  U5P301      0.1859
     17  O5'       24.1990  -17.1840   10.2190 O.3   301  U5P301     -0.2675
     18  P         24.4910  -16.2670    8.9370 P.3   301  U5P301      0.5327
     19  O1P       25.7810  -15.4940    9.1400 O.3   301  U5P301     -0.1145
     20  O2P       23.3020  -15.3170    8.8360 O.3   301  U5P301     -0.1145
     21  O3P       24.6390  -17.1760    7.7290 O.2   301  U5P301     -0.2224
@<TRIPOS>BOND
     1    21    18    2
     2    20    18    1
     3    18    19    1
     4    18    17    1
     5    17    16    1
     6    16    13    1
     7    13    15    1
     8    13    12    1
     9     7     2    2
    10    15     9    1
    11    12    14    1
    12    12    10    1
    13     2     3    2
    14     2     1   am
    15     3     4    2
    16    10     9    1
    17    10    11    1
    18     9     1    1
    19     1     6    1
    20     4     8    2
    21     4     5    1
    22     6     5    2
