@<TRIPOS>MOLECULE
2e74_HEM_A_1.pdb
 43 50 0 0 0
SMALL
GASTEIGER

@<TRIPOS>ATOM
      1  CHA      -50.1380   64.3860   18.4520 C.2   301  HEM301      0.0000
      2  CHB      -45.9020   65.0520   16.1560 C.2   301  HEM301      0.0000
      3  CHC      -44.1570   67.4530   19.8780 C.2   301  HEM301      0.0000
      4  CHD      -48.2580   66.6880   22.2950 C.2   301  HEM301      0.0000
      5  C1A      -49.1180   64.4240   17.5410 C.ar  301  HEM301      0.0000
      6  C2A      -49.2320   63.9050   16.2050 C.ar  301  HEM301      0.0000
      7  C3A      -48.0720   64.1080   15.6170 C.ar  301  HEM301      0.0000
      8  C4A      -47.1730   64.7390   16.5340 C.ar  301  HEM301      0.0000
      9  CMA      -47.6550   63.7830   14.1940 C.3   301  HEM301      0.0000
     10  CAA      -50.4780   63.2910   15.5710 C.3   301  HEM301      0.0000
     11  CBA      -51.4140   64.4650   15.2490 C.3   301  HEM301      0.0000
     12  CGA      -52.6750   63.9090   14.6660 C.2   301  HEM301      0.0000
     13  O1A      -52.7410   63.8240   13.4120 O.co2 301  HEM301      0.0000
     14  O2A      -53.5720   63.5200   15.4560 O.co2 301  HEM301      0.0000
     15  C1B      -45.0500   65.7450   16.9180 C.2   301  HEM301      0.0000
     16  C2B      -43.6820   66.1100   16.5790 C.2   301  HEM301      0.0000
     17  C3B      -43.2370   66.7810   17.6560 C.2   301  HEM301      0.0000
     18  C4B      -44.2810   66.8410   18.6510 C.2   301  HEM301      0.0000
     19  CMB      -42.9000   65.7950   15.2480 C.3   301  HEM301      0.0000
     20  CAB      -41.8530   67.4110   17.8440 C.2   301  HEM301      0.0000
     21  CBB      -40.9960   67.2580   16.8280 C.2   301  HEM301      0.0000
     22  C1C      -45.0770   67.4150   20.8790 C.ar  301  HEM301      0.0000
     23  C2C      -44.8840   67.9040   22.2290 C.ar  301  HEM301      0.0000
     24  C3C      -46.0440   67.6630   22.8800 C.ar  301  HEM301      0.0000
     25  C4C      -46.9760   67.0520   21.9740 C.ar  301  HEM301      0.0000
     26  CMC      -43.5850   68.5640   22.7810 C.3   301  HEM301      0.0000
     27  CAC      -46.3950   67.9810   24.3310 C.2   301  HEM301      0.0000
     28  CBC      -46.1760   69.2040   24.8410 C.2   301  HEM301      0.0000
     29  C1D      -49.1570   66.0240   21.4820 C.2   301  HEM301      0.0000
     30  C2D      -50.4910   65.6330   21.8650 C.2   301  HEM301      0.0000
     31  C3D      -51.1000   64.9000   20.6830 C.2   301  HEM301      0.0000
     32  C4D      -50.0500   64.9320   19.7000 C.2   301  HEM301      0.0000
     33  CMD      -51.1590   65.8840   23.2150 C.3   301  HEM301      0.0000
     34  CAD      -52.5230   64.2870   20.5770 C.3   301  HEM301      0.0000
     35  CBD      -53.4390   65.2980   19.8810 C.3   301  HEM301      0.0000
     36  CGD      -53.5520   64.8440   18.4660 C.2   301  HEM301      0.0000
     37  O1D      -53.7280   65.6580   17.4990 O.co2 301  HEM301      0.0000
     38  O2D      -53.4360   63.6030   18.3200 O.co2 301  HEM301      0.0000
     39  NA       -47.8310   64.9310   17.7250 N.ar  301  HEM301      0.0000
     40  NB       -45.3900   66.1870   18.1650 N.2   301  HEM301      0.0000
     41  NC       -46.3550   66.9100   20.7520 N.ar  301  HEM301      0.0000
     42  ND       -48.9290   65.5920   20.1950 N.2   301  HEM301      0.0000
     43 FE        -47.0870   65.9810   19.1940 Fe    301  HEM301      0.0000
@<TRIPOS>BOND
     1    13    12   ar
     2     9     7    1
     3    12    11    1
     4    12    14   ar
     5    19    16    1
     6    11    10    1
     7    10     6    1
     8     7     6   ar
     9     7     8   ar
    10     2     8    2
    11     2    15    1
    12     6     5   ar
    13     8    39   ar
    14    16    15    1
    15    16    17    2
    16    21    20    2
    17    15    40    2
    18    37    36   ar
    19     5    39   ar
    20     5     1    2
    21    17    20    1
    22    17    18    1
    23    39    43    1
    24    40    18    1
    25    40    43    1
    26    38    36   ar
    27     1    32    1
    28    36    35    1
    29    18     3    2
    30    43    42    1
    31    43    41    1
    32    32    42    2
    33    32    31    1
    34     3    22    1
    35    35    34    1
    36    42    29    1
    37    34    31    1
    38    31    30    2
    39    41    22   ar
    40    41    25   ar
    41    22    23   ar
    42    29    30    1
    43    29     4    2
    44    30    33    1
    45    25     4    1
    46    25    24   ar
    47    23    26    1
    48    23    24   ar
    49    24    27    1
    50    27    28    2
