@<TRIPOS>MOLECULE
2e75_QNO_A_1.pdb
 21 22 0 0 0
SMALL
GASTEIGER

@<TRIPOS>ATOM
      1  C29      -37.1860   89.0760   18.4140 C.3   501  QNO501      0.0000
      2  C28      -35.6600   88.9390   18.8430 C.3   501  QNO501      0.0000
      3  C27      -34.9220   87.5330   18.7220 C.3   501  QNO501      0.0000
      4  C26      -33.6380   87.4030   19.6800 C.3   501  QNO501      0.0000
      5  C25      -32.7880   86.0910   19.3710 C.3   501  QNO501      0.0000
      6  C24      -31.4590   85.7330   20.1880 C.3   501  QNO501      0.0000
      7  C23      -31.0630   84.2060   19.9200 C.3   501  QNO501      0.0004
      8  C22      -29.5590   83.8490   19.6420 C.3   501  QNO501      0.0063
      9  C21      -29.3220   82.7440   18.5060 C.3   501  QNO501      0.0475
     10  C2       -28.1680   83.1280   17.4710 C.ar  501  QNO501      0.0829
     11  C3       -27.0630   83.5890   18.1470 C.ar  501  QNO501      0.0583
     12  C4       -25.9410   83.9950   17.4600 C.ar  501  QNO501      0.1984
     13  O41      -25.0370   84.3650   18.2130 O.2   501  QNO501     -0.2865
     14  C5       -25.8750   83.9870   16.0310 C.ar  501  QNO501      0.0581
     15  C51      -24.7450   84.3940   15.2990 C.ar  501  QNO501      0.0047
     16  C52      -24.7330   84.3380   13.9230 C.ar  501  QNO501      0.0002
     17  C62      -25.8850   83.8780   13.2620 C.ar  501  QNO501      0.0016
     18  C61      -27.0190   83.4760   13.9410 C.ar  501  QNO501      0.0208
     19  C6       -26.9760   83.5500   15.3180 C.ar  501  QNO501      0.1048
     20  N1       -28.0860   83.1220   15.9610 N.ar  501  QNO501     -0.1341
     21  OH       -28.9840   82.7500   14.9430 O.3   501  QNO501     -0.1636
@<TRIPOS>BOND
     1    17    16   ar
     2    17    18   ar
     3    16    15   ar
     4    18    19   ar
     5    21    20    1
     6    15    14   ar
     7    19    20   ar
     8    19    14   ar
     9    20    10   ar
    10    14    12   ar
    11    12    11   ar
    12    12    13    2
    13    10    11   ar
    14    10     9    1
    15     1     2    1
    16     9     8    1
    17     3     2    1
    18     3     4    1
    19     5     4    1
    20     5     6    1
    21     8     7    1
    22     7     6    1
