@<TRIPOS>MOLECULE
2e75_HEM_A_1.pdb
 43 50 0 0 0
SMALL
GASTEIGER

@<TRIPOS>ATOM
      1  CHA      -51.0040   64.6050   18.6230 C.2   301  HEM301      0.0000
      2  CHB      -46.8670   65.3110   16.4800 C.2   301  HEM301      0.0000
      3  CHC      -44.9260   67.7380   20.0010 C.2   301  HEM301      0.0000
      4  CHD      -48.9290   66.9250   22.2130 C.2   301  HEM301      0.0000
      5  C1A      -49.9980   64.6480   17.7440 C.ar  301  HEM301      0.0000
      6  C2A      -50.0920   64.0980   16.4040 C.ar  301  HEM301      0.0000
      7  C3A      -48.9300   64.3540   15.8670 C.ar  301  HEM301      0.0000
      8  C4A      -48.1180   65.0520   16.8180 C.ar  301  HEM301      0.0000
      9  CMA      -48.4130   63.9400   14.4880 C.3   301  HEM301      0.0000
     10  CAA      -51.2900   63.4320   15.7120 C.3   301  HEM301      0.0000
     11  CBA      -52.0570   64.6260   15.0640 C.3   301  HEM301      0.0000
     12  CGA      -53.5670   64.4330   14.8320 C.2   301  HEM301      0.0000
     13  O1A      -54.0390   64.6400   13.7000 O.co2 301  HEM301      0.0000
     14  O2A      -54.3920   64.0730   15.7090 O.co2 301  HEM301      0.0000
     15  C1B      -45.9840   65.9390   17.2080 C.2   301  HEM301      0.0000
     16  C2B      -44.6460   66.2510   16.7330 C.2   301  HEM301      0.0000
     17  C3B      -44.1820   66.9340   17.7730 C.2   301  HEM301      0.0000
     18  C4B      -45.1620   67.0810   18.8180 C.2   301  HEM301      0.0000
     19  CMB      -43.9020   65.9320   15.3600 C.3   301  HEM301      0.0000
     20  CAB      -42.7780   67.4830   17.7700 C.3   301  HEM301      0.0000
     21  CBB      -42.2980   67.2510   16.5280 C.3   301  HEM301      0.0000
     22  C1C      -45.7980   67.7290   21.0710 C.ar  301  HEM301      0.0000
     23  C2C      -45.5720   68.2170   22.4720 C.ar  301  HEM301      0.0000
     24  C3C      -46.7970   67.9250   22.9790 C.ar  301  HEM301      0.0000
     25  C4C      -47.6650   67.3090   22.0040 C.ar  301  HEM301      0.0000
     26  CMC      -44.3030   68.9150   23.2070 C.3   301  HEM301      0.0000
     27  CAC      -47.3300   68.1730   24.4070 C.2   301  HEM301      0.0000
     28  CBC      -46.7150   68.8840   25.3800 C.2   301  HEM301      0.0000
     29  C1D      -49.8200   66.2290   21.4460 C.2   301  HEM301      0.0000
     30  C2D      -51.1130   65.7800   21.9320 C.2   301  HEM301      0.0000
     31  C3D      -51.7450   65.0470   20.8280 C.2   301  HEM301      0.0000
     32  C4D      -50.7780   65.1180   19.8160 C.2   301  HEM301      0.0000
     33  CMD      -51.8090   65.9330   23.2970 C.3   301  HEM301      0.0000
     34  CAD      -53.1480   64.4330   20.8400 C.3   301  HEM301      0.0000
     35  CBD      -54.0330   65.4320   20.0840 C.3   301  HEM301      0.0000
     36  CGD      -54.0710   65.1460   18.5900 C.2   301  HEM301      0.0000
     37  O1D      -54.2810   66.0150   17.6980 O.co2 301  HEM301      0.0000
     38  O2D      -53.9340   63.9590   18.2530 O.co2 301  HEM301      0.0000
     39  NA       -48.7560   65.2210   17.9970 N.ar  301  HEM301      0.0000
     40  NB       -46.2980   66.4160   18.4390 N.2   301  HEM301      0.0000
     41  NC       -47.0600   67.2010   20.8410 N.ar  301  HEM301      0.0000
     42  ND       -49.6500   65.8150   20.1680 N.2   301  HEM301      0.0000
     43 FE        -47.8060   65.9850   19.3490 Fe    301  HEM301      0.0000
@<TRIPOS>BOND
     1    13    12   ar
     2     9     7    1
     3    12    11    1
     4    12    14   ar
     5    11    10    1
     6    19    16    1
     7    10     6    1
     8     7     6   ar
     9     7     8   ar
    10     6     5   ar
    11     2     8    2
    12     2    15    1
    13    21    20    1
    14    16    15    1
    15    16    17    2
    16     8    39   ar
    17    15    40    2
    18    37    36   ar
    19     5    39   ar
    20     5     1    2
    21    20    17    1
    22    17    18    1
    23    39    43    1
    24    38    36   ar
    25    40    18    1
    26    40    43    1
    27    36    35    1
    28     1    32    1
    29    18     3    2
    30    43    42    1
    31    43    41    1
    32    32    42    2
    33    32    31    1
    34     3    22    1
    35    35    34    1
    36    42    29    1
    37    31    34    1
    38    31    30    2
    39    41    22   ar
    40    41    25   ar
    41    22    23   ar
    42    29    30    1
    43    29     4    2
    44    30    33    1
    45    25     4    1
    46    25    24   ar
    47    23    24   ar
    48    23    26    1
    49    24    27    1
    50    27    28    2
