@<TRIPOS>MOLECULE
2e76_HEM_A_1.pdb
 43 50 0 0 0
SMALL
GASTEIGER

@<TRIPOS>ATOM
      1  CHA      -48.5850   64.1290   18.5510 C.2   301  HEM301      0.0000
      2  CHB      -44.6130   64.8650   16.2850 C.2   301  HEM301      0.0000
      3  CHC      -42.9660   67.2460   20.1290 C.2   301  HEM301      0.0000
      4  CHD      -47.0210   66.6530   22.3000 C.2   301  HEM301      0.0000
      5  C1A      -47.6480   64.1980   17.6280 C.ar  301  HEM301      0.0000
      6  C2A      -47.7940   63.6250   16.2980 C.ar  301  HEM301      0.0000
      7  C3A      -46.6710   63.8570   15.7040 C.ar  301  HEM301      0.0000
      8  C4A      -45.8450   64.5250   16.6320 C.ar  301  HEM301      0.0000
      9  CMA      -46.2380   63.4780   14.2830 C.3   301  HEM301      0.0000
     10  CAA      -49.0110   62.9410   15.6480 C.3   301  HEM301      0.0000
     11  CBA      -50.2910   63.8000   15.9190 C.3   301  HEM301      0.0000
     12  CGA      -51.3000   63.7290   14.8000 C.2   301  HEM301      0.0000
     13  O1A      -50.9020   64.3260   13.7860 O.co2 301  HEM301      0.0000
     14  O2A      -52.4070   63.1050   14.8660 O.co2 301  HEM301      0.0000
     15  C1B      -43.8500   65.5290   17.1650 C.2   301  HEM301      0.0000
     16  C2B      -42.4550   65.8700   16.8440 C.2   301  HEM301      0.0000
     17  C3B      -42.1090   66.4850   17.9880 C.2   301  HEM301      0.0000
     18  C4B      -43.1800   66.5810   18.9580 C.2   301  HEM301      0.0000
     19  CMB      -41.5490   65.6280   15.5480 C.3   301  HEM301      0.0000
     20  CAB      -40.7200   67.0350   18.1680 C.3   301  HEM301      0.0000
     21  CBB      -40.1580   66.8030   16.9610 C.3   301  HEM301      0.0000
     22  C1C      -43.8680   67.4110   21.1090 C.ar  301  HEM301      0.0000
     23  C2C      -43.7110   68.1270   22.3940 C.ar  301  HEM301      0.0000
     24  C3C      -44.9290   67.8690   22.9530 C.ar  301  HEM301      0.0000
     25  C4C      -45.7470   67.0890   22.0680 C.ar  301  HEM301      0.0000
     26  CMC      -42.4660   68.9770   22.9750 C.3   301  HEM301      0.0000
     27  CAC      -45.5100   68.3430   24.3000 C.2   301  HEM301      0.0000
     28  CBC      -44.7530   68.6660   25.3630 C.2   301  HEM301      0.0000
     29  C1D      -47.7940   65.8680   21.4410 C.2   301  HEM301      0.0000
     30  C2D      -49.1430   65.4510   21.7710 C.2   301  HEM301      0.0000
     31  C3D      -49.7380   64.6500   20.6610 C.2   301  HEM301      0.0000
     32  C4D      -48.5720   64.6760   19.7450 C.2   301  HEM301      0.0000
     33  CMD      -49.9500   65.7080   22.9970 C.3   301  HEM301      0.0000
     34  CAD      -51.2240   64.0350   20.7070 C.3   301  HEM301      0.0000
     35  CBD      -52.2990   64.8110   19.9190 C.3   301  HEM301      0.0000
     36  CGD      -52.2440   64.5090   18.3820 C.2   301  HEM301      0.0000
     37  O1D      -52.6170   65.3060   17.4590 O.co2 301  HEM301      0.0000
     38  O2D      -51.8560   63.3800   17.9300 O.co2 301  HEM301      0.0000
     39  NA       -46.4370   64.7450   17.8420 N.ar  301  HEM301      0.0000
     40  NB       -44.2910   65.9580   18.4460 N.2   301  HEM301      0.0000
     41  NC       -45.0650   66.7880   20.9300 N.ar  301  HEM301      0.0000
     42  ND       -47.4750   65.3720   20.1790 N.2   301  HEM301      0.0000
     43 FE        -45.8230   65.8350   19.2340 Fe    301  HEM301      0.0000
@<TRIPOS>BOND
     1    13    12   ar
     2     9     7    1
     3    12    14   ar
     4    12    11    1
     5    19    16    1
     6    10    11    1
     7    10     6    1
     8     7     6   ar
     9     7     8   ar
    10     2     8    2
    11     2    15    1
    12     6     5   ar
    13     8    39   ar
    14    16    15    1
    15    16    17    2
    16    21    20    1
    17    15    40    2
    18    37    36   ar
    19     5    39   ar
    20     5     1    2
    21    39    43    1
    22    38    36   ar
    23    17    20    1
    24    17    18    1
    25    36    35    1
    26    40    18    1
    27    40    43    1
    28     1    32    1
    29    18     3    2
    30    43    42    1
    31    43    41    1
    32    32    42    2
    33    32    31    1
    34    35    34    1
    35     3    22    1
    36    42    29    1
    37    31    34    1
    38    31    30    2
    39    41    22   ar
    40    41    25   ar
    41    22    23   ar
    42    29    30    1
    43    29     4    2
    44    30    33    1
    45    25     4    1
    46    25    24   ar
    47    23    24   ar
    48    23    26    1
    49    24    27    1
    50    27    28    2
