@<TRIPOS>MOLECULE
2e76_TDS_B_1.pdb
 30 31 0 0 0
SMALL
GASTEIGER

@<TRIPOS>ATOM
      1  CBC      -31.2240   48.8570   20.4850 C.2   1201  TDS1201    -0.0000
      2  CBB      -32.3390   49.4490   20.0220 C.2   1201  TDS1201    -0.0003
      3  CBA      -33.0470   49.0720   18.6940 C.2   1201  TDS1201    -0.0046
      4  CAZ      -34.4390   49.7520   18.4420 C.2   1201  TDS1201    -0.0261
      5  CAY      -35.0030   49.6350   16.9750 C.3   1201  TDS1201     0.0260
      6  CAX      -36.5610   49.6190   16.6750 C.3   1201  TDS1201     0.0047
      7  CAW      -37.0130   50.5890   15.5430 C.3   1201  TDS1201     0.0003
      8  CAV      -38.0980   50.4190   14.4210 C.3   1201  TDS1201     0.0000
      9  CAU      -37.4260   51.3720   13.3900 C.3   1201  TDS1201     0.0000
     10  CAT      -37.9980   52.5830   12.6000 C.3   1201  TDS1201     0.0003
     11  CAS      -38.6710   51.7860   11.5440 C.3   1201  TDS1201     0.0048
     12  CAR      -39.8900   51.9010   11.1620 C.3   1201  TDS1201     0.0289
     13  CAQ      -40.0170   50.9990   10.2720 C.2   1201  TDS1201     0.0072
     14  CAP      -41.3040   50.8710    9.6830 C.2   1201  TDS1201     0.1256
     15  OAO      -42.3130   51.7190   10.0650 O.3   1201  TDS1201    -0.4541
     16  CAH      -41.4180   49.8490    8.7560 C.3   1201  TDS1201     0.1189
     17  CAI      -40.2500   48.9580    8.4320 C.3   1201  TDS1201     0.0162
     18  CAG      -42.6310   49.6350    8.1450 C.2   1201  TDS1201     0.1857
     19  OAC      -42.7830   48.7180    7.3040 O.2   1201  TDS1201    -0.2907
     20  CAF      -43.6700   50.4860    8.4700 C.ar  1201  TDS1201     0.1069
     21  CAN      -43.5270   51.5140    9.4580 C.ar  1201  TDS1201     0.1922
     22  CAM      -44.6370   52.4890    9.7390 C.ar  1201  TDS1201     0.2636
     23  OBD      -44.5490   53.2400   10.9770 O.3   1201  TDS1201    -0.2800
     24  CAL      -45.9520   51.9730    9.1580 C.ar  1201  TDS1201     0.1835
     25  OAK      -47.2780   52.4470    9.4670 O.3   1201  TDS1201    -0.4680
     26  CAJ      -47.4050   53.7660   10.0080 C.3   1201  TDS1201     0.2526
     27  CAD      -45.7060   51.0890    8.3390 C.ar  1201  TDS1201     0.0774
     28  CAE      -44.9960   50.2410    7.8320 C.ar  1201  TDS1201     0.1476
     29  OAB      -45.3550   49.0580    7.0420 O.3   1201  TDS1201    -0.4711
     30  CAA      -46.0830   47.9080    7.4890 C.3   1201  TDS1201     0.2525
@<TRIPOS>BOND
     1    29    30    1
     2    29    28    1
     3    19    18    2
     4    28    27   ar
     5    28    20   ar
     6    18    20    1
     7    18    16    1
     8    27    24   ar
     9    17    16    1
    10    20    21   ar
    11    16    14    1
    12    24    25    1
    13    24    22   ar
    14    21    22   ar
    15    21    15    1
    16    25    26    1
    17    14    15    1
    18    14    13    2
    19    22    23    1
    20    13    12    1
    21    12    11    1
    22    11    10    1
    23    10     9    1
    24     9     8    1
    25     8     7    1
    26     7     6    1
    27     6     5    1
    28     5     4    1
    29     4     3    2
    30     3     2    1
    31     2     1    2
