@<TRIPOS>MOLECULE
2e77_FMN_A_1.pdb
 31 33 0 0 0
SMALL
GASTEIGER

@<TRIPOS>ATOM
      1  N1        81.9600    1.6330   23.1990 N.2   4512  FMN4512    -0.2887
      2  C2        83.2090    1.3510   23.6920 C.1   4512  FMN4512     0.3669
      3  O2        83.4370    1.4680   24.8810 O.2   4512  FMN4512    -0.1744
      4  N3        84.2360    0.9700   22.8440 N.2   4512  FMN4512    -0.2300
      5  C4        84.0270    0.8230   21.4900 C.1   4512  FMN4512     0.2513
      6  O4        85.0080    0.6760   20.7470 O.2   4512  FMN4512    -0.2057
      7  C4A       82.7530    1.1040   20.9740 C.2   4512  FMN4512     0.2706
      8  N5        82.4970    0.9640   19.6220 N.2   4512  FMN4512    -0.3841
      9  C5A       81.2630    1.2730   19.1070 C.2   4512  FMN4512     0.1452
     10  C6        81.0780    1.1550   17.7380 C.2   4512  FMN4512     0.0252
     11  C7        79.8360    1.4790   17.1900 C.2   4512  FMN4512    -0.0375
     12  C7M       79.7770    1.6740   15.7000 C.3   4512  FMN4512     0.0268
     13  C8        78.7790    1.8980   18.0340 C.3   4512  FMN4512     0.0417
     14  C8M       77.5470    2.5520   17.4510 C.3   4512  FMN4512     0.0091
     15  C9        78.9760    2.0070   19.4210 C.2   4512  FMN4512    -0.0049
     16  C9A       80.2240    1.6980   19.9640 C.2   4512  FMN4512     0.0795
     17  N10       80.4640    1.7830   21.3320 N.pl3 4512  FMN4512    -0.2545
     18  C10       81.7140    1.4950   21.8410 C.2   4512  FMN4512     0.2449
     19  C1'       79.4000    2.2330   22.2930 C.3   4512  FMN4512     0.1336
     20  C2'       79.4510    3.7450   22.4470 C.3   4512  FMN4512     0.2048
     21  O2'       80.5270    4.0350   23.3230 O.3   4512  FMN4512    -0.2185
     22  C3'       78.1310    4.2510   23.0700 C.3   4512  FMN4512     0.2165
     23  O3'       77.8770    3.4690   24.2210 O.3   4512  FMN4512    -0.2175
     24  C4'       76.9350    4.1540   22.1300 C.3   4512  FMN4512     0.2147
     25  O4'       77.2160    4.5940   20.8110 O.3   4512  FMN4512    -0.2176
     26  C5'       75.7950    5.0700   22.5920 C.3   4512  FMN4512     0.1892
     27  O5'       74.6400    4.7020   21.8550 O.3   4512  FMN4512    -0.2674
     28  P         74.0340    5.6000   20.6690 P.3   4512  FMN4512     0.5327
     29  O1P       72.9700    4.7840   19.9920 O.3   4512  FMN4512    -0.1145
     30  O2P       75.1660    5.9480   19.7220 O.2   4512  FMN4512    -0.2224
     31  O3P       73.4480    6.8720   21.2740 O.3   4512  FMN4512    -0.1145
@<TRIPOS>BOND
     1    12    11    1
     2    11    10    2
     3    11    13    1
     4    14    13    1
     5    10     9    1
     6    13    15    1
     7     9     8    2
     8     9    16    1
     9    15    16    2
    10     8     7    2
    11    30    28    2
    12    16    17    1
    13    29    28    1
    14    28    31    1
    15    28    27    1
    16     6     5    2
    17    25    24    1
    18     7     5    1
    19     7    18    1
    20    17    18    1
    21    17    19    1
    22     5     4    2
    23    18     1    2
    24    27    26    1
    25    24    26    1
    26    24    22    1
    27    19    20    1
    28    20    22    1
    29    20    21    1
    30     4     2    2
    31    22    23    1
    32     1     2    2
    33     2     3    2
