@<TRIPOS>MOLECULE
2e7e_HEM_A_1.pdb
 43 50 0 0 0
SMALL
GASTEIGER

@<TRIPOS>ATOM
      1 FE        -90.6910  -12.1060  -88.2860 Fe    300  HEM300      0.0000
      2  CHA      -89.1830   -9.1320  -87.5890 C.2   300  HEM300      0.0000
      3  CHB      -89.2440  -12.1180  -91.3780 C.2   300  HEM300      0.0000
      4  CHC      -91.9590  -15.2260  -88.8420 C.2   300  HEM300      0.0000
      5  CHD      -92.4900  -11.9170  -85.4100 C.2   300  HEM300      0.0000
      6  NA       -89.4620  -10.8630  -89.2930 N.ar  300  HEM300      0.0000
      7  C1A      -88.9240   -9.6670  -88.8520 C.ar  300  HEM300      0.0000
      8  C2A      -88.0750   -9.0590  -89.8580 C.ar  300  HEM300      0.0000
      9  C3A      -88.1470   -9.8680  -90.9580 C.ar  300  HEM300      0.0000
     10  C4A      -88.9800  -11.0180  -90.5730 C.ar  300  HEM300      0.0000
     11  CMA      -87.5190   -9.6790  -92.3100 C.3   300  HEM300      0.0000
     12  CAA      -87.2590   -7.7640  -89.6810 C.3   300  HEM300      0.0000
     13  CBA      -88.0680   -6.4300  -89.8470 C.3   300  HEM300      0.0000
     14  CGA      -87.5520   -5.2430  -89.2170 C.2   300  HEM300      0.0000
     15  O1A      -86.3180   -5.2810  -88.8070 O.co2 300  HEM300      0.0000
     16  O2A      -88.2270   -4.1970  -89.0610 O.co2 300  HEM300      0.0000
     17  NB       -90.6700  -13.3710  -89.8110 N.2   300  HEM300      0.0000
     18  C1B      -90.0810  -13.1890  -91.0460 C.2   300  HEM300      0.0000
     19  C2B      -90.4530  -14.2560  -91.9680 C.2   300  HEM300      0.0000
     20  C3B      -91.0720  -15.2050  -91.2160 C.2   300  HEM300      0.0000
     21  C4B      -91.2640  -14.6180  -89.8910 C.2   300  HEM300      0.0000
     22  CMB      -90.1790  -14.2400  -93.4550 C.3   300  HEM300      0.0000
     23  CAB      -91.4850  -16.5980  -91.6060 C.3   300  HEM300      0.0000
     24  CBB      -92.9260  -16.6770  -92.1420 C.3   300  HEM300      0.0000
     25  NC       -91.9210  -13.3280  -87.3030 N.ar  300  HEM300      0.0000
     26  C1C      -92.3380  -14.6130  -87.6790 C.ar  300  HEM300      0.0000
     27  C2C      -93.2220  -15.1910  -86.6780 C.ar  300  HEM300      0.0000
     28  C3C      -93.3120  -14.2720  -85.6960 C.ar  300  HEM300      0.0000
     29  C4C      -92.5650  -13.1130  -86.1120 C.ar  300  HEM300      0.0000
     30  CMC      -93.8700  -16.5620  -86.7850 C.3   300  HEM300      0.0000
     31  CAC      -94.0440  -14.4110  -84.3530 C.3   300  HEM300      0.0000
     32  CBC      -95.5810  -14.2430  -84.5030 C.3   300  HEM300      0.0000
     33  ND       -90.7990  -10.7940  -86.8000 N.2   300  HEM300      0.0000
     34  C1D      -91.5970  -10.8760  -85.6720 C.2   300  HEM300      0.0000
     35  C2D      -91.3950   -9.7290  -84.7870 C.2   300  HEM300      0.0000
     36  C3D      -90.5140   -8.9300  -85.4280 C.2   300  HEM300      0.0000
     37  C4D      -90.1230   -9.6200  -86.6710 C.2   300  HEM300      0.0000
     38  CMD      -92.0790   -9.5740  -83.4580 C.3   300  HEM300      0.0000
     39  CAD      -89.9600   -7.5730  -85.0420 C.3   300  HEM300      0.0000
     40  CBD      -88.5600   -7.6760  -84.2940 C.3   300  HEM300      0.0000
     41  CGD      -88.0660   -6.4180  -83.8870 C.2   300  HEM300      0.0000
     42  O1D      -87.8740   -6.1890  -82.6520 O.co2 300  HEM300      0.0000
     43  O2D      -87.8070   -5.5140  -84.7270 O.co2 300  HEM300      0.0000
@<TRIPOS>BOND
     1    22    19    1
     2    11     9    1
     3    24    23    1
     4    19    20    2
     5    19    18    1
     6    23    20    1
     7     3    18    1
     8     3    10    2
     9    20    21    1
    10    18    17    2
    11     9    10   ar
    12     9     8   ar
    13    10     6   ar
    14    21    17    1
    15    21     4    2
    16     8    12    1
    17     8     7   ar
    18    13    12    1
    19    13    14    1
    20    17     1    1
    21     6     7   ar
    22     6     1    1
    23    14    16   ar
    24    14    15   ar
    25     7     2    2
    26     4    26    1
    27     1    25    1
    28     1    33    1
    29    26    25   ar
    30    26    27   ar
    31     2    37    1
    32    25    29   ar
    33    33    37    2
    34    33    34    1
    35    30    27    1
    36    27    28   ar
    37    37    36    1
    38    29    28   ar
    39    29     5    1
    40    28    31    1
    41    34     5    2
    42    34    35    1
    43    36    39    1
    44    36    35    2
    45    39    40    1
    46    35    38    1
    47    43    41   ar
    48    32    31    1
    49    40    41    1
    50    41    42   ar
