@<TRIPOS>MOLECULE
2e7f_C2F_A_1.pdb
 33 35 0 0 0
SMALL
GASTEIGER

@<TRIPOS>ATOM
      1  N1        -9.2390   76.0830  120.9340 N.2   3000  C2F3000    -0.2726
      2  C2        -8.5490   77.1760  120.4910 C.1   3000  C2F3000     0.2603
      3  NA2       -8.1260   78.0900  121.4060 N.pl3 3000  C2F3000    -0.0221
      4  N3        -8.2750   77.3670  119.1570 N.2   3000  C2F3000    -0.2515
      5  C4        -8.6680   76.4920  118.1870 C.1   3000  C2F3000     0.2218
      6  O4        -8.3990   76.7000  116.9870 O.2   3000  C2F3000    -0.2109
      7  C4A       -9.4300   75.2700  118.5890 C.3   3000  C2F3000     0.2763
      8  N5        -9.8870   74.2820  117.6300 N.3   3000  C2F3000    -0.2435
      9  C6       -10.0830   72.9240  118.2550 C.3   3000  C2F3000     0.1062
     10  C7       -10.8610   72.9860  119.6220 C.3   3000  C2F3000     0.1547
     11  N8       -10.3720   74.0370  120.5250 N.2   3000  C2F3000    -0.2096
     12  C8A       -9.6920   75.1260  120.0740 C.1   3000  C2F3000     0.1050
     13  C9        -8.6910   72.2590  118.4560 C.3   3000  C2F3000     0.1302
     14  N10       -8.7580   70.8160  118.6180 N.pl3 3000  C2F3000    -0.2361
     15  C11      -11.1390   74.7520  116.9870 C.3   3000  C2F3000     0.0915
     16  C12       -9.3850   68.0290  115.5380 C.ar  3000  C2F3000     0.0551
     17  C13       -9.4980   67.6520  116.9090 C.ar  3000  C2F3000     0.0059
     18  C14       -9.2840   68.6030  117.9280 C.ar  3000  C2F3000     0.0162
     19  C15       -8.9540   69.9380  117.5900 C.ar  3000  C2F3000     0.0654
     20  C16       -8.8410   70.3160  116.2020 C.ar  3000  C2F3000     0.0162
     21  C17       -9.0560   69.3670  115.1870 C.ar  3000  C2F3000     0.0059
     22  C         -9.6120   67.0040  114.4710 C.2   3000  C2F3000     0.2652
     23  O         -8.8880   67.0040  113.4870 O.2   3000  C2F3000    -0.2684
     24  N        -10.6150   66.1270  114.6670 N.am  3000  C2F3000    -0.1918
     25  CA       -11.0620   65.0270  113.8090 C.3   3000  C2F3000     0.1986
     26  CB       -12.3250   64.4300  114.4480 C.3   3000  C2F3000     0.0451
     27  CG       -12.1610   62.9080  114.5010 C.3   3000  C2F3000     0.1164
     28  CD       -13.4590   62.1950  114.8830 C.2   3000  C2F3000     0.3649
     29  OE1      -14.4520   62.9510  115.0830 O.co2 3000  C2F3000    -0.2457
     30  OE2      -13.5290   60.9460  115.0040 O.co2 3000  C2F3000    -0.2457
     31  CT       -11.4000   65.5520  112.4310 C.2   3000  C2F3000     0.3842
     32  O1       -12.0430   66.6180  112.3250 O.co2 3000  C2F3000    -0.2437
     33  O2       -11.0190   64.9100  111.4380 O.co2 3000  C2F3000    -0.2437
@<TRIPOS>BOND
     1    33    31   ar
     2    32    31   ar
     3    31    25    1
     4    23    22    2
     5    25    26    1
     6    25    24    1
     7    26    27    1
     8    22    24   am
     9    22    16    1
    10    27    28    1
    11    28    30   ar
    12    28    29   ar
    13    21    16   ar
    14    21    20   ar
    15    16    17   ar
    16    20    19   ar
    17    17    18   ar
    18    15     8    1
    19     6     5    2
    20    19    18   ar
    21    19    14    1
    22     8     9    1
    23     8     7    1
    24     5     7    1
    25     5     4    2
    26     9    13    1
    27     9    10    1
    28    13    14    1
    29     7    12    1
    30     4     2    2
    31    10    11    1
    32    12    11    2
    33    12     1    2
    34     2     1    2
    35     2     3    1
