@<TRIPOS>MOLECULE
2e7i_PLP_A_1.pdb
 15 15 0 0 0
SMALL
GASTEIGER

@<TRIPOS>ATOM
      1  N1       -11.7900 -144.0180  -14.4300 N.ar  1209  PLP1209    -0.2452
      2  C2       -12.2660 -144.8720  -13.5140 C.ar  1209  PLP1209     0.0978
      3  C2A      -13.6270 -144.6230  -12.8620 C.3   1209  PLP1209     0.0555
      4  C3       -11.5190 -145.9880  -13.1520 C.ar  1209  PLP1209     0.2049
      5  O3       -11.9960 -146.8330  -12.1980 O.3   1209  PLP1209    -0.2857
      6  C4       -10.2800 -146.2290  -13.7330 C.ar  1209  PLP1209     0.0182
      7  C4A       -9.4590 -147.4590  -13.3370 C.3   1209  PLP1209     0.0342
      8  C5        -9.8230 -145.3130  -14.6770 C.ar  1209  PLP1209     0.0261
      9  C6       -10.6150 -144.2160  -14.9990 C.ar  1209  PLP1209     0.0965
     10  C5A       -8.4620 -145.4090  -15.3720 C.3   1209  PLP1209     0.1815
     11  O4P       -8.4240 -146.4710  -16.3280 O.3   1209  PLP1209    -0.2653
     12  P         -7.1720 -146.6060  -17.3300 P.3   1209  PLP1209     0.5329
     13  O1P       -7.5360 -147.2590  -18.6060 O.2   1209  PLP1209    -0.2224
     14  O2P       -6.0210 -147.3930  -16.5280 O.3   1209  PLP1209    -0.1145
     15  O3P       -6.6170 -145.1120  -17.5450 O.3   1209  PLP1209    -0.1145
@<TRIPOS>BOND
     1    13    12    2
     2    15    12    1
     3    12    14    1
     4    12    11    1
     5    11    10    1
     6    10     8    1
     7     9     8   ar
     8     9     1   ar
     9     8     6   ar
    10     1     2   ar
    11     6     7    1
    12     6     4   ar
    13     2     4   ar
    14     2     3    1
    15     4     5    1
