@<TRIPOS>MOLECULE
2e7j_PLP_A_1.pdb
 15 15 0 0 0
SMALL
GASTEIGER

@<TRIPOS>ATOM
      1  N1         3.0670  -27.0360  -40.6430 N.ar  1209  PLP1209    -0.2452
      2  C2         3.5130  -27.8590  -41.6030 C.ar  1209  PLP1209     0.0978
      3  C2A        4.6750  -27.4270  -42.5010 C.3   1209  PLP1209     0.0555
      4  C3         2.9110  -29.0990  -41.7890 C.ar  1209  PLP1209     0.2049
      5  O3         3.3450  -29.9070  -42.7930 O.3   1209  PLP1209    -0.2857
      6  C4         1.8480  -29.4970  -40.9830 C.ar  1209  PLP1209     0.0182
      7  C4A        1.1460  -30.8450  -41.1740 C.3   1209  PLP1209     0.0342
      8  C5         1.4180  -28.6110  -39.9990 C.ar  1209  PLP1209     0.0261
      9  C6         2.0610  -27.3840  -39.8630 C.ar  1209  PLP1209     0.0965
     10  C5A        0.2370  -28.8920  -39.0650 C.3   1209  PLP1209     0.1815
     11  O4P        0.3130  -30.1970  -38.4800 O.3   1209  PLP1209    -0.2653
     12  P         -0.8500  -30.7340  -37.5060 P.3   1209  PLP1209     0.5329
     13  O1P       -0.3280  -31.3570  -36.2680 O.3   1209  PLP1209    -0.1145
     14  O2P       -1.7360  -31.7360  -38.4020 O.2   1209  PLP1209    -0.2224
     15  O3P       -1.7970  -29.4690  -37.1930 O.3   1209  PLP1209    -0.1145
@<TRIPOS>BOND
     1     5     4    1
     2     3     2    1
     3     4     2   ar
     4     4     6   ar
     5     2     1   ar
     6     7     6    1
     7     6     8   ar
     8     1     9   ar
     9     8     9   ar
    10     8    10    1
    11    10    11    1
    12    11    12    1
    13    14    12    2
    14    12    15    1
    15    12    13    1
