@<TRIPOS>MOLECULE
2e7p_GSH_A_1.pdb
 20 19 0 0 0
SMALL
GASTEIGER

@<TRIPOS>ATOM
      1  N1       -22.7800   52.9600   -8.4860 N.3   1001  GSH1001    -0.1208
      2  CA1      -22.9940   51.7180   -7.7800 C.3   1001  GSH1001     0.1948
      3  C1       -22.3110   51.8320   -6.4450 C.2   1001  GSH1001     0.3819
      4  O11      -22.5460   51.0160   -5.5290 O.co2 1001  GSH1001    -0.2441
      5  O12      -21.5680   52.7900   -6.2970 O.co2 1001  GSH1001    -0.2441
      6  CB1      -22.4550   50.5240   -8.5710 C.3   1001  GSH1001     0.0402
      7  CG1      -23.1840   49.2720   -8.1160 C.3   1001  GSH1001     0.0889
      8  CD1      -23.1880   48.1580   -9.1320 C.2   1001  GSH1001     0.2418
      9  OE1      -22.9780   48.3900  -10.3230 O.2   1001  GSH1001    -0.2733
     10  N2       -23.4680   46.9510   -8.6260 N.am  1001  GSH1001    -0.1968
     11  CA2      -23.5150   45.7560   -9.4500 C.3   1001  GSH1001     0.1843
     12  C2       -24.9280   45.1810   -9.4100 C.2   1001  GSH1001     0.2627
     13  O2       -25.5990   45.2130   -8.3750 O.2   1001  GSH1001    -0.2714
     14  CB2      -22.4130   44.7410   -9.0030 C.3   1001  GSH1001     0.0997
     15  SG2      -20.5890   44.9860   -9.0030 S.3   1001  GSH1001    -0.0797
     16  N3       -25.4460   44.6480  -10.5340 N.am  1001  GSH1001    -0.1917
     17  CA3      -26.7970   44.0820  -10.6500 C.3   1001  GSH1001     0.2285
     18  C3       -27.0580   42.8280   -9.8280 C.2   1001  GSH1001     0.3865
     19  O31      -26.0910   42.2060   -9.3150 O.co2 1001  GSH1001    -0.2437
     20  O32      -28.2420   42.4110   -9.7100 O.co2 1001  GSH1001    -0.2437
@<TRIPOS>BOND
     1    17    16    1
     2    17    18    1
     3    16    12   am
     4     9     8    2
     5    18    20   ar
     6    18    19   ar
     7    11    12    1
     8    11    14    1
     9    11    10    1
    10    12    13    2
    11     8    10   am
    12     8     7    1
    13    14    15    1
    14     6     7    1
    15     6     2    1
    16     1     2    1
    17     2     3    1
    18     3     5   ar
    19     3     4   ar
