@<TRIPOS>MOLECULE
2e7q_GLA_A_1.pdb
 11 11 0 0 0
SMALL
GASTEIGER

@<TRIPOS>ATOM
      1  C1       127.1290    7.7140   -2.7890 C.3   400  GLA400      0.1777
      2  C2       125.7890    7.3230   -2.1470 C.3   400  GLA400      0.2141
      3  C3       125.8880    7.5040   -0.6250 C.3   400  GLA400      0.2173
      4  C4       127.0600    6.6650   -0.0770 C.3   400  GLA400      0.2142
      5  C5       128.3730    6.9650   -0.8350 C.3   400  GLA400      0.1810
      6  C6       129.4700    5.9660   -0.4880 C.3   400  GLA400      0.2141
      7  O2       124.7420    8.1230   -2.6770 O.3   400  GLA400     -0.2176
      8  O3       124.6760    7.1120   -0.0070 O.3   400  GLA400     -0.2175
      9  O4       126.7660    5.2790   -0.1760 O.3   400  GLA400     -0.2176
     10  O5       128.1720    6.8860   -2.2710 O.3   400  GLA400     -0.3481
     11  O6       130.7420    6.3900   -0.9640 O.3   400  GLA400     -0.2176
@<TRIPOS>BOND
     1     1    10    1
     2     1     2    1
     3     7     2    1
     4    10     5    1
     5     2     3    1
     6    11     6    1
     7     5     6    1
     8     5     4    1
     9     3     4    1
    10     3     8    1
    11     9     4    1
