@<TRIPOS>MOLECULE
2e7r_SAH_A_1.pdb
 26 28 0 0 0
SMALL
GASTEIGER

@<TRIPOS>ATOM
      1  N         33.4980   92.5700   65.7610 N.3   1300  SAH1300    -0.1208
      2  CA        32.0560   92.1160   65.5730 C.3   1300  SAH1300     0.1952
      3  CB        31.4130   91.4050   66.7260 C.3   1300  SAH1300     0.0422
      4  CG        32.0600   90.1450   67.2650 C.3   1300  SAH1300     0.0597
      5  SD        30.9000   89.4450   68.5010 S.3   1300  SAH1300    -0.1375
      6  C         31.2150   93.4030   65.1870 C.2   1300  SAH1300     0.3819
      7  O         31.7970   94.5000   65.1210 O.co2 1300  SAH1300    -0.2441
      8  OXT       29.9550   93.2190   64.9600 O.co2 1300  SAH1300    -0.2441
      9  C5'       30.0050   88.3420   67.4840 C.3   1300  SAH1300     0.0899
     10  C4'       28.5110   88.2380   67.9880 C.3   1300  SAH1300     0.1630
     11  O4'       27.8710   89.5160   67.7380 O.3   1300  SAH1300    -0.3153
     12  C3'       27.6840   87.2140   67.2980 C.3   1300  SAH1300     0.2168
     13  O3'       27.8470   85.9380   67.9100 O.3   1300  SAH1300    -0.2175
     14  C2'       26.2690   87.8340   67.4150 C.3   1300  SAH1300     0.2569
     15  O2'       25.6760   87.5620   68.6890 O.3   1300  SAH1300    -0.2130
     16  C1'       26.5020   89.3330   67.1570 C.3   1300  SAH1300     0.3185
     17  N9        26.4850   89.7060   65.8560 N.pl3 1300  SAH1300    -0.1439
     18  C8        27.4620   90.0000   64.9180 C.3   1300  SAH1300     0.3377
     19  N7        27.0200   90.3370   63.7450 N.2   1300  SAH1300    -0.2095
     20  C5        25.6050   90.2780   63.8700 C.2   1300  SAH1300     0.2526
     21  C6        24.5520   90.5440   62.9240 C.2   1300  SAH1300     0.4393
     22  N6        24.7620   90.9220   61.6550 N.pl3 1300  SAH1300     0.2180
     23  N1        23.2770   90.3780   63.4180 N.2   1300  SAH1300     0.0021
     24  C2        23.0110   89.9940   64.6980 C.3   1300  SAH1300     0.5254
     25  N3        23.9920   89.7330   65.6310 N.2   1300  SAH1300    -0.0055
     26  C4        25.2590   89.8950   65.1480 C.2   1300  SAH1300     0.3518
@<TRIPOS>BOND
     1    22    21    1
     2    21    23    2
     3    21    20    1
     4    23    24    1
     5    19    20    2
     6    19    18    1
     7    20    26    1
     8    24    25    1
     9    18    17    1
    10     8     6   ar
    11     7     6   ar
    12    26    25    2
    13    26    17    1
    14     6     2    1
    15     2     1    1
    16     2     3    1
    17    17    16    1
    18     3     4    1
    19    16    14    1
    20    16    11    1
    21     4     5    1
    22    12    14    1
    23    12    13    1
    24    12    10    1
    25    14    15    1
    26     9    10    1
    27     9     5    1
    28    11    10    1
