@<TRIPOS>MOLECULE
2e7t_GLC_A_1.pdb
 12 12 0 0 0
SMALL
GASTEIGER

@<TRIPOS>ATOM
      1  C1       131.4110   12.7410   -9.6210 C.3   402  GLC402      0.3024
      2  C2       131.9650   11.3390   -9.4640 C.3   402  GLC402      0.2434
      3  C3       131.0490   10.5080   -8.5920 C.3   402  GLC402      0.2199
      4  C4       130.7300   11.1930   -7.2610 C.3   402  GLC402      0.2144
      5  C5       130.2880   12.6690   -7.5000 C.3   402  GLC402      0.1836
      6  C6       130.1460   13.5070   -6.2250 C.3   402  GLC402      0.2142
      7  O1       130.1770   12.6770  -10.2280 O.3   402  GLC402     -0.1869
      8  O2       132.0820   10.7190  -10.7330 O.3   402  GLC402     -0.2148
      9  O3       131.6870    9.2790   -8.3280 O.3   402  GLC402     -0.2174
     10  O4       129.6950   10.4240   -6.5960 O.3   402  GLC402     -0.2176
     11  O5       131.2530   13.3490   -8.3320 O.3   402  GLC402     -0.3236
     12  O6       130.0360   14.8970   -6.5020 O.3   402  GLC402     -0.2176
@<TRIPOS>BOND
     1     8     2    1
     2     7     1    1
     3     1     2    1
     4     1    11    1
     5     2     3    1
     6     3     9    1
     7     3     4    1
     8    11     5    1
     9     5     4    1
    10     5     6    1
    11     4    10    1
    12    12     6    1
