@<TRIPOS>MOLECULE
2e7t_GAL_A_1.pdb
 11 11 0 0 0
SMALL
GASTEIGER

@<TRIPOS>ATOM
      1  C1       129.2710   10.8450   -5.3610 C.3   401  GAL401      0.1777
      2  C2       128.5530    9.7280   -4.6110 C.3   401  GAL401      0.2141
      3  C3       128.1370   10.2930   -3.2620 C.3   401  GAL401      0.2173
      4  C4       129.3280   10.8640   -2.5350 C.3   401  GAL401      0.2142
      5  C5       130.0290   11.8970   -3.3930 C.3   401  GAL401      0.1810
      6  C6       131.2930   12.4210   -2.7450 C.3   401  GAL401      0.2141
      7  O2       127.4080    9.3320   -5.3500 O.3   401  GAL401     -0.2176
      8  O3       127.4960    9.3360   -2.4030 O.3   401  GAL401     -0.2175
      9  O4       130.2260    9.8140   -2.2720 O.3   401  GAL401     -0.2176
     10  O5       130.4030   11.2850   -4.6280 O.3   401  GAL401     -0.3481
     11  O6       132.2830   12.7330   -3.7040 O.3   401  GAL401     -0.2176
@<TRIPOS>BOND
     1     1    10    1
     2     1     2    1
     3     7     2    1
     4    10     5    1
     5     2     3    1
     6    11     6    1
     7     5     6    1
     8     5     4    1
     9     3     4    1
    10     3     8    1
    11     4     9    1
