@<TRIPOS>MOLECULE
2e7u_PMP_A_1.pdb
 16 16 0 0 0
SMALL
GASTEIGER

@<TRIPOS>ATOM
      1  N1        16.6370   30.0040   47.3090 N.ar  1001  PMP1001    -0.2452
      2  C2        15.7880   29.9400   46.2550 C.ar  1001  PMP1001     0.0978
      3  C2A       16.3360   29.8840   44.8460 C.3   1001  PMP1001     0.0555
      4  C3        14.3870   29.9220   46.4650 C.ar  1001  PMP1001     0.2063
      5  O3        13.5190   29.8550   45.4160 O.3   1001  PMP1001    -0.2856
      6  C4        13.8950   29.9750   47.7940 C.ar  1001  PMP1001     0.0369
      7  C4A       12.3890   29.9570   48.0470 C.3   1001  PMP1001     0.1386
      8  N4A       11.7670   31.1650   47.4790 N.3   1001  PMP1001    -0.1261
      9  C5        14.8250   30.0420   48.8770 C.ar  1001  PMP1001     0.0275
     10  C6        16.2060   30.0540   48.5910 C.ar  1001  PMP1001     0.0965
     11  C5A       14.3120   30.0930   50.2990 C.3   1001  PMP1001     0.1816
     12  O4P       13.9700   28.7580   50.6880 O.3   1001  PMP1001    -0.2653
     13  P         13.3980   28.7700   52.2020 P.3   1001  PMP1001     0.5329
     14  O1P       12.1780   29.6210   52.2460 O.2   1001  PMP1001    -0.2224
     15  O2P       13.0210   27.2570   52.6300 O.3   1001  PMP1001    -0.1145
     16  O3P       14.4810   29.3620   53.2330 O.3   1001  PMP1001    -0.1145
@<TRIPOS>BOND
     1     3     2    1
     2     5     4    1
     3     2     4   ar
     4     2     1   ar
     5     4     6   ar
     6     1    10   ar
     7     8     7    1
     8     6     7    1
     9     6     9   ar
    10    10     9   ar
    11     9    11    1
    12    11    12    1
    13    12    13    1
    14    13    14    2
    15    13    15    1
    16    13    16    1
