@<TRIPOS>MOLECULE
2e7w_GLN_A_1.pdb
 10 9 0 0 0
SMALL
GASTEIGER

@<TRIPOS>ATOM
      1  N         32.9770   55.0060   -7.9680 N.3   1001  GLN1001    -0.1208
      2  CA        32.7890   53.5380   -8.1230 C.3   1001  GLN1001     0.1948
      3  C         32.2840   52.9020   -6.8230 C.2   1001  GLN1001     0.3819
      4  O         32.5480   53.4610   -5.7360 O.co2 1001  GLN1001    -0.2441
      5  CB        34.1160   52.8980   -8.5340 C.3   1001  GLN1001     0.0403
      6  CG        34.1320   51.3920   -8.4900 C.3   1001  GLN1001     0.0906
      7  CD        33.1650   50.7560   -9.4720 C.2   1001  GLN1001     0.2608
      8  OE1       33.2370   49.5560   -9.7260 O.2   1001  GLN1001    -0.2717
      9  NE2       32.2520   51.5530  -10.0240 N.am  1001  GLN1001    -0.0878
     10  OXT       31.6440   51.8430   -6.9080 O.co2 1001  GLN1001    -0.2441
@<TRIPOS>BOND
     1     9     7   am
     2     8     7    2
     3     7     6    1
     4     5     6    1
     5     5     2    1
     6     2     1    1
     7     2     3    1
     8    10     3   ar
     9     3     4   ar
