@<TRIPOS>MOLECULE
2e7x_GLN_A_1.pdb
 10 9 0 0 0
SMALL
GASTEIGER

@<TRIPOS>ATOM
      1  N         54.7690   32.0880    8.7850 N.3   501  GLN501     -0.1208
      2  CA        53.3550   32.3880    8.4230 C.3   501  GLN501      0.1948
      3  C         53.0900   31.9910    6.9740 C.2   501  GLN501      0.3819
      4  O         53.9270   31.2490    6.4200 O.co2 501  GLN501     -0.2441
      5  CB        53.0740   33.8810    8.6250 C.3   501  GLN501      0.0403
      6  CG        51.6050   34.2810    8.5290 C.3   501  GLN501      0.0906
      7  CD        50.7180   33.5530    9.5330 C.2   501  GLN501      0.2608
      8  OE1       49.5310   33.8520    9.6560 O.2   501  GLN501     -0.2717
      9  NE2       51.2910   32.5920   10.2490 N.am  501  GLN501     -0.0878
     10  OXT       52.0630   32.4250    6.4120 O.co2 501  GLN501     -0.2441
@<TRIPOS>BOND
     1    10     3   ar
     2     4     3   ar
     3     3     2    1
     4     2     5    1
     5     2     1    1
     6     6     5    1
     7     6     7    1
     8     7     8    2
     9     7     9   am
