@<TRIPOS>MOLECULE
2e7z_MGD_A_1.pdb
 47 52 0 0 0
SMALL
GASTEIGER

@<TRIPOS>ATOM
      1  PB        45.6540   78.2250   28.4860 P.3   801  MGD801      0.2189
      2  O1B       44.5220   77.5490   29.2190 O.3   801  MGD801     -0.4371
      3  O2B       45.4420   79.5510   27.8530 O.2   801  MGD801     -0.5170
      4  O3B       46.2380   77.2870   27.3230 O.3   801  MGD801     -0.2703
      5  O3A       45.6310   74.8820   26.9260 O.3   801  MGD801     -0.3109
      6  PA        46.8770   75.8130   27.3540 P.3   801  MGD801      0.2189
      7  O1A       47.9450   75.8370   26.3020 O.2   801  MGD801     -0.5170
      8  O2A       47.2150   75.4040   28.7560 O.3   801  MGD801     -0.4371
      9  O5'       46.8600   78.3320   29.5510 O.3   801  MGD801     -0.3112
     10  C5'       48.1810   78.5350   29.0790 C.3   801  MGD801      0.1813
     11  C4'       48.8940   79.3380   30.1490 C.3   801  MGD801      0.1799
     12  O4'       50.2970   79.2940   29.8470 O.3   801  MGD801     -0.3326
     13  C3'       48.5600   80.8260   30.1250 C.3   801  MGD801      0.2158
     14  O3'       48.0870   81.2170   31.4250 O.3   801  MGD801     -0.2175
     15  C2'       49.8620   81.5610   29.7420 C.3   801  MGD801      0.2310
     16  O2'       50.0800   82.8430   30.3640 O.3   801  MGD801     -0.2158
     17  C1'       50.8940   80.5640   30.1960 C.3   801  MGD801      0.2293
     18  N9        52.1760   80.5730   29.4750 N.pl3 801  MGD801     -0.2354
     19  C8        52.3780   80.7520   28.1460 C.3   801  MGD801      0.2246
     20  N7        53.6740   80.5920   27.8340 N.2   801  MGD801     -0.2322
     21  C5        54.3050   80.2310   28.9730 C.2   801  MGD801      0.2182
     22  C6        55.6630   79.9010   29.3700 C.1   801  MGD801      0.2372
     23  O6        56.5960   79.8870   28.5400 O.2   801  MGD801     -0.2069
     24  N1        55.8420   79.5750   30.6610 N.2   801  MGD801     -0.2485
     25  C2        54.9070   79.6270   31.6040 C.1   801  MGD801      0.2531
     26  N2        55.2320   79.2700   32.8800 N.pl3 801  MGD801     -0.0226
     27  N3        53.6450   79.9290   31.3140 N.2   801  MGD801     -0.3074
     28  C4        53.3200   80.2210   30.0380 C.2   801  MGD801      0.2300
     29  C10       45.3850   74.7000   25.5310 C.3   801  MGD801      0.1837
     30  C11       44.4340   73.5290   25.4070 C.3   801  MGD801      0.1762
     31  O11       43.2020   73.9730   25.9720 O.3   801  MGD801     -0.3271
     32  C12       44.2600   73.1520   23.9560 C.2   801  MGD801      0.0473
     33  S12       45.6620   72.8420   23.0270 S.2   801  MGD801     -0.0526
     34  C13       43.0360   73.0040   23.4230 C.2   801  MGD801      0.0449
     35  S13       42.8000   72.7040   21.7630 S.2   801  MGD801     -0.0530
     36  C14       41.7790   73.1110   24.2300 C.3   801  MGD801      0.1850
     37  N15       41.0210   74.3110   23.9110 N.2   801  MGD801     -0.2411
     38  C16       39.9290   74.5020   24.7060 C.2   801  MGD801      0.2467
     39  C17       38.6860   75.1480   24.2630 C.1   801  MGD801      0.2441
     40  O17       38.5670   75.5550   23.0860 O.2   801  MGD801     -0.2063
     41  N18       37.6890   75.2710   25.1620 N.2   801  MGD801     -0.2474
     42  C19       37.7800   74.8300   26.4420 C.1   801  MGD801      0.2608
     43  N19       36.7480   74.9900   27.2970 N.pl3 801  MGD801     -0.0220
     44  N20       38.8950   74.2570   26.9130 N.2   801  MGD801     -0.2682
     45  C21       39.9510   74.0630   26.1130 C.1   801  MGD801      0.1293
     46  N22       41.0410   73.4600   26.5940 N.2   801  MGD801     -0.1763
     47  C23       42.1310   73.0670   25.7260 C.3   801  MGD801      0.2573
@<TRIPOS>BOND
     1    35    34    2
     2    33    32    2
     3    40    39    2
     4    34    32    1
     5    34    36    1
     6    37    36    1
     7    37    38    2
     8    32    30    1
     9    36    47    1
    10    39    38    1
    11    39    41    2
    12    38    45    1
    13    41    42    2
    14    30    29    1
    15    30    31    1
    16    29     5    1
    17    47    31    1
    18    47    46    1
    19    45    46    2
    20    45    44    2
    21     7     6    2
    22    42    44    2
    23    42    43    1
    24     5     6    1
    25     4     6    1
    26     4     1    1
    27     6     8    1
    28    20    19    1
    29    20    21    2
    30     3     1    2
    31    19    18    1
    32     1     2    1
    33     1     9    1
    34    23    22    2
    35    21    22    1
    36    21    28    1
    37    10     9    1
    38    10    11    1
    39    22    24    2
    40    18    28    1
    41    18    17    1
    42    15    13    1
    43    15    17    1
    44    15    16    1
    45    12    11    1
    46    12    17    1
    47    28    27    2
    48    13    11    1
    49    13    14    1
    50    24    25    2
    51    27    25    2
    52    25    26    1
