@<TRIPOS>MOLECULE
2e80_HEM_A_1.pdb
 43 50 0 0 0
SMALL
GASTEIGER

@<TRIPOS>ATOM
      1  CHA       25.4270   53.8390   18.2390 C.2   1508  HEM1508     0.0000
      2  CHB       28.9730   54.1290   15.0140 C.2   1508  HEM1508     0.0000
      3  CHC       29.0920   58.9190   15.5800 C.2   1508  HEM1508     0.0000
      4  CHD       26.2180   58.3860   19.4140 C.2   1508  HEM1508     0.0000
      5  C1A       26.4110   53.4880   17.3300 C.ar  1508  HEM1508     0.0000
      6  C2A       26.6280   52.1380   16.8450 C.ar  1508  HEM1508     0.0000
      7  C3A       27.6260   52.2200   15.9310 C.ar  1508  HEM1508     0.0000
      8  C4A       28.0260   53.6110   15.8710 C.ar  1508  HEM1508     0.0000
      9  CMA       28.1570   51.0510   15.0930 C.3   1508  HEM1508     0.0000
     10  CAA       25.8220   50.8940   17.2370 C.3   1508  HEM1508     0.0000
     11  CBA       24.5100   50.7900   16.4680 C.3   1508  HEM1508     0.0000
     12  CGA       24.7230   50.6400   14.9750 C.2   1508  HEM1508     0.0000
     13  O1A       25.1430   49.5460   14.5410 O.co2 1508  HEM1508     0.0000
     14  O2A       24.4840   51.6190   14.2370 O.co2 1508  HEM1508     0.0000
     15  C1B       29.3210   55.4550   14.8560 C.2   1508  HEM1508     0.0000
     16  C2B       30.1270   55.9700   13.7590 C.2   1508  HEM1508     0.0000
     17  C3B       30.1210   57.3420   13.8660 C.2   1508  HEM1508     0.0000
     18  C4B       29.3190   57.6370   15.0610 C.2   1508  HEM1508     0.0000
     19  CMB       30.7960   55.1300   12.6670 C.3   1508  HEM1508     0.0000
     20  CAB       30.6770   58.2610   12.9590 C.3   1508  HEM1508     0.0000
     21  CBB       30.0090   58.6030   11.7500 C.3   1508  HEM1508     0.0000
     22  C1C       28.3070   59.2040   16.6990 C.ar  1508  HEM1508     0.0000
     23  C2C       28.2710   60.4890   17.3830 C.ar  1508  HEM1508     0.0000
     24  C3C       27.5080   60.3380   18.5110 C.ar  1508  HEM1508     0.0000
     25  C4C       27.0540   58.9470   18.4750 C.ar  1508  HEM1508     0.0000
     26  CMC       29.0410   61.7380   16.9270 C.3   1508  HEM1508     0.0000
     27  CAC       27.2920   61.2590   19.5640 C.3   1508  HEM1508     0.0000
     28  CBC       26.9360   62.6240   19.3540 C.3   1508  HEM1508     0.0000
     29  C1D       25.7140   57.1180   19.3920 C.2   1508  HEM1508     0.0000
     30  C2D       24.6050   56.6700   20.2240 C.2   1508  HEM1508     0.0000
     31  C3D       24.2760   55.4360   19.7750 C.2   1508  HEM1508     0.0000
     32  C4D       25.2220   55.1170   18.7130 C.2   1508  HEM1508     0.0000
     33  CMD       23.9420   57.4440   21.3620 C.3   1508  HEM1508     0.0000
     34  CAD       23.2010   54.5200   20.3620 C.3   1508  HEM1508     0.0000
     35  CBD       21.7420   54.7640   20.0210 C.3   1508  HEM1508     0.0000
     36  CGD       21.3750   54.3240   18.6160 C.2   1508  HEM1508     0.0000
     37  O1D       22.2140   53.6940   17.9390 O.co2 1508  HEM1508     0.0000
     38  O2D       20.2360   54.6010   18.1890 O.co2 1508  HEM1508     0.0000
     39  NA        27.2820   54.3830   16.7500 N.ar  1508  HEM1508     0.0000
     40  NB        28.7870   56.4810   15.6200 N.2   1508  HEM1508     0.0000
     41  NC        27.5890   58.2550   17.4040 N.ar  1508  HEM1508     0.0000
     42  ND        26.0700   56.1720   18.4460 N.2   1508  HEM1508     0.0000
     43 FE         27.4370   56.3220   17.0400 Fe    1508  HEM1508     0.0000
@<TRIPOS>BOND
     1    21    20    1
     2    19    16    1
     3    20    17    1
     4    16    17    2
     5    16    15    1
     6    17    18    1
     7    14    12   ar
     8    13    12   ar
     9    15     2    1
    10    15    40    2
    11    12    11    1
    12     2     8    2
    13    18     3    2
    14    18    40    1
    15     9     7    1
    16     3    22    1
    17    40    43    1
    18     8     7   ar
    19     8    39   ar
    20     7     6   ar
    21    11    10    1
    22    22    23   ar
    23    22    41   ar
    24    39    43    1
    25    39     5   ar
    26     6    10    1
    27     6     5   ar
    28    26    23    1
    29    43    41    1
    30    43    42    1
    31     5     1    2
    32    23    24   ar
    33    41    25   ar
    34    37    36   ar
    35    38    36   ar
    36     1    32    1
    37    42    32    2
    38    42    29    1
    39    25    24   ar
    40    25     4    1
    41    24    27    1
    42    36    35    1
    43    32    31    1
    44    28    27    1
    45    29     4    2
    46    29    30    1
    47    31    30    2
    48    31    34    1
    49    35    34    1
    50    30    33    1
