@<TRIPOS>MOLECULE
2e81_HEM_A_1.pdb
 43 50 0 0 0
SMALL
GASTEIGER

@<TRIPOS>ATOM
      1  CHA       25.5260   54.2390   18.1870 C.2   1508  HEM1508     0.0000
      2  CHB       29.0780   54.5660   14.9600 C.2   1508  HEM1508     0.0000
      3  CHC       29.0720   59.3660   15.4570 C.2   1508  HEM1508     0.0000
      4  CHD       26.3140   58.8230   19.3630 C.2   1508  HEM1508     0.0000
      5  C1A       26.5220   53.8810   17.2760 C.ar  1508  HEM1508     0.0000
      6  C2A       26.7650   52.5150   16.7870 C.ar  1508  HEM1508     0.0000
      7  C3A       27.7890   52.6220   15.9080 C.ar  1508  HEM1508     0.0000
      8  C4A       28.1490   54.0230   15.8390 C.ar  1508  HEM1508     0.0000
      9  CMA       28.4090   51.4890   15.0890 C.3   1508  HEM1508     0.0000
     10  CAA       25.9710   51.2530   17.1340 C.3   1508  HEM1508     0.0000
     11  CBA       24.6140   51.2280   16.4200 C.3   1508  HEM1508     0.0000
     12  CGA       24.7450   51.1190   14.9190 C.2   1508  HEM1508     0.0000
     13  O1A       25.0170   50.0050   14.4220 O.co2 1508  HEM1508     0.0000
     14  O2A       24.5870   52.1510   14.2330 O.co2 1508  HEM1508     0.0000
     15  C1B       29.3780   55.9070   14.7860 C.2   1508  HEM1508     0.0000
     16  C2B       30.1860   56.4340   13.7100 C.2   1508  HEM1508     0.0000
     17  C3B       30.1420   57.7870   13.7880 C.2   1508  HEM1508     0.0000
     18  C4B       29.3090   58.0880   14.9410 C.2   1508  HEM1508     0.0000
     19  CMB       30.9300   55.6310   12.6630 C.3   1508  HEM1508     0.0000
     20  CAB       30.7630   58.6800   12.9190 C.3   1508  HEM1508     0.0000
     21  CBB       30.0640   59.0930   11.7700 C.3   1508  HEM1508     0.0000
     22  C1C       28.3070   59.6570   16.5920 C.ar  1508  HEM1508     0.0000
     23  C2C       28.3220   60.9260   17.2850 C.ar  1508  HEM1508     0.0000
     24  C3C       27.6130   60.7700   18.4300 C.ar  1508  HEM1508     0.0000
     25  C4C       27.1410   59.3910   18.4070 C.ar  1508  HEM1508     0.0000
     26  CMC       29.0350   62.2090   16.8240 C.3   1508  HEM1508     0.0000
     27  CAC       27.4530   61.7050   19.4650 C.3   1508  HEM1508     0.0000
     28  CBC       27.0480   63.0500   19.2410 C.3   1508  HEM1508     0.0000
     29  C1D       25.8080   57.5350   19.3480 C.2   1508  HEM1508     0.0000
     30  C2D       24.7230   57.0780   20.1870 C.2   1508  HEM1508     0.0000
     31  C3D       24.3650   55.8530   19.7380 C.2   1508  HEM1508     0.0000
     32  C4D       25.3180   55.5130   18.6830 C.2   1508  HEM1508     0.0000
     33  CMD       24.0740   57.8060   21.3630 C.3   1508  HEM1508     0.0000
     34  CAD       23.2560   54.9960   20.3450 C.3   1508  HEM1508     0.0000
     35  CBD       21.7770   55.2030   20.0080 C.3   1508  HEM1508     0.0000
     36  CGD       21.4240   54.7720   18.6000 C.2   1508  HEM1508     0.0000
     37  O1D       22.2740   54.1490   17.9310 O.co2 1508  HEM1508     0.0000
     38  O2D       20.2870   55.0480   18.1600 O.co2 1508  HEM1508     0.0000
     39  NA        27.3850   54.7840   16.6930 N.ar  1508  HEM1508     0.0000
     40  NB        28.8170   56.9220   15.5180 N.2   1508  HEM1508     0.0000
     41  NC        27.6110   58.7090   17.3080 N.ar  1508  HEM1508     0.0000
     42  ND        26.1460   56.5820   18.3960 N.2   1508  HEM1508     0.0000
     43 FE         27.4630   56.7580   16.9340 Fe    1508  HEM1508     0.0000
@<TRIPOS>BOND
     1    21    20    1
     2    19    16    1
     3    20    17    1
     4    16    17    2
     5    16    15    1
     6    17    18    1
     7    14    12   ar
     8    13    12   ar
     9    15     2    1
    10    15    40    2
    11    12    11    1
    12    18     3    2
    13    18    40    1
    14     2     8    2
    15     9     7    1
    16     3    22    1
    17    40    43    1
    18     8     7   ar
    19     8    39   ar
    20     7     6   ar
    21    11    10    1
    22    22    23   ar
    23    22    41   ar
    24    39    43    1
    25    39     5   ar
    26     6    10    1
    27     6     5   ar
    28    26    23    1
    29    43    41    1
    30    43    42    1
    31     5     1    2
    32    23    24   ar
    33    41    25   ar
    34    37    36   ar
    35    38    36   ar
    36     1    32    1
    37    42    32    2
    38    42    29    1
    39    25    24   ar
    40    25     4    1
    41    24    27    1
    42    36    35    1
    43    32    31    1
    44    28    27    1
    45    29     4    2
    46    29    30    1
    47    31    30    2
    48    31    34    1
    49    35    34    1
    50    30    33    1
