@<TRIPOS>MOLECULE
2e82_IM3_A_1.pdb
 14 14 0 0 0
SMALL
GASTEIGER

@<TRIPOS>ATOM
      1  OXT       29.9310  -68.8460  -16.2010 O.co2 352  IM3352     -0.2391
      2  C         30.0550  -67.6540  -16.5560 C.2   352  IM3352      0.4031
      3  O         30.9240  -67.3060  -17.3940 O.co2 352  IM3352     -0.2391
      4  CA        29.1360  -66.6850  -15.9460 C.2   352  IM3352      0.1641
      5  N         28.5070  -67.0660  -14.9180 N.2   352  IM3352     -0.1454
      6  CB        28.8670  -65.2820  -16.4630 C.3   352  IM3352      0.0809
      7  CG        27.6700  -65.2850  -17.3970 C.ar  352  IM3352     -0.0125
      8  CD2       26.3710  -65.2350  -16.8840 C.ar  352  IM3352      0.0415
      9  CE2       25.2930  -65.2460  -17.7740 C.ar  352  IM3352      0.2340
     10  O14       24.0090  -65.1970  -17.3210 O.3   352  IM3352     -0.2832
     11  CZ        25.5300  -65.3000  -19.2400 C.ar  352  IM3352      0.2342
     12  OH        24.4750  -65.3030  -20.1000 O.3   352  IM3352     -0.2831
     13  CE1       26.8330  -65.3630  -19.7130 C.ar  352  IM3352      0.0451
     14  CD1       27.8800  -65.3510  -18.7840 C.ar  352  IM3352     -0.0004
@<TRIPOS>BOND
     1    12    11    1
     2    13    11   ar
     3    13    14   ar
     4    11     9   ar
     5    14     7   ar
     6     9    10    1
     7     9     8   ar
     8     7     8   ar
     9     7     6    1
    10     3     2   ar
    11     2     1   ar
    12     2     4    1
    13     6     4    1
    14     4     5    2
