@<TRIPOS>MOLECULE
2e83_FMN_A_1.pdb
 31 33 0 0 0
SMALL
GASTEIGER

@<TRIPOS>ATOM
      1  N1        23.1170   26.4340   26.3440 N.2   1123  FMN1123    -0.2890
      2  C2        23.9570   27.2980   27.0070 C.1   1123  FMN1123     0.3669
      3  O2        23.8960   27.4520   28.2260 O.2   1123  FMN1123    -0.1744
      4  N3        24.9130   28.0090   26.2550 N.2   1123  FMN1123    -0.2300
      5  C4        25.0850   27.9140   24.8930 C.1   1123  FMN1123     0.2513
      6  O4        25.9630   28.5840   24.3000 O.2   1123  FMN1123    -0.2057
      7  C4A       24.1980   26.9900   24.1920 C.2   1123  FMN1123     0.2700
      8  N5        24.3160   26.8350   22.8480 N.2   1123  FMN1123    -0.3878
      9  C5A       23.5170   25.9000   22.2050 C.2   1123  FMN1123     0.1320
     10  C6        23.6860   25.6650   20.8090 C.2   1123  FMN1123     0.0250
     11  C7        22.9050   24.7240   20.1080 C.2   1123  FMN1123    -0.0238
     12  C7M       23.1310   24.4980   18.6360 C.3   1123  FMN1123     0.0308
     13  C8        21.9020   23.9960   20.8480 C.2   1123  FMN1123    -0.0280
     14  C8M       21.0210   22.9580   20.1320 C.3   1123  FMN1123     0.0304
     15  C9        21.7270   24.2130   22.1990 C.2   1123  FMN1123    -0.0041
     16  C9A       22.5070   25.1440   22.9290 C.3   1123  FMN1123     0.1497
     17  N10       22.3920   25.3790   24.3340 N.pl3 1123  FMN1123    -0.2691
     18  C10       23.2320   26.2830   24.9970 C.2   1123  FMN1123     0.2416
     19  C1'       21.3960   24.6330   25.1430 C.3   1123  FMN1123     0.1294
     20  C2'       22.0640   23.4300   25.8420 C.3   1123  FMN1123     0.2044
     21  O2'       22.4100   22.4350   24.8910 O.3   1123  FMN1123    -0.2185
     22  C3'       21.1860   22.8310   26.9450 C.3   1123  FMN1123     0.2164
     23  O3'       19.9830   22.3310   26.3120 O.3   1123  FMN1123    -0.2175
     24  C4'       20.7690   23.8220   28.0210 C.3   1123  FMN1123     0.2147
     25  O4'       21.8450   24.6990   28.4380 O.3   1123  FMN1123    -0.2176
     26  C5'       20.2590   23.1010   29.2620 C.3   1123  FMN1123     0.1892
     27  O5'       21.3660   22.4240   29.8890 O.3   1123  FMN1123    -0.2674
     28  P         21.1080   21.2380   30.9440 P.3   1123  FMN1123     0.5327
     29  O1P       20.3370   20.1570   30.2220 O.2   1123  FMN1123    -0.2224
     30  O2P       20.3000   21.8150   32.0960 O.3   1123  FMN1123    -0.1145
     31  O3P       22.4880   20.8300   31.3600 O.3   1123  FMN1123    -0.1145
@<TRIPOS>BOND
     1    12    11    1
     2    11    10    2
     3    11    13    1
     4    14    13    1
     5    10     9    1
     6    13    15    2
     7    15    16    1
     8     9     8    2
     9     9    16    1
    10     8     7    2
    11    16    17    1
    12     7     5    1
    13     7    18    1
    14     6     5    2
    15    17    18    1
    16    17    19    1
    17    21    20    1
    18     5     4    2
    19    18     1    2
    20    19    20    1
    21    20    22    1
    22     4     2    2
    23    23    22    1
    24     1     2    2
    25    22    24    1
    26     2     3    2
    27    24    25    1
    28    24    26    1
    29    26    27    1
    30    27    28    1
    31    29    28    2
    32    28    31    1
    33    28    30    1
