@<TRIPOS>MOLECULE
2e84_HEM_A_10.pdb
 43 50 0 0 0
SMALL
GASTEIGER

@<TRIPOS>ATOM
      1 FE         59.9130   35.3490   72.7330 Fe    1310  HEM1310     0.0000
      2  CHA       62.4170   33.2860   71.8220 C.2   1310  HEM1310     0.0000
      3  CHB       61.6250   36.1820   75.5570 C.2   1310  HEM1310     0.0000
      4  CHC       57.4170   37.5190   73.6190 C.2   1310  HEM1310     0.0000
      5  CHD       58.1640   34.5470   69.9230 C.2   1310  HEM1310     0.0000
      6  NA        61.6910   34.8170   73.5530 N.2   1310  HEM1310     0.0000
      7  C1A       62.5900   33.9410   73.0180 C.2   1310  HEM1310     0.0000
      8  C2A       63.7400   33.8360   73.9210 C.2   1310  HEM1310     0.0000
      9  C3A       63.4970   34.6390   74.9640 C.2   1310  HEM1310     0.0000
     10  C4A       62.2240   35.2740   74.7470 C.2   1310  HEM1310     0.0000
     11  CMA       64.3820   34.8920   76.1920 C.3   1310  HEM1310     0.0000
     12  CAA       64.9900   32.9530   73.6720 C.3   1310  HEM1310     0.0000
     13  CBA       65.9170   33.5460   72.5650 C.3   1310  HEM1310     0.0000
     14  CGA       66.6990   34.8330   72.9160 C.2   1310  HEM1310     0.0000
     15  O1A       67.4360   35.2930   71.9740 O.co2 1310  HEM1310     0.0000
     16  O2A       66.5910   35.3360   74.0310 O.co2 1310  HEM1310     0.0000
     17  NB        59.5850   36.5990   74.2710 N.ar  1310  HEM1310     0.0000
     18  C1B       60.4370   36.7990   75.3560 C.ar  1310  HEM1310     0.0000
     19  C2B       59.8800   37.7780   76.2470 C.ar  1310  HEM1310     0.0000
     20  C3B       58.7010   38.1670   75.7040 C.ar  1310  HEM1310     0.0000
     21  C4B       58.5070   37.4290   74.4820 C.ar  1310  HEM1310     0.0000
     22  CMB       60.5380   38.2690   77.5530 C.3   1310  HEM1310     0.0000
     23  CAB       57.7150   39.1960   76.2350 C.3   1310  HEM1310     0.0000
     24  CBB       58.2450   40.6410   76.0970 C.3   1310  HEM1310     0.0000
     25  NC        58.1400   35.9060   71.9260 N.2   1310  HEM1310     0.0000
     26  C1C       57.2450   36.8150   72.4470 C.2   1310  HEM1310     0.0000
     27  C2C       56.0560   36.9230   71.5770 C.2   1310  HEM1310     0.0000
     28  C3C       56.2570   36.0810   70.5410 C.2   1310  HEM1310     0.0000
     29  C4C       57.5520   35.4540   70.7490 C.2   1310  HEM1310     0.0000
     30  CMC       54.8360   37.8520   71.8790 C.3   1310  HEM1310     0.0000
     31  CAC       55.3420   35.7600   69.3260 C.3   1310  HEM1310     0.0000
     32  CBC       54.8350   36.9690   68.5130 C.3   1310  HEM1310     0.0000
     33  ND        60.2300   34.1680   71.1910 N.ar  1310  HEM1310     0.0000
     34  C1D       59.3940   33.9450   70.0910 C.ar  1310  HEM1310     0.0000
     35  C2D       60.0130   33.0020   69.1760 C.ar  1310  HEM1310     0.0000
     36  C3D       61.2060   32.6560   69.7030 C.ar  1310  HEM1310     0.0000
     37  C4D       61.3340   33.3740   70.9580 C.ar  1310  HEM1310     0.0000
     38  CMD       59.3830   32.5140   67.8490 C.3   1310  HEM1310     0.0000
     39  CAD       62.2350   31.6850   69.0960 C.3   1310  HEM1310     0.0000
     40  CBD       63.4200   32.4790   68.4580 C.3   1310  HEM1310     0.0000
     41  CGD       64.0850   31.7630   67.3060 C.2   1310  HEM1310     0.0000
     42  O1D       63.9670   30.5300   67.1740 O.co2 1310  HEM1310     0.0000
     43  O2D       64.7380   32.5020   66.5450 O.co2 1310  HEM1310     0.0000
@<TRIPOS>BOND
     1    43    41   ar
     2    42    41   ar
     3    41    40    1
     4    38    35    1
     5    40    39    1
     6    32    31    1
     7    39    36    1
     8    35    36   ar
     9    35    34   ar
    10    31    28    1
    11    36    37   ar
    12     5    34    2
    13     5    29    1
    14    34    33   ar
    15    28    29    1
    16    28    27    2
    17    29    25    2
    18    37    33   ar
    19    37     2    2
    20    33     1    1
    21    27    30    1
    22    27    26    1
    23     2     7    1
    24    25    26    1
    25    25     1    1
    26    15    14   ar
    27    26     4    2
    28    13    14    1
    29    13    12    1
    30     1     6    1
    31     1    17    1
    32    14    16   ar
    33     7     6    2
    34     7     8    1
    35     6    10    1
    36     4    21    1
    37    12     8    1
    38     8     9    2
    39    17    21   ar
    40    17    18   ar
    41    21    20   ar
    42    10     9    1
    43    10     3    2
    44     9    11    1
    45    18     3    1
    46    18    19   ar
    47    20    23    1
    48    20    19   ar
    49    24    23    1
    50    19    22    1
