@<TRIPOS>MOLECULE
2e87_GDP_A_1.pdb
 28 30 0 0 0
SMALL
GASTEIGER

@<TRIPOS>ATOM
      1  PB        34.9500   60.2910   27.6160 P.3   400  GDP400      0.5373
      2  O1B       33.6470   61.0540   27.7610 O.3   400  GDP400     -0.1143
      3  O2B       35.1110   59.1530   28.7560 O.3   400  GDP400     -0.1143
      4  O3B       35.4260   59.9520   26.2000 O.2   400  GDP400     -0.2221
      5  O3A       36.0200   61.3730   28.0920 O.3   400  GDP400     -0.2261
      6  PA        37.0360   62.2670   27.2070 P.3   400  GDP400      0.2231
      7  O1A       37.9800   61.4130   26.4350 O.3   400  GDP400     -0.4370
      8  O2A       36.1710   63.2080   26.2120 O.2   400  GDP400     -0.5169
      9  O5'       37.8710   63.1590   28.2520 O.3   400  GDP400     -0.3111
     10  C5'       36.9520   64.0090   28.9650 C.3   400  GDP400      0.1813
     11  C4'       37.6750   65.2890   29.4240 C.3   400  GDP400      0.1799
     12  O4'       38.8410   64.9260   30.2560 O.3   400  GDP400     -0.3326
     13  C3'       38.2810   66.1260   28.2960 C.3   400  GDP400      0.2158
     14  O3'       38.2070   67.5440   28.1270 O.3   400  GDP400     -0.2175
     15  C2'       39.6700   65.4840   28.1110 C.3   400  GDP400      0.2310
     16  O2'       40.5410   66.4890   27.5550 O.3   400  GDP400     -0.2158
     17  C1'       40.0680   65.3880   29.5690 C.3   400  GDP400      0.2293
     18  N9        41.1410   64.4110   29.8060 N.pl3 400  GDP400     -0.2354
     19  C8        41.3100   63.1920   29.2020 C.3   400  GDP400      0.2246
     20  N7        42.3790   62.6010   29.6680 N.2   400  GDP400     -0.2322
     21  C5        42.9600   63.3970   30.5990 C.2   400  GDP400      0.2182
     22  C6        44.1290   63.2950   31.4340 C.1   400  GDP400      0.2372
     23  O6        44.8540   62.3060   31.3870 O.2   400  GDP400     -0.2069
     24  N1        44.4110   64.3360   32.2890 N.2   400  GDP400     -0.2485
     25  C2        43.5900   65.4580   32.3440 C.1   400  GDP400      0.2531
     26  N2        43.8960   66.4780   33.2030 N.pl3 400  GDP400     -0.0226
     27  N3        42.5150   65.5630   31.5750 N.2   400  GDP400     -0.3074
     28  C4        42.1660   64.5700   30.7010 C.2   400  GDP400      0.2300
@<TRIPOS>BOND
     1     4     1    2
     2     8     6    2
     3     7     6    1
     4     6     5    1
     5     6     9    1
     6    16    15    1
     7     1     2    1
     8     1     5    1
     9     1     3    1
    10    15    13    1
    11    15    17    1
    12    14    13    1
    13     9    10    1
    14    13    11    1
    15    10    11    1
    16    19    20    1
    17    19    18    1
    18    11    12    1
    19    17    18    1
    20    17    12    1
    21    20    21    2
    22    18    28    1
    23    21    28    1
    24    21    22    1
    25    28    27    2
    26    23    22    2
    27    22    24    2
    28    27    25    2
    29    24    25    2
    30    25    26    1
