@<TRIPOS>MOLECULE
2e89_ATP_A_1.pdb
 31 33 0 0 0
SMALL
GASTEIGER

@<TRIPOS>ATOM
      1  PG        30.5150   34.2020   69.2460 P.3   900  ATP900      0.5373
      2  O1G       31.7650   34.8440   68.7820 O.3   900  ATP900     -0.1143
      3  O2G       30.4030   33.5800   70.7280 O.3   900  ATP900     -0.1143
      4  O3G       29.3040   33.8590   68.2420 O.2   900  ATP900     -0.2221
      5  PB        29.0440   36.5480   68.7430 P.3   900  ATP900      0.2277
      6  O1B       29.1160   36.1220   67.3280 O.2   900  ATP900     -0.5168
      7  O2B       28.0540   37.5010   69.2950 O.3   900  ATP900     -0.4368
      8  O3B       29.7800   35.5400   69.7630 O.3   900  ATP900     -0.2258
      9  PA        30.6110   38.5320   69.9730 P.3   900  ATP900      0.2189
     10  O1A       30.1220   39.8860   69.6250 O.2   900  ATP900     -0.5170
     11  O2A       30.1260   37.9110   71.2270 O.3   900  ATP900     -0.4371
     12  O3A       30.2910   37.5680   68.7220 O.3   900  ATP900     -0.2700
     13  O5'       32.2210   38.5340   69.9770 O.3   900  ATP900     -0.3112
     14  C5'       32.9530   37.4060   70.4650 C.3   900  ATP900      0.1813
     15  C4'       34.4370   37.5730   70.1370 C.3   900  ATP900      0.1821
     16  O4'       34.6930   37.5510   68.7220 O.3   900  ATP900     -0.3135
     17  C3'       34.9150   38.9470   70.6050 C.3   900  ATP900      0.2184
     18  O3'       35.2060   38.8790   72.0030 O.3   900  ATP900     -0.2174
     19  C2'       36.2170   39.0140   69.8120 C.3   900  ATP900      0.2570
     20  O2'       37.1810   38.1220   70.3750 O.3   900  ATP900     -0.2130
     21  C1'       35.7400   38.5010   68.4500 C.3   900  ATP900      0.3186
     22  N9        35.1660   39.6350   67.6910 N.pl3 900  ATP900     -0.1439
     23  C8        33.9950   40.2330   67.8880 C.3   900  ATP900      0.3377
     24  N7        33.8700   41.2540   67.0310 N.2   900  ATP900     -0.2095
     25  C5        34.9500   41.3030   66.2880 C.2   900  ATP900      0.2526
     26  C6        35.3920   42.1190   65.2450 C.2   900  ATP900      0.4393
     27  N6        34.6940   43.1440   64.8280 N.pl3 900  ATP900      0.2180
     28  N1        36.6050   41.8520   64.6800 N.2   900  ATP900      0.0021
     29  C2        37.3460   40.8650   65.0990 C.3   900  ATP900      0.5254
     30  N3        36.9590   40.0690   66.0970 N.2   900  ATP900     -0.0055
     31  C4        35.7990   40.2580   66.6950 C.2   900  ATP900      0.3518
@<TRIPOS>BOND
     1    28    29    1
     2    28    26    2
     3    27    26    1
     4    29    30    1
     5    26    25    1
     6    30    31    2
     7    25    31    1
     8    25    24    2
     9    31    22    1
    10    24    23    1
    11     6     5    2
    12    22    23    1
    13    22    21    1
    14     4     1    2
    15    21    16    1
    16    21    19    1
    17    16    15    1
    18    12     5    1
    19    12     9    1
    20     5     7    1
    21     5     8    1
    22     2     1    1
    23     1     8    1
    24     1     3    1
    25    10     9    2
    26    19    20    1
    27    19    17    1
    28     9    13    1
    29     9    11    1
    30    13    14    1
    31    15    14    1
    32    15    17    1
    33    17    18    1
