@<TRIPOS>MOLECULE
2e89_LYS_B_1.pdb
 10 9 0 0 0
SMALL
GASTEIGER

@<TRIPOS>ATOM
      1  N         -6.0380   30.9010   86.6420 N.3   950  LYS950     -0.1208
      2  CA        -5.8370   29.4190   86.6160 C.3   950  LYS950      0.1943
      3  C         -7.1690   28.7200   86.4490 C.2   950  LYS950      0.3819
      4  O         -7.2900   27.9030   85.5040 O.co2 950  LYS950     -0.2441
      5  CB        -5.1720   28.9200   87.9110 C.3   950  LYS950      0.0307
      6  CG        -5.9870   29.1190   89.1750 C.3   950  LYS950      0.0036
      7  CD        -5.3650   28.4030   90.3650 C.3   950  LYS950      0.0206
      8  CE        -5.3730   26.8730   90.1550 C.3   950  LYS950      0.1093
      9  NZ        -4.9600   26.0260   91.3490 N.3   950  LYS950     -0.1314
     10  OXT       -8.0640   29.0090   87.2700 O.co2 950  LYS950     -0.2441
@<TRIPOS>BOND
     1     4     3   ar
     2     3     2    1
     3     3    10   ar
     4     2     1    1
     5     2     5    1
     6     5     6    1
     7     6     7    1
     8     8     7    1
     9     8     9    1
