@<TRIPOS>MOLECULE
2e8a_ANP_A_1.pdb
 31 33 0 0 0
SMALL
GASTEIGER

@<TRIPOS>ATOM
      1  PG        15.0990   20.1500   18.2360 P.3   601  ANP601      0.4884
      2  O1G       13.9110   20.4510   17.4040 O.2   601  ANP601     -0.2331
      3  O2G       14.7530   19.0350   19.3430 O.3   601  ANP601     -0.1240
      4  O3G       15.6080   21.4590   19.0210 O.3   601  ANP601     -0.1240
      5  PB        17.7210   19.2480   18.1010 P.3   601  ANP601      0.4669
      6  O1B       18.8030   20.0080   17.4350 O.2   601  ANP601     -0.2351
      7  O2B       17.5630   19.4060   19.5650 O.3   601  ANP601     -0.1253
      8  N3B       16.3310   19.5890   17.3320 N.3   601  ANP601     -0.0163
      9  PA        18.5620   17.0060   16.4920 P.3   601  ANP601      0.2220
     10  O1A       18.5040   17.9600   15.3610 O.2   601  ANP601     -0.5170
     11  O2A       19.8660   16.3950   16.8310 O.3   601  ANP601     -0.4370
     12  O3A       17.9410   17.6760   17.8200 O.3   601  ANP601     -0.2360
     13  O5'       17.4730   15.8500   16.2450 O.3   601  ANP601     -0.3111
     14  C5'       17.1850   14.9240   17.2990 C.3   601  ANP601      0.1813
     15  C4'       16.0910   13.9640   16.8360 C.3   601  ANP601      0.1821
     16  O4'       16.5880   13.2960   15.6630 O.3   601  ANP601     -0.3135
     17  C3'       15.8200   12.8860   17.8880 C.3   601  ANP601      0.2184
     18  O3'       14.4350   12.5380   17.8480 O.3   601  ANP601     -0.2174
     19  C2'       16.6810   11.7290   17.3830 C.3   601  ANP601      0.2570
     20  O2'       16.1030   10.4950   17.8200 O.3   601  ANP601     -0.2130
     21  C1'       16.4190   11.8890   15.8860 C.3   601  ANP601      0.3186
     22  N9        17.3970   11.1470   15.0610 N.pl3 601  ANP601     -0.1439
     23  C8        18.7230   11.1570   15.1960 C.3   601  ANP601      0.3377
     24  N7        19.2710   10.3560   14.2840 N.2   601  ANP601     -0.2095
     25  C5        18.2860    9.8300   13.5630 C.2   601  ANP601      0.2526
     26  C6        18.2300    8.9200   12.5140 C.2   601  ANP601      0.4393
     27  N6        19.3450    8.3870   12.0220 N.pl3 601  ANP601      0.2180
     28  N1        17.0320    8.5860   12.0140 N.2   601  ANP601      0.0021
     29  C2        15.9150    9.1050   12.4950 C.3   601  ANP601      0.5254
     30  N3        15.9300    9.9690   13.4950 N.2   601  ANP601     -0.0055
     31  C4        17.0920   10.3430   14.0490 C.2   601  ANP601      0.3518
@<TRIPOS>BOND
     1    28    29    1
     2    28    26    2
     3    27    26    1
     4    29    30    1
     5    26    25    1
     6    30    31    2
     7    25    31    1
     8    25    24    2
     9    31    22    1
    10    24    23    1
    11    22    23    1
    12    22    21    1
    13    10     9    2
    14    16    21    1
    15    16    15    1
    16    21    19    1
    17    13     9    1
    18    13    14    1
    19     9    11    1
    20     9    12    1
    21    15    14    1
    22    15    17    1
    23     8     5    1
    24     8     1    1
    25    19    20    1
    26    19    17    1
    27     2     1    2
    28     6     5    2
    29    12     5    1
    30    18    17    1
    31     5     7    1
    32     1     4    1
    33     1     3    1
