@<TRIPOS>MOLECULE
2e8h_SAH_A_1.pdb
 26 28 0 0 0
SMALL
GASTEIGER

@<TRIPOS>ATOM
      1  N         33.6700   92.7530   67.5490 N.3   1301  SAH1301    -0.1208
      2  CA        32.2400   92.4940   67.3280 C.3   1301  SAH1301     0.1952
      3  CB        31.5850   91.9770   68.6120 C.3   1301  SAH1301     0.0422
      4  CG        32.2420   90.6960   69.1310 C.3   1301  SAH1301     0.0597
      5  SD        31.2790   89.9260   70.4840 S.3   1301  SAH1301    -0.1375
      6  C         31.5480   93.7990   66.9320 C.2   1301  SAH1301     0.3819
      7  O         32.1640   94.8640   66.9660 O.co2 1301  SAH1301    -0.2441
      8  OXT       30.3650   93.7940   66.5940 O.co2 1301  SAH1301    -0.2441
      9  C5'       30.1830   88.8330   69.5070 C.3   1301  SAH1301     0.0899
     10  C4'       28.7160   88.8700   69.9420 C.3   1301  SAH1301     0.1630
     11  O4'       28.0990   90.1400   69.6630 O.3   1301  SAH1301    -0.3153
     12  C3'       27.8820   87.8500   69.1660 C.3   1301  SAH1301     0.2168
     13  O3'       28.0120   86.5710   69.7920 O.3   1301  SAH1301    -0.2175
     14  C2'       26.4920   88.4110   69.4540 C.3   1301  SAH1301     0.2569
     15  O2'       26.1270   88.1830   70.8180 O.3   1301  SAH1301    -0.2130
     16  C1'       26.7480   89.9020   69.2240 C.3   1301  SAH1301     0.3185
     17  N9        26.6500   90.2350   67.7830 N.pl3 1301  SAH1301    -0.1439
     18  C8        27.6660   90.4840   66.9590 C.3   1301  SAH1301     0.3377
     19  N7        27.1980   90.8070   65.7550 N.2   1301  SAH1301    -0.2095
     20  C5        25.8710   90.7610   65.8100 C.2   1301  SAH1301     0.2526
     21  C6        24.8500   91.0040   64.8990 C.2   1301  SAH1301     0.4393
     22  N6        25.1350   91.3450   63.6450 N.pl3 1301  SAH1301     0.2180
     23  N1        23.5760   90.8780   65.2990 N.2   1301  SAH1301     0.0021
     24  C2        23.2750   90.5210   66.5370 C.3   1301  SAH1301     0.5254
     25  N3        24.2220   90.2800   67.4280 N.2   1301  SAH1301    -0.0055
     26  C4        25.5190   90.3920   67.1020 C.2   1301  SAH1301     0.3518
@<TRIPOS>BOND
     1    22    21    1
     2    21    23    2
     3    21    20    1
     4    23    24    1
     5    19    20    2
     6    19    18    1
     7    20    26    1
     8    24    25    1
     9     8     6   ar
    10     6     7   ar
    11     6     2    1
    12    18    17    1
    13    26    25    2
    14    26    17    1
    15     2     1    1
    16     2     3    1
    17    17    16    1
    18     3     4    1
    19     4     5    1
    20    12    14    1
    21    12    13    1
    22    12    10    1
    23    16    14    1
    24    16    11    1
    25    14    15    1
    26     9    10    1
    27     9     5    1
    28    11    10    1
