@<TRIPOS>MOLECULE
2e8q_SAH_A_1.pdb
 26 28 0 0 0
SMALL
GASTEIGER

@<TRIPOS>ATOM
      1  N         33.7840   92.7780   66.8600 N.3   301  SAH301     -0.1208
      2  CA        32.3680   92.2660   66.6440 C.3   301  SAH301      0.1952
      3  CB        31.6920   91.5610   67.7740 C.3   301  SAH301      0.0422
      4  CG        32.3310   90.3260   68.3810 C.3   301  SAH301      0.0597
      5  SD        31.1090   89.6240   69.5670 S.3   301  SAH301     -0.1375
      6  C         31.5260   93.5090   66.1830 C.2   301  SAH301      0.3819
      7  O         32.0880   94.6100   66.0820 O.co2 301  SAH301     -0.2441
      8  OXT       30.2790   93.2910   65.9350 O.co2 301  SAH301     -0.2441
      9  C5'       30.1780   88.5690   68.5320 C.3   301  SAH301      0.0899
     10  C4'       28.7210   88.4550   69.1380 C.3   301  SAH301      0.1630
     11  O4'       28.0930   89.7520   68.9690 O.3   301  SAH301     -0.3153
     12  C3'       27.8210   87.4510   68.4970 C.3   301  SAH301      0.2168
     13  O3'       27.9090   86.1990   69.1630 O.3   301  SAH301     -0.2175
     14  C2'       26.4410   88.1350   68.6100 C.3   301  SAH301      0.2569
     15  O2'       25.8360   87.8890   69.8730 O.3   301  SAH301     -0.2130
     16  C1'       26.7420   89.6200   68.3460 C.3   301  SAH301      0.3185
     17  N9        26.7750   89.9530   67.0450 N.pl3 301  SAH301     -0.1439
     18  C8        27.7760   90.2100   66.1270 C.3   301  SAH301      0.3377
     19  N7        27.3620   90.5080   64.9350 N.2   301  SAH301     -0.2095
     20  C5        25.9490   90.4570   65.0260 C.2   301  SAH301      0.2526
     21  C6        24.9260   90.6900   64.0490 C.2   301  SAH301      0.4393
     22  N6        25.1720   91.0220   62.7820 N.pl3 301  SAH301      0.2180
     23  N1        23.6420   90.5460   64.5110 N.2   301  SAH301      0.0021
     24  C2        23.3470   90.2050   65.7970 C.3   301  SAH301      0.5254
     25  N3        24.3010   89.9750   66.7580 N.2   301  SAH301     -0.0055
     26  C4        25.5720   90.1190   66.3010 C.2   301  SAH301      0.3518
@<TRIPOS>BOND
     1    22    21    1
     2    21    23    2
     3    21    20    1
     4    23    24    1
     5    19    20    2
     6    19    18    1
     7    20    26    1
     8    24    25    1
     9     8     6   ar
    10     7     6   ar
    11    18    17    1
    12     6     2    1
    13    26    25    2
    14    26    17    1
    15     2     1    1
    16     2     3    1
    17    17    16    1
    18     3     4    1
    19    16    14    1
    20    16    11    1
    21     4     5    1
    22    12    14    1
    23    12    10    1
    24    12    13    1
    25     9    10    1
    26     9     5    1
    27    14    15    1
    28    11    10    1
