@<TRIPOS>MOLECULE
2e8r_SAH_A_1.pdb
 26 28 0 0 0
SMALL
GASTEIGER

@<TRIPOS>ATOM
      1  N         33.6100   92.4090   66.5580 N.3   1301  SAH1301    -0.1208
      2  CA        32.1520   91.9920   66.4280 C.3   1301  SAH1301     0.1952
      3  CB        31.5220   91.3410   67.6240 C.3   1301  SAH1301     0.0422
      4  CG        32.1640   90.0760   68.1820 C.3   1301  SAH1301     0.0597
      5  SD        31.0000   89.3460   69.4040 S.3   1301  SAH1301    -0.1375
      6  C         31.3490   93.2970   65.9980 C.2   1301  SAH1301     0.3819
      7  O         31.9680   94.3670   65.8620 O.co2 1301  SAH1301    -0.2441
      8  OXT       30.0790   93.1560   65.8130 O.co2 1301  SAH1301    -0.2441
      9  C5'       30.0450   88.3290   68.3420 C.3   1301  SAH1301     0.0899
     10  C4'       28.5830   88.2090   68.9150 C.3   1301  SAH1301     0.1630
     11  O4'       27.9300   89.4820   68.7070 O.3   1301  SAH1301    -0.3153
     12  C3'       27.7330   87.1730   68.2650 C.3   1301  SAH1301     0.2168
     13  O3'       27.8910   85.9190   68.9170 O.3   1301  SAH1301    -0.2175
     14  C2'       26.3270   87.8000   68.3890 C.3   1301  SAH1301     0.2569
     15  O2'       25.7390   87.5380   69.6740 O.3   1301  SAH1301    -0.2130
     16  C1'       26.5750   89.2940   68.1030 C.3   1301  SAH1301     0.3185
     17  N9        26.5720   89.6400   66.7880 N.pl3 1301  SAH1301    -0.1439
     18  C8        27.5490   89.9220   65.8470 C.3   1301  SAH1301     0.3377
     19  N7        27.1080   90.2300   64.6640 N.2   1301  SAH1301    -0.2095
     20  C5        25.6920   90.1590   64.7870 C.2   1301  SAH1301     0.2526
     21  C6        24.6360   90.3960   63.8320 C.2   1301  SAH1301     0.4393
     22  N6        24.8440   90.7540   62.5560 N.pl3 1301  SAH1301     0.2180
     23  N1        23.3620   90.2270   64.3270 N.2   1301  SAH1301     0.0021
     24  C2        23.0990   89.8630   65.6210 C.3   1301  SAH1301     0.5254
     25  N3        24.0780   89.6320   66.5550 N.2   1301  SAH1301    -0.0055
     26  C4        25.3470   89.7990   66.0690 C.2   1301  SAH1301     0.3518
@<TRIPOS>BOND
     1    22    21    1
     2    21    23    2
     3    21    20    1
     4    23    24    1
     5    19    20    2
     6    19    18    1
     7    20    26    1
     8    24    25    1
     9     8     6   ar
    10    18    17    1
    11     7     6   ar
    12     6     2    1
    13    26    25    2
    14    26    17    1
    15     2     1    1
    16     2     3    1
    17    17    16    1
    18     3     4    1
    19    16    14    1
    20    16    11    1
    21     4     5    1
    22    12    14    1
    23    12    10    1
    24    12    13    1
    25     9    10    1
    26     9     5    1
    27    14    15    1
    28    11    10    1
