@<TRIPOS>MOLECULE
2e8s_SAH_A_1.pdb
 26 28 0 0 0
SMALL
GASTEIGER

@<TRIPOS>ATOM
      1  N         33.6460   92.5090   66.8550 N.3   1301  SAH1301    -0.1208
      2  CA        32.1960   92.0800   66.7070 C.3   1301  SAH1301     0.1952
      3  CB        31.5630   91.3520   67.8600 C.3   1301  SAH1301     0.0422
      4  CG        32.1950   90.0640   68.3660 C.3   1301  SAH1301     0.0597
      5  SD        31.0440   89.3270   69.6020 S.3   1301  SAH1301    -0.1375
      6  C         31.3770   93.3930   66.3560 C.2   1301  SAH1301     0.3819
      7  O         31.9870   94.4800   66.2750 O.co2 1301  SAH1301    -0.2441
      8  OXT       30.1000   93.2440   66.1730 O.co2 1301  SAH1301    -0.2441
      9  C5'       30.1020   88.2730   68.5790 C.3   1301  SAH1301     0.0899
     10  C4'       28.6370   88.1990   69.1480 C.3   1301  SAH1301     0.1630
     11  O4'       28.0290   89.4820   68.9030 O.3   1301  SAH1301    -0.3153
     12  C3'       27.7590   87.1730   68.5240 C.3   1301  SAH1301     0.2168
     13  O3'       27.8510   85.9550   69.2450 O.3   1301  SAH1301    -0.2175
     14  C2'       26.3710   87.8480   68.5940 C.3   1301  SAH1301     0.2569
     15  O2'       25.7340   87.6070   69.8450 O.3   1301  SAH1301    -0.2130
     16  C1'       26.6600   89.3320   68.3250 C.3   1301  SAH1301     0.3185
     17  N9        26.6380   89.6880   67.0260 N.pl3 1301  SAH1301    -0.1439
     18  C8        27.6010   89.9650   66.0710 C.3   1301  SAH1301     0.3377
     19  N7        27.1410   90.2870   64.9020 N.2   1301  SAH1301    -0.2095
     20  C5        25.7290   90.2320   65.0530 C.2   1301  SAH1301     0.2526
     21  C6        24.6600   90.4880   64.1240 C.2   1301  SAH1301     0.4393
     22  N6        24.8500   90.8510   62.8510 N.pl3 1301  SAH1301     0.2180
     23  N1        23.3940   90.3290   64.6400 N.2   1301  SAH1301     0.0021
     24  C2        23.1510   89.9600   65.9260 C.3   1301  SAH1301     0.5254
     25  N3        24.1470   89.7100   66.8400 N.2   1301  SAH1301    -0.0055
     26  C4        25.4050   89.8670   66.3340 C.2   1301  SAH1301     0.3518
@<TRIPOS>BOND
     1    22    21    1
     2    21    23    2
     3    21    20    1
     4    23    24    1
     5    19    20    2
     6    19    18    1
     7    20    26    1
     8    24    25    1
     9    18    17    1
    10     8     6   ar
    11     7     6   ar
    12    26    25    2
    13    26    17    1
    14     6     2    1
    15     2     1    1
    16     2     3    1
    17    17    16    1
    18     3     4    1
    19    16    14    1
    20    16    11    1
    21     4     5    1
    22    12    14    1
    23    12    10    1
    24    12    13    1
    25     9    10    1
    26     9     5    1
    27    14    15    1
    28    11    10    1
