@<TRIPOS>MOLECULE
2e8t_FPS_A_1.pdb
 24 23 0 0 0
SMALL
GASTEIGER

@<TRIPOS>ATOM
      1  C1        28.5020   45.6400    7.9810 C.3   1201  FPS1201     0.0942
      2  S1        27.0240   44.9040    7.1900 S.3   1201  FPS1201    -0.0237
      3  C2        28.2550   46.1080    9.2640 C.2   1201  FPS1201    -0.0224
      4  C3        29.2300   46.3720   10.2220 C.2   1201  FPS1201    -0.0470
      5  C4        30.7090   46.1270    9.9150 C.3   1201  FPS1201     0.0261
      6  C5        28.8270   46.8760   11.6070 C.3   1201  FPS1201     0.0264
      7  C6        27.9020   45.8490   12.2630 C.3   1201  FPS1201     0.0297
      8  C7        27.7220   46.1410   13.6120 C.2   1201  FPS1201    -0.0342
      9  C8        27.8580   45.2510   14.6660 C.2   1201  FPS1201    -0.0478
     10  C10       27.6270   45.7640   16.0910 C.3   1201  FPS1201     0.0263
     11  C9        28.2030   43.7810   14.4100 C.3   1201  FPS1201     0.0260
     12  C11       28.9560   45.9480   16.8280 C.3   1201  FPS1201     0.0297
     13  C12       29.8520   46.7320   16.1110 C.2   1201  FPS1201    -0.0342
     14  C13       31.2090   46.8630   16.3980 C.2   1201  FPS1201    -0.0478
     15  C14       32.1020   47.7510   15.5290 C.3   1201  FPS1201     0.0260
     16  C15       31.8100   46.1190   17.5920 C.3   1201  FPS1201     0.0260
     17  PA        27.0070   46.1100    5.7310 P.3   1201  FPS1201     0.4273
     18  O1A       27.9850   47.2980    6.1940 O.3   1201  FPS1201    -0.1309
     19  O2A       25.6480   46.6210    5.4440 O.2   1201  FPS1201    -0.2431
     20  O3A       27.7510   45.3460    4.5190 O.3   1201  FPS1201    -0.1955
     21  PB        29.2660   44.7990    4.6330 P.3   1201  FPS1201     0.5394
     22  O1B       29.9620   45.1510    3.2250 O.2   1201  FPS1201    -0.2220
     23  O2B       30.0290   45.6580    5.7530 O.3   1201  FPS1201    -0.1143
     24  O3B       29.3320   43.3590    4.9630 O.3   1201  FPS1201    -0.1143
@<TRIPOS>BOND
     1    22    21    2
     2    20    21    1
     3    20    17    1
     4    21    24    1
     5    21    23    1
     6    19    17    2
     7    17    18    1
     8    17     2    1
     9     2     1    1
    10     1     3    1
    11     3     4    2
    12     5     4    1
    13     4     6    1
    14     6     7    1
    15     7     8    1
    16     8     9    2
    17    11     9    1
    18     9    10    1
    19    15    14    1
    20    10    12    1
    21    13    14    2
    22    13    12    1
    23    14    16    1
