@<TRIPOS>MOLECULE
2e8t_IPE_A_1.pdb
 14 13 0 0 0
SMALL
GASTEIGER

@<TRIPOS>ATOM
      1  C1        33.0730   48.3660    4.6820 C.3   1001  IPE1001     0.1491
      2  O1        34.4040   48.0570    4.2580 O.3   1001  IPE1001    -0.3138
      3  C2        32.6810   47.4810    5.8680 C.3   1001  IPE1001     0.0325
      4  C3        31.6280   48.1800    6.7280 C.3   1001  IPE1001     0.0025
      5  C4        30.3970   48.8170    6.0770 C.3   1001  IPE1001     0.0001
      6  C5        31.8160   48.2750    8.1010 C.3   1001  IPE1001     0.0001
      7  PA        35.6040   48.1280    5.3310 P.3   1001  IPE1001     0.2230
      8  O1A       35.8980   49.6820    5.6320 O.2   1001  IPE1001    -0.5169
      9  O2A       35.2850   47.3700    6.5620 O.3   1001  IPE1001    -0.4370
     10  O3A       36.9170   47.5880    4.5710 O.3   1001  IPE1001    -0.2261
     11  PB        37.9750   46.6190    5.3010 P.3   1001  IPE1001     0.5373
     12  O1B       37.5250   46.4710    6.8390 O.3   1001  IPE1001    -0.1143
     13  O2B       37.7680   45.1770    4.6150 O.2   1001  IPE1001    -0.2221
     14  O3B       39.3640   47.1180    5.1790 O.3   1001  IPE1001    -0.1143
@<TRIPOS>BOND
     1     2     1    1
     2     2     7    1
     3    10    11    1
     4    10     7    1
     5    13    11    2
     6     1     3    1
     7    14    11    1
     8    11    12    1
     9     7     8    2
    10     7     9    1
    11     3     4    1
    12     5     4    1
    13     4     6    1
