@<TRIPOS>MOLECULE
2e8u_IPE_A_1.pdb
 14 13 0 0 0
SMALL
GASTEIGER

@<TRIPOS>ATOM
      1  C1       -25.0480   32.6220   60.5110 C.3   1101  IPE1101     0.1491
      2  O1       -26.3990   33.0820   60.4310 O.3   1101  IPE1101    -0.3138
      3  C2       -25.0560   31.1010   60.6710 C.3   1101  IPE1101     0.0325
      4  C3       -25.8210   30.6970   61.9310 C.3   1101  IPE1101     0.0025
      5  C4       -25.7450   31.5610   63.1910 C.3   1101  IPE1101     0.0001
      6  C5       -26.5970   29.5420   61.9230 C.3   1101  IPE1101     0.0001
      7  PA       -26.7100   34.6230   60.0830 P.3   1101  IPE1101     0.2230
      8  O1A      -27.7740   34.5880   58.8720 O.2   1101  IPE1101    -0.5169
      9  O2A      -27.1930   35.3760   61.2610 O.3   1101  IPE1101    -0.4370
     10  O3A      -25.3380   35.2020   59.4590 O.3   1101  IPE1101    -0.2261
     11  PB       -25.1500   36.7450   59.0260 P.3   1101  IPE1101     0.5373
     12  O1B      -24.5530   36.7350   57.5300 O.2   1101  IPE1101    -0.2221
     13  O2B      -26.6300   37.3720   58.9300 O.3   1101  IPE1101    -0.1143
     14  O3B      -24.2920   37.4990   59.9640 O.3   1101  IPE1101    -0.1143
@<TRIPOS>BOND
     1    12    11    2
     2     8     7    2
     3    13    11    1
     4    11    10    1
     5    11    14    1
     6    10     7    1
     7     7     2    1
     8     7     9    1
     9     2     1    1
    10     1     3    1
    11     3     4    1
    12     6     4    1
    13     4     5    1
