@<TRIPOS>MOLECULE
2e8v_GRG_A_1.pdb
 29 28 0 0 0
SMALL
GASTEIGER

@<TRIPOS>ATOM
      1  C20      -20.7990   32.4420   67.2810 C.3   1501  GRG1501     0.0260
      2  C19      -18.1920   32.3620   67.7170 C.3   1501  GRG1501     0.0260
      3  C18      -19.4810   31.6620   67.2830 C.2   1501  GRG1501    -0.0478
      4  C17      -19.4450   30.3400   66.8470 C.2   1501  GRG1501    -0.0342
      5  C16      -18.3380   29.4970   66.7870 C.3   1501  GRG1501     0.0297
      6  C14      -18.3940   28.8080   63.5840 C.3   1501  GRG1501     0.0260
      7  C13      -19.2810   28.3890   64.7590 C.2   1501  GRG1501    -0.0478
      8  C15      -18.6880   28.1480   66.1460 C.3   1501  GRG1501     0.0263
      9  C12      -20.6520   28.2400   64.6150 C.2   1501  GRG1501    -0.0342
     10  C11      -21.4470   28.4320   63.4930 C.3   1501  GRG1501     0.0297
     11  C9       -22.6830   29.1650   64.0180 C.3   1501  GRG1501     0.0263
     12  C8       -23.6590   29.5560   62.9140 C.2   1501  GRG1501    -0.0478
     13  C10      -23.1370   30.2170   61.6360 C.3   1501  GRG1501     0.0260
     14  C7       -25.0080   29.2780   63.0860 C.2   1501  GRG1501    -0.0342
     15  C6       -26.0110   29.5960   62.1790 C.3   1501  GRG1501     0.0297
     16  C5       -26.7770   30.7930   62.7440 C.3   1501  GRG1501     0.0264
     17  C3       -27.5170   31.5760   61.6590 C.2   1501  GRG1501    -0.0454
     18  C4       -28.9290   31.1690   61.2330 C.3   1501  GRG1501     0.0261
     19  C2       -26.8620   32.6370   61.0460 C.2   1501  GRG1501    -0.0024
     20  C1       -27.3760   33.4700   60.0600 C.3   1501  GRG1501     0.1747
     21  O1       -28.0170   34.5700   60.7100 O.3   1501  GRG1501    -0.3089
     22  PA       -28.6000   35.8170   59.8810 P.3   1501  GRG1501     0.2233
     23  O1A      -29.5460   35.2100   58.7270 O.2   1501  GRG1501    -0.5169
     24  O3A      -27.3430   36.4600   59.1010 O.3   1501  GRG1501    -0.2261
     25  O2A      -29.3240   36.7420   60.7840 O.3   1501  GRG1501    -0.4370
     26  PB       -27.1490   38.0280   58.7760 P.3   1501  GRG1501     0.5373
     27  O1B      -26.5140   38.1380   57.3010 O.2   1501  GRG1501    -0.2221
     28  O2B      -28.6100   38.6960   58.6740 O.3   1501  GRG1501    -0.1143
     29  O3B      -26.2770   38.6710   59.7860 O.3   1501  GRG1501    -0.1143
@<TRIPOS>BOND
     1    27    26    2
     2    28    26    1
     3    23    22    2
     4    26    24    1
     5    26    29    1
     6    24    22    1
     7    22    21    1
     8    22    25    1
     9    20    21    1
    10    20    19    1
    11    19    17    2
    12    18    17    1
    13    13    12    1
    14    17    16    1
    15    15    16    1
    16    15    14    1
    17    12    14    2
    18    12    11    1
    19    10    11    1
    20    10     9    1
    21     6     7    1
    22     9     7    2
    23     7     8    1
    24     8     5    1
    25     5     4    1
    26     4     3    2
    27     1     3    1
    28     3     2    1
