@<TRIPOS>MOLECULE
2e8w_IPE_A_1.pdb
 14 13 0 0 0
SMALL
GASTEIGER

@<TRIPOS>ATOM
      1  C1        28.0640   46.3290    8.7860 C.3   1001  IPE1001     0.1491
      2  O1        28.3950   45.8180    7.4930 O.3   1001  IPE1001    -0.3138
      3  C2        29.2480   46.1100    9.7260 C.3   1001  IPE1001     0.0325
      4  C3        29.0890   46.9770   10.9800 C.3   1001  IPE1001     0.0025
      5  C4        28.9510   46.3210   12.3610 C.3   1001  IPE1001     0.0001
      6  C5        29.0740   48.3530   10.8540 C.3   1001  IPE1001     0.0001
      7  PA        27.2500   45.6430    6.3810 P.3   1001  IPE1001     0.2230
      8  O1A       26.5560   44.2220    6.6760 O.3   1001  IPE1001    -0.4370
      9  O2A       26.2810   46.7680    6.3650 O.2   1001  IPE1001    -0.5169
     10  O3A       28.0080   45.4960    4.9720 O.3   1001  IPE1001    -0.2261
     11  PB        29.4960   44.8900    4.8400 P.3   1001  IPE1001     0.5373
     12  O1B       29.9950   45.3580    3.3820 O.2   1001  IPE1001    -0.2221
     13  O2B       30.4050   45.6690    5.9090 O.3   1001  IPE1001    -0.1143
     14  O3B       29.5140   43.4230    5.0230 O.3   1001  IPE1001    -0.1143
@<TRIPOS>BOND
     1    12    11    2
     2    11    10    1
     3    11    14    1
     4    11    13    1
     5    10     7    1
     6     9     7    2
     7     7     8    1
     8     7     2    1
     9     2     1    1
    10     1     3    1
    11     3     4    1
    12     6     4    1
    13     4     5    1
