@<TRIPOS>MOLECULE
2e8x_GPP_A_1.pdb
 19 18 0 0 0
SMALL
GASTEIGER

@<TRIPOS>ATOM
      1  C1        29.0800   45.4800    8.2680 C.3   1001  GPP1001     0.1747
      2  O1        27.9150   45.8890    7.5440 O.3   1001  GPP1001    -0.3089
      3  C2        28.9170   45.7670    9.6220 C.2   1001  GPP1001    -0.0024
      4  C3        29.7680   46.4640   10.4690 C.2   1001  GPP1001    -0.0454
      5  C4        31.0890   47.0390    9.9500 C.3   1001  GPP1001     0.0261
      6  C5        29.3760   46.6580   11.9350 C.3   1001  GPP1001     0.0264
      7  C6        28.4590   45.5100   12.3720 C.3   1001  GPP1001     0.0297
      8  C7        27.9180   45.6850   13.6370 C.2   1001  GPP1001    -0.0342
      9  C8        27.7350   44.7030   14.6130 C.2   1001  GPP1001    -0.0478
     10  C9        27.1020   45.0860   15.9520 C.3   1001  GPP1001     0.0260
     11  C10       28.1700   43.2570   14.3670 C.3   1001  GPP1001     0.0260
     12  PA        27.5850   45.3750    6.0530 P.3   1001  GPP1001     0.2233
     13  O1A       27.2660   43.7910    6.1180 O.3   1001  GPP1001    -0.4370
     14  O2A       26.4660   46.1780    5.5040 O.2   1001  GPP1001    -0.5169
     15  O3A       28.9410   45.5800    5.2120 O.3   1001  GPP1001    -0.2261
     16  PB        29.8780   44.3940    4.6490 P.3   1001  GPP1001     0.5373
     17  O1B       29.8870   44.5940    3.0510 O.2   1001  GPP1001    -0.2221
     18  O2B       31.3430   44.7980    5.1880 O.3   1001  GPP1001    -0.1143
     19  O3B       29.4930   43.0160    5.0060 O.3   1001  GPP1001    -0.1143
@<TRIPOS>BOND
     1    17    16    2
     2    16    19    1
     3    16    18    1
     4    16    15    1
     5    15    12    1
     6    14    12    2
     7    12    13    1
     8    12     2    1
     9     2     1    1
    10     1     3    1
    11     3     4    2
    12     5     4    1
    13     4     6    1
    14     6     7    1
    15     7     8    1
    16     8     9    2
    17    11     9    1
    18     9    10    1
