@<TRIPOS>MOLECULE
2e8z_GLC_A_1.pdb
 11 11 0 0 0
SMALL
GASTEIGER

@<TRIPOS>ATOM
      1  C1        88.0790   53.2770  111.6300 C.3   721  GLC721      0.1777
      2  C2        87.8760   51.9740  110.8510 C.3   721  GLC721      0.2141
      3  C3        88.8520   50.9000  111.3480 C.3   721  GLC721      0.2173
      4  C4        90.3060   51.4030  111.4030 C.3   721  GLC721      0.2142
      5  C5        90.3940   52.7880  112.0710 C.3   721  GLC721      0.1810
      6  C6        91.7590   53.4330  111.9250 C.3   721  GLC721      0.2141
      7  O2        86.5410   51.5160  111.0220 O.3   721  GLC721     -0.2176
      8  O3        88.7840   49.7650  110.4980 O.3   721  GLC721     -0.2175
      9  O4        91.0780   50.4640  112.1760 O.3   721  GLC721     -0.2176
     10  O5        89.4310   53.6970  111.4910 O.3   721  GLC721     -0.3481
     11  O6        92.3840   53.0480  110.7090 O.3   721  GLC721     -0.2176
@<TRIPOS>BOND
     1     8     3    1
     2    11     6    1
     3     2     7    1
     4     2     3    1
     5     2     1    1
     6     3     4    1
     7     4     5    1
     8     4     9    1
     9    10     1    1
    10    10     5    1
    11     6     5    1
