@<TRIPOS>MOLECULE
2e90_FPP_A_1.pdb
 24 23 0 0 0
SMALL
GASTEIGER

@<TRIPOS>ATOM
      1  C1        28.3910   45.9000    7.7420 C.3   1101  FPP1101     0.1747
      2  O1        27.1420   46.3950    7.2460 O.3   1101  FPP1101    -0.3089
      3  C2        28.4160   45.8450    9.1300 C.2   1101  FPP1101    -0.0024
      4  C3        28.2510   46.9330    9.9780 C.2   1101  FPP1101    -0.0454
      5  C4        28.0160   48.3230    9.3850 C.3   1101  FPP1101     0.0261
      6  C5        28.2960   46.7470   11.4960 C.3   1101  FPP1101     0.0264
      7  C6        27.2170   45.7720   11.9700 C.3   1101  FPP1101     0.0297
      8  C7        27.0800   45.8730   13.3490 C.2   1101  FPP1101    -0.0342
      9  C8        27.0730   44.8450   14.2860 C.2   1101  FPP1101    -0.0478
     10  C10       27.2110   43.3860   13.8470 C.3   1101  FPP1101     0.0260
     11  C9        26.9090   45.1930   15.7670 C.3   1101  FPP1101     0.0263
     12  C11       28.2610   45.4190   16.4470 C.3   1101  FPP1101     0.0297
     13  C12       28.9930   46.4390   15.8510 C.2   1101  FPP1101    -0.0342
     14  C13       30.2140   46.9200   16.3100 C.2   1101  FPP1101    -0.0478
     15  C14       30.9290   48.0500   15.5670 C.3   1101  FPP1101     0.0260
     16  C15       30.8390   46.3160   17.5690 C.3   1101  FPP1101     0.0260
     17  PA        26.4400   45.6110    6.0280 P.3   1101  FPP1101     0.2233
     18  O1A       25.1950   44.8070    6.6580 O.3   1101  FPP1101    -0.4370
     19  O2A       26.0510   46.4890    4.9030 O.2   1101  FPP1101    -0.5169
     20  O3A       27.4940   44.4480    5.6610 O.3   1101  FPP1101    -0.2261
     21  PB        28.6750   44.6520    4.5860 P.3   1101  FPP1101     0.5373
     22  O1B       28.0720   45.5800    3.4150 O.2   1101  FPP1101    -0.2221
     23  O2B       29.8450   45.4770    5.3220 O.3   1101  FPP1101    -0.1143
     24  O3B       29.1390   43.3470    4.0650 O.3   1101  FPP1101    -0.1143
@<TRIPOS>BOND
     1    22    21    2
     2    24    21    1
     3    21    23    1
     4    21    20    1
     5    19    17    2
     6    20    17    1
     7    17    18    1
     8    17     2    1
     9     2     1    1
    10     1     3    1
    11     3     4    2
    12     5     4    1
    13     4     6    1
    14     6     7    1
    15     7     8    1
    16     8     9    2
    17    10     9    1
    18     9    11    1
    19    15    14    1
    20    11    12    1
    21    13    14    2
    22    13    12    1
    23    14    16    1
