@<TRIPOS>MOLECULE
2e91_ZOL_A_1.pdb
 16 16 0 0 0
SMALL
GASTEIGER

@<TRIPOS>ATOM
      1  O17       28.9780   43.4940    5.0900 O.3   901  ZOL901     -0.3552
      2  P14       29.5310   44.9490    4.6960 P.3   901  ZOL901      0.1531
      3  O16       28.9690   45.3700    3.2410 O.2   901  ZOL901     -0.4572
      4  O15       31.0030   45.0270    4.8460 O.3   901  ZOL901     -0.3552
      5  C8        28.6380   46.1140    5.8410 C.3   901  ZOL901      0.2364
      6  P9        26.8200   45.7440    5.6160 P.3   901  ZOL901      0.1531
      7  O10       26.5750   44.2930    6.2630 O.3   901  ZOL901     -0.3552
      8  O11       26.0330   46.8350    6.4970 O.3   901  ZOL901     -0.3552
      9  O12       26.4830   45.7670    4.1690 O.2   901  ZOL901     -0.4572
     10  O13       28.9140   47.4520    5.4150 O.3   901  ZOL901     -0.2088
     11  C7        29.1060   45.8650    7.2780 C.3   901  ZOL901      0.1520
     12  N15       28.4500   46.7580    8.2490 N.ar  901  ZOL901     -0.3043
     13  C16       28.3730   48.0790    8.1550 C.ar  901  ZOL901      0.1787
     14  N17       27.7660   48.4950    9.2680 N.ar  901  ZOL901     -0.2223
     15  C18       27.4810   47.4440   10.0340 C.ar  901  ZOL901      0.1193
     16  C19       27.9080   46.3560    9.3960 C.ar  901  ZOL901      0.0981
@<TRIPOS>BOND
     1     3     2    2
     2     9     6    2
     3     2     4    1
     4     2     1    1
     5     2     5    1
     6    10     5    1
     7     6     5    1
     8     6     7    1
     9     6     8    1
    10     5    11    1
    11    11    12    1
    12    13    12   ar
    13    13    14   ar
    14    12    16   ar
    15    14    15   ar
    16    16    15   ar
