@<TRIPOS>MOLECULE
2e92_M0N_A_1.pdb
 20 21 0 0 0
SMALL
GASTEIGER

@<TRIPOS>ATOM
      1  O         29.1470   47.3490    5.5090 O.3   901  M0N901     -0.2104
      2  C9        28.8910   45.9840    5.8550 C.3   901  M0N901      0.2214
      3  C8        29.4250   45.6760    7.2530 C.3   901  M0N901      0.0904
      4  C2        28.9430   46.6950    8.2960 C.ar  901  M0N901      0.0652
      5  C1        28.4220   47.8990    8.1110 C.ar  901  M0N901      0.1137
      6  N1        28.1220   48.4370    9.2960 N.ar  901  M0N901     -0.2252
      7  C7        28.4510   47.5920   10.2700 C.ar  901  M0N901      0.1476
      8  C6        28.3720   47.6690   11.6540 C.ar  901  M0N901      0.0374
      9  C5        28.8280   46.6130   12.4360 C.ar  901  M0N901      0.0046
     10  C4        29.3630   45.4740   11.8370 C.ar  901  M0N901      0.0191
     11  C3        29.4500   45.3820   10.4560 C.ar  901  M0N901      0.0811
     12  N2        28.9910   46.4490    9.6680 N.ar  901  M0N901     -0.2924
     13  P1        29.8040   44.9070    4.6450 P.3   901  M0N901      0.1515
     14  O2        29.4080   45.1920    3.2500 O.2   901  M0N901     -0.4572
     15  O3        31.3750   45.1480    4.9070 O.3   901  M0N901     -0.3553
     16  O1        29.5030   43.4110    5.1490 O.3   901  M0N901     -0.3553
     17  P2        27.0700   45.6020    5.7100 P.3   901  M0N901      0.1515
     18  O5        26.9010   44.0580    6.1380 O.3   901  M0N901     -0.3553
     19  O6        26.7440   45.6520    4.1380 O.2   901  M0N901     -0.4572
     20  O4        26.2220   46.5380    6.4800 O.3   901  M0N901     -0.3553
@<TRIPOS>BOND
     1    14    13    2
     2    19    17    2
     3    13    15    1
     4    13    16    1
     5    13     2    1
     6     1     2    1
     7    17     2    1
     8    17    18    1
     9    17    20    1
    10     2     3    1
    11     3     4    1
    12     5     4   ar
    13     5     6   ar
    14     4    12   ar
    15     6     7   ar
    16    12     7   ar
    17    12    11   ar
    18     7     8   ar
    19    11    10   ar
    20     8     9   ar
    21    10     9   ar
