@<TRIPOS>MOLECULE
2e93_B29_A_1.pdb
 30 33 0 0 0
SMALL
GASTEIGER

@<TRIPOS>ATOM
      1  CAY       28.7180   45.6620   16.0090 C.ar  901  B29901      0.0375
      2  CAP       28.8110   45.0750   17.2650 C.ar  901  B29901      0.0031
      3  CAI       29.7530   45.5310   18.1810 C.ar  901  B29901      0.0002
      4  CAH       30.5920   46.5860   17.8410 C.ar  901  B29901      0.0031
      5  CAO       30.4910   47.1780   16.5850 C.ar  901  B29901      0.0375
      6  CAX       29.5560   46.7160   15.6630 C.ar  901  B29901      0.1453
      7  OAT       29.3680   46.9950   14.3370 O.2   901  B29901     -0.4535
      8  CBA       28.4430   46.1320   13.8280 C.ar  901  B29901      0.1452
      9  CAZ       28.0340   45.2910   14.8580 C.ar  901  B29901      0.0375
     10  CAQ       27.1820   44.2210   14.5920 C.ar  901  B29901      0.0031
     11  CAK       26.7360   44.0050   13.2920 C.ar  901  B29901      0.0002
     12  CAN       27.1300   44.8640   12.2680 C.ar  901  B29901      0.0030
     13  CAW       27.9840   45.9300   12.5300 C.ar  901  B29901      0.0346
     14  CAV       28.3710   46.7800   11.5000 C.ar  901  B29901      0.0026
     15  CAR       28.7110   46.2500   10.2600 C.ar  901  B29901     -0.0041
     16  CAM       28.4540   48.1560   11.6950 C.ar  901  B29901      0.0001
     17  CAJ       28.8650   48.9930   10.6610 C.ar  901  B29901     -0.0003
     18  CAL       29.2050   48.4530    9.4240 C.ar  901  B29901     -0.0042
     19  CAU       29.1360   47.0780    9.2240 C.ar  901  B29901     -0.0188
     20  CAS       29.6740   46.4280    7.9430 C.3   901  B29901      0.0709
     21  CBB       29.0730   46.9280    6.6250 C.3   901  B29901      0.2199
     22  PBC       29.7820   45.8270    5.2990 P.3   901  B29901      0.1514
     23  OAD       29.4530   46.4590    3.8620 O.2   901  B29901     -0.4572
     24  OAE       31.3590   46.0250    5.5480 O.3   901  B29901     -0.3553
     25  OAA       29.3550   44.4150    5.4330 O.3   901  B29901     -0.3553
     26  PBD       27.2080   46.8410    6.6760 P.3   901  B29901      0.1514
     27  OAF       26.8550   45.5290    7.5310 O.3   901  B29901     -0.3553
     28  OAG       26.7840   48.1310    7.5450 O.3   901  B29901     -0.3553
     29  OAB       26.5750   46.8840    5.3420 O.2   901  B29901     -0.4572
     30  OAC       29.4970   48.2720    6.3760 O.3   901  B29901     -0.2105
@<TRIPOS>BOND
     1    23    22    2
     2    22    25    1
     3    22    24    1
     4    22    21    1
     5    29    26    2
     6    30    21    1
     7    21    26    1
     8    21    20    1
     9    26    27    1
    10    26    28    1
    11    20    19    1
    12    19    18   ar
    13    19    15   ar
    14    18    17   ar
    15    15    14   ar
    16    17    16   ar
    17    14    16   ar
    18    14    13    1
    19    12    13   ar
    20    12    11   ar
    21    13     8   ar
    22    11    10   ar
    23     8     7   ar
    24     8     9   ar
    25     7     6   ar
    26    10     9   ar
    27     9     1   ar
    28     6     1   ar
    29     6     5   ar
    30     1     2   ar
    31     5     4   ar
    32     2     3   ar
    33     4     3   ar
