@<TRIPOS>MOLECULE
2e94_364_A_1.pdb
 29 31 0 0 0
SMALL
GASTEIGER

@<TRIPOS>ATOM
      1  CAM       35.3180   53.0670   10.5620 C.ar  1101  3641101    -0.0000
      2  CAI       36.1370   53.5310   11.5840 C.ar  1101  3641101     0.0000
      3  CAH       36.4880   52.6820   12.6290 C.ar  1101  3641101     0.0000
      4  CAJ       36.0170   51.3740   12.6480 C.ar  1101  3641101     0.0000
      5  CAN       35.1970   50.9120   11.6240 C.ar  1101  3641101    -0.0000
      6  CAV       34.8460   51.7570   10.5760 C.ar  1101  3641101    -0.0000
      7  CAW       34.0920   51.2750    9.5140 C.ar  1101  3641101    -0.0000
      8  CAS       33.0200   50.4150    9.7350 C.ar  1101  3641101    -0.0003
      9  CAO       34.4090   51.6590    8.2140 C.ar  1101  3641101    -0.0000
     10  CAK       33.6640   51.1810    7.1430 C.ar  1101  3641101    -0.0000
     11  CAP       32.5970   50.3180    7.3690 C.ar  1101  3641101    -0.0003
     12  CAX       32.2710   49.9350    8.6650 C.ar  1101  3641101    -0.0024
     13  CAY       31.1760   49.1050    8.8820 C.2   1101  3641101    -0.0024
     14  CAT       30.9280   48.0420    8.0190 C.3   1101  3641101     0.1178
     15  CAQ       30.3640   49.2900    9.9960 C.2   1101  3641101    -0.0013
     16  CAL       29.3100   48.4230   10.2570 C.2   1101  3641101     0.0155
     17  CAR       29.0600   47.3550    9.4030 C.2   1101  3641101     0.0617
     18  NAZ       29.8730   47.1580    8.2800 N.pl3 1101  3641101    -0.2995
     19  CAU       29.6790   45.9550    7.4370 C.3   1101  3641101     0.1359
     20  CBA       29.2480   46.2370    5.9940 C.3   1101  3641101     0.2338
     21  PBB       29.2590   44.5910    5.1110 P.3   1101  3641101     0.1528
     22  OAD       29.0390   44.8840    3.5440 O.2   1101  3641101    -0.4572
     23  OAE       30.7590   44.0240    5.2380 O.3   1101  3641101    -0.3552
     24  OAA       28.2570   43.6440    5.6500 O.3   1101  3641101    -0.3552
     25  PBC       27.5660   47.0450    5.9070 P.3   1101  3641101     0.1528
     26  OAF       26.4770   46.0170    6.5000 O.3   1101  3641101    -0.3552
     27  OAG       27.6150   48.2790    6.9420 O.3   1101  3641101    -0.3552
     28  OAB       27.2420   47.5040    4.5380 O.2   1101  3641101    -0.4572
     29  OAC       30.1860   47.1170    5.3640 O.3   1101  3641101    -0.2090
@<TRIPOS>BOND
     1    22    21    2
     2    28    25    2
     3    21    23    1
     4    21    24    1
     5    21    20    1
     6    29    20    1
     7    25    20    1
     8    25    26    1
     9    25    27    1
    10    20    19    1
    11    10    11   ar
    12    10     9   ar
    13    11    12   ar
    14    19    18    1
    15    14    18    1
    16    14    13    1
    17     9     7   ar
    18    18    17    1
    19    12    13    1
    20    12     8   ar
    21    13    15    2
    22    17    16    2
    23     7     8   ar
    24     7     6    1
    25    15    16    1
    26     1     6   ar
    27     1     2   ar
    28     6     5   ar
    29     2     3   ar
    30     5     4   ar
    31     3     4   ar
