@<TRIPOS>MOLECULE
2e95_B75_A_1.pdb
 10 9 0 0 0
SMALL
GASTEIGER

@<TRIPOS>ATOM
      1  CBH       28.1940   46.2740    4.8000 C.3   1001  B751001     0.2531
      2  PBI       29.5250   44.9680    4.7920 P.3   1001  B751001     0.1546
      3  OAF       28.8910   43.5360    5.1510 O.3   1001  B751001    -0.3552
      4  OAG       29.8230   45.0170    3.2120 O.2   1001  B751001    -0.4571
      5  OAA       30.7640   45.2600    5.5440 O.3   1001  B751001    -0.3552
      6  PBJ       26.6790   45.9120    5.8310 P.3   1001  B751001     0.1546
      7  OAH       26.6190   44.3550    6.2380 O.3   1001  B751001    -0.3552
      8  OAI       26.7370   46.7550    7.1960 O.3   1001  B751001    -0.3552
      9  OAB       25.5010   46.3170    5.0330 O.2   1001  B751001    -0.4571
     10  OAE       27.7900   46.3770    3.4260 O.3   1001  B751001    -0.2072
@<TRIPOS>BOND
     1     4     2    2
     2    10     1    1
     3     2     1    1
     4     2     3    1
     5     2     5    1
     6     1     6    1
     7     9     6    2
     8     6     7    1
     9     6     8    1
