@<TRIPOS>MOLECULE
2e98_B29_A_1.pdb
 30 33 0 0 0
SMALL
GASTEIGER

@<TRIPOS>ATOM
      1  CAY       43.1330   34.0200   56.1400 C.ar  501  B29501      0.0375
      2  CAP       44.0200   32.9500   56.1970 C.ar  501  B29501      0.0031
      3  CAI       44.1470   32.0800   55.1180 C.ar  501  B29501      0.0002
      4  CAH       43.3900   32.2830   53.9690 C.ar  501  B29501      0.0031
      5  CAO       42.5050   33.3540   53.9100 C.ar  501  B29501      0.0375
      6  CAX       42.3690   34.2160   54.9950 C.ar  501  B29501      0.1453
      7  OAT       41.5870   35.3190   55.1950 O.2   501  B29501     -0.4535
      8  CBA       41.8490   35.8420   56.4330 C.ar  501  B29501      0.1452
      9  CAZ       42.8140   35.0390   57.0330 C.ar  501  B29501      0.0375
     10  CAQ       43.3210   35.4000   58.2770 C.ar  501  B29501      0.0031
     11  CAK       42.8720   36.5520   58.9160 C.ar  501  B29501      0.0002
     12  CAN       41.9050   37.3470   58.3080 C.ar  501  B29501      0.0030
     13  CAW       41.3880   36.9940   57.0650 C.ar  501  B29501      0.0346
     14  CAV       40.4030   37.7720   56.4580 C.ar  501  B29501      0.0026
     15  CAR       40.5270   39.1540   56.3450 C.ar  501  B29501     -0.0041
     16  CAM       39.3000   37.1480   55.8810 C.ar  501  B29501      0.0001
     17  CAJ       38.3570   37.9050   55.1910 C.ar  501  B29501     -0.0003
     18  CAL       38.4870   39.2850   55.0690 C.ar  501  B29501     -0.0042
     19  CAU       39.5810   39.9140   55.6560 C.ar  501  B29501     -0.0188
     20  CAS       39.7850   41.4150   55.4230 C.3   501  B29501      0.0709
     21  CBB       39.2080   42.3040   56.5300 C.3   501  B29501      0.2199
     22  PBC       39.9670   43.9970   56.3900 P.3   501  B29501      0.1514
     23  OAD       39.5310   44.6800   55.0070 O.2   501  B29501     -0.4572
     24  OAE       39.3030   44.8710   57.5640 O.3   501  B29501     -0.3553
     25  OAA       41.4280   43.8580   56.6000 O.3   501  B29501     -0.3553
     26  PBD       37.3510   42.4850   56.4790 P.3   501  B29501      0.1514
     27  OAF       36.9560   42.8560   54.9720 O.2   501  B29501     -0.4572
     28  OAG       36.8220   41.0300   56.9030 O.3   501  B29501     -0.3553
     29  OAB       36.9300   43.5720   57.3950 O.3   501  B29501     -0.3553
     30  OAC       39.5700   41.8060   57.8200 O.3   501  B29501     -0.2105
@<TRIPOS>BOND
     1     5     4   ar
     2     5     6   ar
     3     4     3   ar
     4    27    26    2
     5     6     7   ar
     6     6     1   ar
     7    23    22    2
     8    18    17   ar
     9    18    19   ar
    10     3     2   ar
    11    17    16   ar
    12     7     8   ar
    13    20    19    1
    14    20    21    1
    15    19    15   ar
    16    16    14   ar
    17     1     2   ar
    18     1     9   ar
    19    15    14   ar
    20    22    21    1
    21    22    25    1
    22    22    24    1
    23     8     9   ar
    24     8    13   ar
    25    14    13    1
    26    26    21    1
    27    26    28    1
    28    26    29    1
    29    21    30    1
    30     9    10   ar
    31    13    12   ar
    32    10    11   ar
    33    12    11   ar
