@<TRIPOS>MOLECULE
2e99_B08_A_1.pdb
 29 31 0 0 0
SMALL
GASTEIGER

@<TRIPOS>ATOM
      1  CAN       42.6190   33.7910   54.9880 C.ar  505  B08505      0.0000
      2  CAI       42.9660   32.5750   54.4090 C.ar  505  B08505      0.0000
      3  CAH       43.7130   31.6490   55.1330 C.ar  505  B08505      0.0000
      4  CAJ       44.0990   31.9560   56.4330 C.ar  505  B08505      0.0000
      5  CAO       43.7490   33.1770   57.0060 C.ar  505  B08505      0.0000
      6  CAW       43.0060   34.1090   56.2860 C.ar  505  B08505      0.0000
      7  CAY       42.6420   35.3240   56.8650 C.ar  505  B08505     -0.0000
      8  CAT       41.6060   36.0950   56.3410 C.ar  505  B08505     -0.0000
      9  CAQ       43.2980   35.7740   58.0060 C.ar  505  B08505      0.0000
     10  CAL       42.9180   36.9700   58.6070 C.ar  505  B08505     -0.0000
     11  CAR       41.8830   37.7320   58.0730 C.ar  505  B08505     -0.0000
     12  CAZ       41.2220   37.2970   56.9300 C.ar  505  B08505     -0.0000
     13  CAX       40.1830   38.0590   56.3950 C.ar  505  B08505     -0.0003
     14  CAS       40.3040   39.4420   56.2790 C.ar  505  B08505     -0.0042
     15  CAP       39.0610   37.4320   55.8650 C.ar  505  B08505     -0.0000
     16  CAK       38.0800   38.1760   55.2120 C.ar  505  B08505     -0.0003
     17  CAM       38.2130   39.5550   55.0880 C.ar  505  B08505     -0.0042
     18  CAV       39.3280   40.1920   55.6250 C.ar  505  B08505     -0.0188
     19  CAU       39.5280   41.6920   55.3810 C.3   505  B08505      0.0709
     20  CBA       38.9660   42.5710   56.5020 C.3   505  B08505      0.2199
     21  PBB       39.6910   44.2850   56.3820 P.3   505  B08505      0.1514
     22  OAD       41.2880   44.0990   56.4360 O.3   505  B08505     -0.3553
     23  OAE       39.3830   44.8280   54.8980 O.2   505  B08505     -0.4572
     24  OAA       39.1530   45.1370   57.4660 O.3   505  B08505     -0.3553
     25  PBC       37.1090   42.7670   56.4460 P.3   505  B08505      0.1514
     26  OAF       36.7220   43.1150   54.9210 O.2   505  B08505     -0.4572
     27  OAG       36.5210   41.3120   56.8120 O.3   505  B08505     -0.3553
     28  OAB       36.6180   43.8180   57.3700 O.3   505  B08505     -0.3553
     29  OAC       39.3840   42.0180   57.7510 O.3   505  B08505     -0.2105
@<TRIPOS>BOND
     1     2     1   ar
     2     2     3   ar
     3    23    21    2
     4    26    25    2
     5     1     6   ar
     6    17    16   ar
     7    17    18   ar
     8     3     4   ar
     9    16    15   ar
    10    19    18    1
    11    19    20    1
    12    18    14   ar
    13    15    13   ar
    14    14    13   ar
    15     6     7    1
    16     6     5   ar
    17     8     7   ar
    18     8    12   ar
    19    21    22    1
    20    21    20    1
    21    21    24    1
    22    13    12    1
    23     4     5   ar
    24    25    20    1
    25    25    27    1
    26    25    28    1
    27    20    29    1
    28     7     9   ar
    29    12    11   ar
    30     9    10   ar
    31    11    10   ar
