@<TRIPOS>MOLECULE
2e9a_B28_A_1.pdb
 29 31 0 0 0
SMALL
GASTEIGER

@<TRIPOS>ATOM
      1  CAM       44.2630   33.4480   58.5960 C.ar  701  B28701      0.0000
      2  CAI       45.3090   32.6450   59.0410 C.ar  701  B28701      0.0000
      3  CAH       46.3600   33.2130   59.7520 C.ar  701  B28701      0.0000
      4  CAJ       46.3660   34.5780   60.0170 C.ar  701  B28701      0.0000
      5  CAN       45.3170   35.3760   59.5730 C.ar  701  B28701      0.0000
      6  CAW       44.2610   34.8150   58.8620 C.ar  701  B28701      0.0000
      7  CAX       43.2170   35.6100   58.3990 C.ar  701  B28701      0.0000
      8  CAQ       42.9500   36.8530   58.9680 C.ar  701  B28701     -0.0000
      9  CAS       41.9190   37.6490   58.4780 C.ar  701  B28701     -0.0000
     10  CAP       42.4350   35.1660   57.3380 C.ar  701  B28701     -0.0000
     11  CAR       41.4060   35.9610   56.8480 C.ar  701  B28701     -0.0000
     12  CAY       41.1460   37.2050   57.4110 C.ar  701  B28701     -0.0000
     13  CAZ       40.1510   38.0040   56.8560 C.ar  701  B28701     -0.0003
     14  CAT       40.3030   39.3850   56.7740 C.ar  701  B28701     -0.0042
     15  CAO       39.0430   37.3940   56.2780 C.ar  701  B28701     -0.0000
     16  CAK       38.0940   38.1670   55.6180 C.ar  701  B28701     -0.0003
     17  CAL       38.2520   39.5470   55.5330 C.ar  701  B28701     -0.0042
     18  CAV       39.3610   40.1590   56.1080 C.ar  701  B28701     -0.0188
     19  CAU       39.6080   41.6530   55.8810 C.3   701  B28701      0.0709
     20  CBA       38.9940   42.5280   56.9750 C.3   701  B28701      0.2199
     21  PBB       39.7360   44.2330   56.8780 P.3   701  B28701      0.1514
     22  OAD       39.2680   45.0010   58.2140 O.3   701  B28701     -0.3553
     23  OAE       41.3280   44.0040   56.9690 O.3   701  B28701     -0.3553
     24  OAA       39.3110   44.9280   55.6410 O.2   701  B28701     -0.4572
     25  PBC       37.1480   42.7140   56.7590 P.3   701  B28701      0.1514
     26  OAF       36.4970   41.2590   56.9970 O.3   701  B28701     -0.3553
     27  OAG       36.6450   43.6400   57.9780 O.3   701  B28701     -0.3553
     28  OAB       36.7850   43.3160   55.4550 O.2   701  B28701     -0.4572
     29  OAC       39.3530   41.9700   58.2420 O.3   701  B28701     -0.2105
@<TRIPOS>BOND
     1    28    25    2
     2    17    16   ar
     3    17    18   ar
     4    16    15   ar
     5    24    21    2
     6    19    18    1
     7    19    20    1
     8    18    14   ar
     9    15    13   ar
    10    25    20    1
    11    25    26    1
    12    25    27    1
    13    14    13   ar
    14    11    10   ar
    15    11    12   ar
    16    13    12    1
    17    21    23    1
    18    21    20    1
    19    21    22    1
    20    20    29    1
    21    10     7   ar
    22    12     9   ar
    23     7     6    1
    24     7     8   ar
    25     9     8   ar
    26     1     6   ar
    27     1     2   ar
    28     6     5   ar
    29     2     3   ar
    30     5     4   ar
    31     3     4   ar
