@<TRIPOS>MOLECULE
2e9b_GLC_A_1.pdb
 11 11 0 0 0
SMALL
GASTEIGER

@<TRIPOS>ATOM
      1  C1        91.7500   50.6680  104.8940 C.3   722  GLC722      0.1777
      2  C2        92.6680   49.6150  105.5480 C.3   722  GLC722      0.2141
      3  C3        94.0900   50.1660  105.7170 C.3   722  GLC722      0.2173
      4  C4        94.6160   50.6390  104.3630 C.3   722  GLC722      0.2142
      5  C5        93.6760   51.7300  103.8450 C.3   722  GLC722      0.1810
      6  C6        94.0930   52.3130  102.5040 C.3   722  GLC722      0.2141
      7  O2        92.1440   49.2530  106.8180 O.3   722  GLC722     -0.2176
      8  O3        94.9460   49.1640  106.2480 O.3   722  GLC722     -0.2175
      9  O4        95.9530   51.1500  104.5110 O.3   722  GLC722     -0.2176
     10  O5        92.3370   51.1900  103.6930 O.3   722  GLC722     -0.3481
     11  O6        94.2340   51.2980  101.5230 O.3   722  GLC722     -0.2176
@<TRIPOS>BOND
     1    11     6    1
     2     6     5    1
     3    10     5    1
     4    10     1    1
     5     5     4    1
     6     4     9    1
     7     4     3    1
     8     1     2    1
     9     2     3    1
    10     2     7    1
    11     3     8    1
