@<TRIPOS>MOLECULE
2e9c_B75_A_1.pdb
 37 40 0 0 0
SMALL
GASTEIGER

@<TRIPOS>ATOM
      1  CAX       44.4170   35.6960   53.5250 C.ar  701  B75701      0.0202
      2  CBG       44.5880   36.8080   52.7050 C.ar  701  B75701      0.0013
      3  CAT       44.9360   36.6470   51.3680 C.ar  701  B75701      0.0000
      4  CAM       45.0620   37.7570   50.5390 C.ar  701  B75701      0.0000
      5  CAL       44.8420   39.0320   51.0470 C.ar  701  B75701      0.0000
      6  CAS       44.5000   39.1960   52.3840 C.ar  701  B75701      0.0000
      7  CBF       44.3750   38.0850   53.2120 C.ar  701  B75701      0.0001
      8  CAU       44.0100   38.2450   54.5430 C.ar  701  B75701      0.0014
      9  CAR       43.8410   37.1320   55.3600 C.ar  701  B75701      0.0202
     10  CBE       44.0270   35.8520   54.8510 C.ar  701  B75701      0.1270
     11  SBK       43.4590   34.4660   55.7610 S.O2  701  B75701      0.0928
     12  OAC       43.4290   33.2530   54.8780 O.2   701  B75701     -0.1483
     13  OAD       44.3470   34.2270   56.9460 O.2   701  B75701     -0.1483
     14  NAZ       41.9620   34.8240   56.2860 N.pl3 701  B75701     -0.0965
     15  CBB       41.7100   35.6810   57.2730 C.ar  701  B75701      0.0910
     16  CAW       40.5400   36.4060   57.1080 C.ar  701  B75701      0.0180
     17  CAO       42.7440   36.2100   58.0370 C.ar  701  B75701      0.0180
     18  CAK       42.6040   37.4620   58.6260 C.ar  701  B75701      0.0014
     19  CAQ       41.4480   38.2100   58.4280 C.ar  701  B75701      0.0001
     20  CBD       40.4300   37.6820   57.6420 C.ar  701  B75701      0.0013
     21  CBC       39.4740   38.5190   57.0800 C.ar  701  B75701     -0.0003
     22  CAV       39.7250   39.8790   56.9340 C.ar  701  B75701     -0.0042
     23  CAP       38.3470   37.9480   56.4980 C.ar  701  B75701     -0.0000
     24  CAJ       37.4710   38.7360   55.7590 C.ar  701  B75701     -0.0003
     25  CAN       37.7260   40.0940   55.6070 C.ar  701  B75701     -0.0042
     26  CBA       38.8500   40.6670   56.1950 C.ar  701  B75701     -0.0188
     27  CAY       39.1300   42.1590   56.0080 C.3   701  B75701      0.0709
     28  CBH       38.4900   42.9900   57.1240 C.3   701  B75701      0.2199
     29  PBI       39.2180   44.7020   57.0560 P.3   701  B75701      0.1514
     30  OAF       38.6790   45.3450   55.6830 O.2   701  B75701     -0.4572
     31  OAG       38.5550   45.4810   58.2990 O.3   701  B75701     -0.3553
     32  OAA       40.6970   44.6440   57.0990 O.3   701  B75701     -0.3553
     33  PBJ       36.6340   43.1480   56.9550 P.3   701  B75701      0.1514
     34  OAH       36.3010   43.5050   55.4220 O.2   701  B75701     -0.4572
     35  OAI       36.0310   41.6770   57.2460 O.3   701  B75701     -0.3553
     36  OAB       36.0780   44.1800   57.8610 O.3   701  B75701     -0.3553
     37  OAE       38.8510   42.4190   58.3860 O.3   701  B75701     -0.2105
@<TRIPOS>BOND
     1     4     5   ar
     2     4     3   ar
     3     5     6   ar
     4     3     2   ar
     5     6     7   ar
     6     2     7   ar
     7     2     1   ar
     8     7     8   ar
     9     1    10   ar
    10     8     9   ar
    11    10     9   ar
    12    10    11    1
    13    12    11    2
    14    34    33    2
    15    25    24   ar
    16    25    26   ar
    17    30    29    2
    18    24    23   ar
    19    11    14    1
    20    11    13    2
    21    27    26    1
    22    27    28    1
    23    26    22   ar
    24    14    15    1
    25    23    21   ar
    26    22    21   ar
    27    33    28    1
    28    33    35    1
    29    33    36    1
    30    29    32    1
    31    29    28    1
    32    29    31    1
    33    21    20    1
    34    16    15   ar
    35    16    20   ar
    36    28    37    1
    37    15    17   ar
    38    20    19   ar
    39    17    18   ar
    40    19    18   ar
