@<TRIPOS>MOLECULE
2e9d_B76_A_1.pdb
 30 32 0 0 0
SMALL
GASTEIGER

@<TRIPOS>ATOM
      1  CAN       46.6430   40.9880   58.5920 C.ar  701  B76701      0.0000
      2  CAI       47.2110   42.2540   58.4730 C.ar  701  B76701      0.0000
      3  CAH       46.5570   43.2550   57.7600 C.ar  701  B76701      0.0000
      4  CAJ       45.3310   42.9930   57.1610 C.ar  701  B76701      0.0000
      5  CAO       44.7620   41.7280   57.2800 C.ar  701  B76701      0.0000
      6  CAX       45.4130   40.7280   57.9960 C.ar  701  B76701      0.0000
      7  CAZ       44.7890   39.4870   58.1560 C.ar  701  B76701      0.0000
      8  CAT       43.4870   39.3400   57.6950 C.ar  701  B76701      0.0000
      9  CAQ       45.4030   38.4370   58.8300 C.ar  701  B76701      0.0000
     10  CAL       44.7040   37.2490   59.0400 C.ar  701  B76701      0.0000
     11  CAR       43.3960   37.1020   58.5870 C.ar  701  B76701      0.0000
     12  CBA       42.7810   38.1570   57.9160 C.ar  701  B76701      0.0001
     13  CAY       41.4410   38.1280   57.5470 C.ar  701  B76701      0.0030
     14  CAS       40.8890   39.2860   57.0030 C.ar  701  B76701      0.0369
     15  CAP       40.6340   37.0140   57.7670 C.ar  701  B76701      0.0002
     16  CAK       39.2820   37.0810   57.4460 C.ar  701  B76701      0.0031
     17  CAM       38.7310   38.2410   56.9070 C.ar  701  B76701      0.0369
     18  CAW       39.5390   39.3520   56.6800 C.ar  701  B76701      0.1387
     19  OAV       39.0640   40.4580   56.0420 O.3   701  B76701     -0.4718
     20  CAU       38.7480   41.5510   56.9200 C.3   701  B76701      0.2496
     21  CBB       38.9160   42.8190   56.0950 C.3   701  B76701      0.2553
     22  PBC       38.1380   44.3120   56.9060 P.3   701  B76701      0.1549
     23  OAD       38.4030   45.5780   55.9460 O.2   701  B76701     -0.4571
     24  OAE       36.5480   44.0620   56.8450 O.3   701  B76701     -0.3552
     25  OAA       38.6350   44.5560   58.2790 O.3   701  B76701     -0.3552
     26  PBD       40.7330   43.1280   55.7960 P.3   701  B76701      0.1549
     27  OAF       40.8870   44.7090   55.5270 O.3   701  B76701     -0.3552
     28  OAG       41.4880   42.8380   57.1890 O.3   701  B76701     -0.3552
     29  OAB       41.2820   42.3090   54.6910 O.2   701  B76701     -0.4571
     30  OAC       38.2560   42.6050   54.8450 O.3   701  B76701     -0.2069
@<TRIPOS>BOND
     1    29    26    2
     2    30    21    1
     3    27    26    1
     4    26    21    1
     5    26    28    1
     6    23    22    2
     7    19    18    1
     8    19    20    1
     9    21    22    1
    10    21    20    1
    11    18    17   ar
    12    18    14   ar
    13    24    22    1
    14    22    25    1
    15    17    16   ar
    16    14    13   ar
    17     4     5   ar
    18     4     3   ar
    19     5     6   ar
    20    16    15   ar
    21    13    15   ar
    22    13    12    1
    23     8    12   ar
    24     8     7   ar
    25     3     2   ar
    26    12    11   ar
    27     6     7    1
    28     6     1   ar
    29     7     9   ar
    30     2     1   ar
    31    11    10   ar
    32     9    10   ar
