@<TRIPOS>MOLECULE
2e9e_HEM_A_1.pdb
 43 50 0 0 0
SMALL
GASTEIGER

@<TRIPOS>ATOM
      1  CHA       -2.9760   -1.8800   -5.9840 C.2   801  HEM801      0.0000
      2  CHB       -0.0700   -5.8000   -6.1430 C.2   801  HEM801      0.0000
      3  CHC        3.1650   -3.3900   -3.4280 C.2   801  HEM801      0.0000
      4  CHD        0.3840    0.5730   -3.3600 C.2   801  HEM801      0.0000
      5  C1A       -2.4940   -3.1390   -6.2930 C.ar  801  HEM801      0.0000
      6  C2A       -3.1630   -4.1560   -7.0970 C.ar  801  HEM801      0.0000
      7  C3A       -2.3640   -5.2460   -7.1410 C.ar  801  HEM801      0.0000
      8  C4A       -1.1590   -4.9670   -6.3690 C.ar  801  HEM801      0.0000
      9  CMA       -2.6680   -6.5530   -7.8950 C.3   801  HEM801      0.0000
     10  CAA       -4.5590   -3.9910   -7.7770 C.3   801  HEM801      0.0000
     11  CBA       -4.5110   -2.8970   -8.8470 C.3   801  HEM801      0.0000
     12  CGA       -5.8510   -2.6900   -9.4910 C.2   801  HEM801      0.0000
     13  O1A       -6.5510   -3.7100   -9.7590 O.co2 801  HEM801      0.0000
     14  O2A       -6.1990   -1.4970   -9.7330 O.co2 801  HEM801      0.0000
     15  C1B        1.0550   -5.5060   -5.3860 C.2   801  HEM801      0.0000
     16  C2B        2.1590   -6.3940   -5.0710 C.2   801  HEM801      0.0000
     17  C3B        3.0480   -5.7130   -4.3200 C.2   801  HEM801      0.0000
     18  C4B        2.5270   -4.3800   -4.1370 C.2   801  HEM801      0.0000
     19  CMB        2.2810   -7.8580   -5.5520 C.3   801  HEM801      0.0000
     20  CAB        4.4120   -6.1650   -3.7050 C.2   801  HEM801      0.0000
     21  CBB        5.0170   -7.3270   -3.9640 C.2   801  HEM801      0.0000
     22  C1C        2.7310   -2.1170   -3.1670 C.ar  801  HEM801      0.0000
     23  C2C        3.4410   -1.1100   -2.3970 C.ar  801  HEM801      0.0000
     24  C3C        2.6640    0.0000   -2.3760 C.ar  801  HEM801      0.0000
     25  C4C        1.4500   -0.2880   -3.1320 C.ar  801  HEM801      0.0000
     26  CMC        4.8370   -1.3260   -1.7410 C.3   801  HEM801      0.0000
     27  CAC        2.9370    1.3700   -1.6970 C.2   801  HEM801      0.0000
     28  CBC        4.0940    1.6810   -1.1090 C.2   801  HEM801      0.0000
     29  C1D       -0.8160    0.2830   -3.9820 C.2   801  HEM801      0.0000
     30  C2D       -2.0030    1.1230   -4.0120 C.2   801  HEM801      0.0000
     31  C3D       -3.0320    0.3440   -4.8280 C.2   801  HEM801      0.0000
     32  C4D       -2.3850   -0.8930   -5.2170 C.2   801  HEM801      0.0000
     33  CMD       -2.2590    2.5190   -3.4110 C.3   801  HEM801      0.0000
     34  CAD       -4.4700    0.8020   -5.1460 C.3   801  HEM801      0.0000
     35  CBD       -5.2790    0.5080   -3.8930 C.3   801  HEM801      0.0000
     36  CGD       -6.6680    1.0000   -4.1050 C.2   801  HEM801      0.0000
     37  O1D       -6.9500    2.1760   -3.7820 O.co2 801  HEM801      0.0000
     38  O2D       -7.4900    0.2050   -4.6020 O.co2 801  HEM801      0.0000
     39  NA        -1.2870   -3.6760   -5.8760 N.ar  801  HEM801      0.0000
     40  NB         1.3300   -4.2890   -4.8000 N.2   801  HEM801      0.0000
     41  NC         1.5380   -1.5850   -3.5970 N.ar  801  HEM801      0.0000
     42  ND        -1.0930   -0.8840   -4.6940 N.2   801  HEM801      0.0000
     43 FE         -0.0130   -2.5470   -4.6770 Fe    801  HEM801      0.0000
@<TRIPOS>BOND
     1    13    12   ar
     2    14    12   ar
     3    12    11    1
     4    11    10    1
     5     9     7    1
     6    10     6    1
     7     7     6   ar
     8     7     8   ar
     9     6     5   ar
    10     8     2    2
    11     8    39   ar
    12     5     1    2
    13     5    39   ar
    14     2    15    1
    15     1    32    1
    16    39    43    1
    17    19    16    1
    18    15    16    1
    19    15    40    2
    20    32    31    1
    21    32    42    2
    22    34    31    1
    23    34    35    1
    24    16    17    2
    25    31    30    2
    26    40    43    1
    27    40    18    1
    28    42    43    1
    29    42    29    1
    30    43    41    1
    31    38    36   ar
    32    17    18    1
    33    17    20    1
    34    18     3    2
    35    36    35    1
    36    36    37   ar
    37    30    29    1
    38    30    33    1
    39    29     4    2
    40    21    20    2
    41    41    22   ar
    42    41    25   ar
    43     3    22    1
    44     4    25    1
    45    22    23   ar
    46    25    24   ar
    47    23    24   ar
    48    23    26    1
    49    24    27    1
    50    27    28    2
