@<TRIPOS>MOLECULE
2e9f_ARG_B_1.pdb
 12 11 0 0 0
SMALL
GASTEIGER

@<TRIPOS>ATOM
      1  N        -11.8460   66.9330   47.8620 N.3   492  ARG492     -0.1208
      2  CA       -11.1450   65.7370   48.4060 C.3   492  ARG492      0.1944
      3  C        -11.0800   64.5990   47.4020 C.2   492  ARG492      0.3819
      4  O        -11.6030   64.7860   46.2920 O.co2 492  ARG492     -0.2441
      5  CB       -11.8260   65.1960   49.6560 C.3   492  ARG492      0.0343
      6  CG       -12.0050   66.1750   50.7780 C.3   492  ARG492      0.0490
      7  CD       -12.6270   65.4900   51.9720 C.3   492  ARG492      0.2205
      8  NE       -11.6730   65.5430   53.0860 N.pl3 492  ARG492     -0.0865
      9  CZ       -11.8290   65.0410   54.3010 C.cat 492  ARG492      0.5346
     10  NH1      -12.9270   64.3940   54.6450 N.pl3 492  ARG492      0.1354
     11  NH2      -10.8570   65.1930   55.1830 N.pl3 492  ARG492      0.1354
     12  OXT      -10.5180   63.5220   47.7270 O.co2 492  ARG492     -0.2441
@<TRIPOS>BOND
     1     4     3   ar
     2     3    12   ar
     3     3     2    1
     4     1     2    1
     5     2     5    1
     6     5     6    1
     7     6     7    1
     8     7     8    1
     9     8     9    2
    10     9    10    1
    11     9    11    1
