@<TRIPOS>MOLECULE
2e9l_PLM_A_1.pdb
 18 17 0 0 0
SMALL
GASTEIGER

@<TRIPOS>ATOM
      1  C1         6.1220   38.4000   -5.7250 C.2   1001  PLM1001     0.3649
      2  O1         5.5810   39.2760   -5.0030 O.co2 1001  PLM1001    -0.2457
      3  O2         6.5570   38.7470   -6.8450 O.co2 1001  PLM1001    -0.2457
      4  C2         6.2690   36.9610   -5.2560 C.3   1001  PLM1001     0.1141
      5  C3         5.0690   36.4730   -4.3860 C.3   1001  PLM1001     0.0118
      6  C4         5.5410   36.2620   -2.9080 C.3   1001  PLM1001     0.0006
      7  C5         4.5990   35.3780   -2.0750 C.3   1001  PLM1001     0.0000
      8  C6         4.9960   35.3440   -0.5810 C.3   1001  PLM1001     0.0000
      9  C7         3.8950   34.7520    0.3140 C.3   1001  PLM1001     0.0000
     10  C8         4.1460   34.9810    1.8120 C.3   1001  PLM1001     0.0000
     11  C9         2.9080   35.5400    2.5250 C.3   1001  PLM1001     0.0000
     12  CA         3.2790   36.3850    3.7450 C.3   1001  PLM1001     0.0000
     13  CB         3.6600   35.4920    4.9240 C.3   1001  PLM1001     0.0000
     14  CC         3.8530   36.2600    6.2310 C.3   1001  PLM1001     0.0000
     15  CD         4.2350   35.2890    7.3510 C.3   1001  PLM1001     0.0000
     16  CE         4.6100   36.0590    8.6180 C.3   1001  PLM1001     0.0000
     17  CF         6.0590   35.7840    9.0020 C.3   1001  PLM1001     0.0000
     18  CG         6.7720   37.0640    9.4220 C.3   1001  PLM1001     0.0000
@<TRIPOS>BOND
     1     3     1   ar
     2     1     4    1
     3     1     2   ar
     4     4     5    1
     5     5     6    1
     6     6     7    1
     7     7     8    1
     8     8     9    1
     9     9    10    1
    10    10    11    1
    11    11    12    1
    12    12    13    1
    13    13    14    1
    14    14    15    1
    15    15    16    1
    16    16    17    1
    17    17    18    1
