@<TRIPOS>MOLECULE
2e9l_BGC_A_1.pdb
 12 12 0 0 0
SMALL
GASTEIGER

@<TRIPOS>ATOM
      1  C2         4.6560   42.9560   -5.0040 C.3   1401  BGC1401     0.2434
      2  C3         5.0820   43.4430   -6.3920 C.3   1401  BGC1401     0.2199
      3  C4         5.1320   42.2640   -7.3560 C.3   1401  BGC1401     0.2144
      4  C5         3.6980   41.7480   -7.4580 C.3   1401  BGC1401     0.1836
      5  C6         3.5320   40.6340   -8.4860 C.3   1401  BGC1401     0.2142
      6  C1         3.4950   41.9340   -5.0050 C.3   1401  BGC1401     0.3024
      7  O1         3.7400   40.9480   -4.0210 O.3   1401  BGC1401    -0.1869
      8  O2         4.3150   44.0910   -4.2260 O.3   1401  BGC1401    -0.2148
      9  O3         6.3290   44.1050   -6.3150 O.3   1401  BGC1401    -0.2174
     10  O4         5.6240   42.6440   -8.6200 O.3   1401  BGC1401    -0.2176
     11  O5         3.2850   41.2130   -6.2130 O.3   1401  BGC1401    -0.3236
     12  O6         4.2890   39.5150   -8.0830 O.3   1401  BGC1401    -0.2176
@<TRIPOS>BOND
     1    10     3    1
     2     5    12    1
     3     5     4    1
     4     4     3    1
     5     4    11    1
     6     3     2    1
     7     2     9    1
     8     2     1    1
     9    11     6    1
    10     6     1    1
    11     6     7    1
    12     1     8    1
