@<TRIPOS>MOLECULE
2e9l_OLA_A_1.pdb
 20 19 0 0 0
SMALL
GASTEIGER

@<TRIPOS>ATOM
      1  C1         7.5660   30.9060   -2.0300 C.2   2001  OLA2001     0.3649
      2  O1         8.1980   29.8270   -1.9730 O.co2 2001  OLA2001    -0.2457
      3  O2         7.7770   31.6620   -3.0050 O.co2 2001  OLA2001    -0.2457
      4  C2         6.5710   31.3190   -0.9620 C.3   2001  OLA2001     0.1141
      5  C3         6.4800   30.3570    0.2450 C.3   2001  OLA2001     0.0118
      6  C4         5.5000   31.0140    1.2640 C.3   2001  OLA2001     0.0006
      7  C5         5.7130   30.6580    2.7410 C.3   2001  OLA2001     0.0000
      8  C6         4.8670   31.6040    3.6060 C.3   2001  OLA2001     0.0000
      9  C7         4.6000   31.1200    5.0450 C.3   2001  OLA2001     0.0000
     10  C8         3.4230   31.8840    5.6670 C.3   2001  OLA2001     0.0000
     11  C9         2.4600   30.9320    6.3500 C.3   2001  OLA2001     0.0000
     12  C10        0.9950   31.1830    6.4170 C.3   2001  OLA2001     0.0000
     13  C11        0.1860   31.6380    5.2210 C.3   2001  OLA2001     0.0000
     14  C12        0.0400   30.5240    4.1880 C.3   2001  OLA2001     0.0000
     15  C13       -0.4480   31.0950    2.8600 C.3   2001  OLA2001     0.0000
     16  C14        0.7000   31.2780    1.8740 C.3   2001  OLA2001     0.0000
     17  C15        0.1760   31.1090    0.4560 C.3   2001  OLA2001     0.0000
     18  C16        1.0760   31.8010   -0.5600 C.3   2001  OLA2001     0.0000
     19  C17        0.5360   31.5820   -1.9660 C.3   2001  OLA2001     0.0000
     20  C18        1.0910   32.6260   -2.9270 C.3   2001  OLA2001     0.0000
@<TRIPOS>BOND
     1     3     1   ar
     2    20    19    1
     3     1     2   ar
     4     1     4    1
     5    19    18    1
     6     4     5    1
     7    18    17    1
     8     5     6    1
     9    17    16    1
    10     6     7    1
    11    16    15    1
    12     7     8    1
    13    15    14    1
    14     8     9    1
    15    14    13    1
    16     9    10    1
    17    13    12    1
    18    10    11    1
    19    11    12    1
