@<TRIPOS>MOLECULE
2e9m_PLM_A_1.pdb
 18 17 0 0 0
SMALL
GASTEIGER

@<TRIPOS>ATOM
      1  C1         5.7510   35.2390   -5.0430 C.2   1001  PLM1001     0.3649
      2  O1         6.8380   35.8130   -5.2800 O.co2 1001  PLM1001    -0.2457
      3  O2         5.6730   34.0090   -5.2420 O.co2 1001  PLM1001    -0.2457
      4  C2         4.5510   36.0070   -4.5270 C.3   1001  PLM1001     0.1141
      5  C3         4.8040   36.6250   -3.1510 C.3   1001  PLM1001     0.0118
      6  C4         5.3370   35.6230   -2.1260 C.3   1001  PLM1001     0.0006
      7  C5         4.2290   35.0280   -1.2620 C.3   1001  PLM1001     0.0000
      8  C6         4.7360   34.7170    0.1480 C.3   1001  PLM1001     0.0000
      9  C7         3.6310   34.1710    1.0510 C.3   1001  PLM1001     0.0000
     10  C8         2.7230   35.2540    1.6410 C.3   1001  PLM1001     0.0000
     11  C9         3.3500   36.0120    2.8040 C.3   1001  PLM1001     0.0000
     12  CA         3.5420   35.0810    3.9950 C.3   1001  PLM1001     0.0000
     13  CB         3.8180   35.8700    5.2630 C.3   1001  PLM1001     0.0000
     14  CC         4.0750   34.9350    6.4320 C.3   1001  PLM1001     0.0000
     15  CD         4.0040   35.7330    7.7190 C.3   1001  PLM1001     0.0000
     16  CE         5.1970   35.4300    8.6000 C.3   1001  PLM1001     0.0000
     17  CF         6.0700   36.6660    8.7360 C.3   1001  PLM1001     0.0000
     18  CG         7.5250   36.2360    8.7050 C.3   1001  PLM1001     0.0000
@<TRIPOS>BOND
     1     2     1   ar
     2     3     1   ar
     3     1     4    1
     4     4     5    1
     5     5     6    1
     6     6     7    1
     7     7     8    1
     8     8     9    1
     9     9    10    1
    10    10    11    1
    11    11    12    1
    12    12    13    1
    13    13    14    1
    14    14    15    1
    15    15    16    1
    16    16    17    1
    17    18    17    1
