@<TRIPOS>MOLECULE
2e9m_GAL_A_1.pdb
 12 12 0 0 0
SMALL
GASTEIGER

@<TRIPOS>ATOM
      1  C1         4.3440   43.4430   -5.4900 C.3   1402  GAL1402     0.3024
      2  C2         5.3960   43.4360   -6.5830 C.3   1402  GAL1402     0.2434
      3  C3         4.8940   42.5390   -7.7160 C.3   1402  GAL1402     0.2199
      4  C4         4.5260   41.1400   -7.2040 C.3   1402  GAL1402     0.2144
      5  C5         3.5120   41.3080   -6.0690 C.3   1402  GAL1402     0.1836
      6  C6         3.0460   39.9960   -5.4460 C.3   1402  GAL1402     0.2142
      7  O1         4.7400   44.2440   -4.4000 O.3   1402  GAL1402    -0.1869
      8  O2         5.6080   44.7620   -7.0040 O.3   1402  GAL1402    -0.2148
      9  O3         5.8800   42.4520   -8.7010 O.3   1402  GAL1402    -0.2174
     10  O4         5.6670   40.4280   -6.7390 O.3   1402  GAL1402    -0.2176
     11  O5         4.1060   42.1180   -5.0740 O.3   1402  GAL1402    -0.3236
     12  O6         3.7500   39.7330   -4.2500 O.3   1402  GAL1402    -0.2176
@<TRIPOS>BOND
     1     9     3    1
     2     3     4    1
     3     3     2    1
     4     4    10    1
     5     4     5    1
     6     8     2    1
     7     2     1    1
     8     5     6    1
     9     5    11    1
    10     1    11    1
    11     1     7    1
    12     6    12    1
