@<TRIPOS>MOLECULE
2e9m_OLA_A_1.pdb
 20 19 0 0 0
SMALL
GASTEIGER

@<TRIPOS>ATOM
      1  C1         8.0550   26.8640   -0.0440 C.2   2001  OLA2001     0.3649
      2  O1         9.2170   27.1340   -0.4490 O.co2 2001  OLA2001    -0.2457
      3  O2         7.8590   25.7580    0.5130 O.co2 2001  OLA2001    -0.2457
      4  C2         6.9110   27.8460   -0.2280 C.3   2001  OLA2001     0.1141
      5  C3         6.6720   28.6450    1.0530 C.3   2001  OLA2001     0.0118
      6  C4         6.2690   30.0980    0.7880 C.3   2001  OLA2001     0.0006
      7  C5         5.2560   30.6340    1.8040 C.3   2001  OLA2001     0.0000
      8  C6         5.7230   30.5390    3.2620 C.3   2001  OLA2001     0.0000
      9  C7         4.7770   31.2490    4.2370 C.3   2001  OLA2001     0.0000
     10  C8         3.4500   30.5090    4.3590 C.3   2001  OLA2001     0.0000
     11  C9         2.5800   31.0480    5.4710 C.3   2001  OLA2001     0.0000
     12  C10        1.1570   30.6610    5.5110 C.3   2001  OLA2001     0.0000
     13  C11        0.1560   31.3040    4.5740 C.3   2001  OLA2001     0.0000
     14  C12       -0.2540   30.3370    3.4680 C.3   2001  OLA2001     0.0000
     15  C13       -0.5440   31.1060    2.1810 C.3   2001  OLA2001     0.0000
     16  C14        0.6550   31.0690    1.2390 C.3   2001  OLA2001     0.0000
     17  C15        0.2230   30.9390   -0.2120 C.3   2001  OLA2001     0.0000
     18  C16        1.1640   31.7370   -1.1030 C.3   2001  OLA2001     0.0000
     19  C17        0.7860   31.5590   -2.5690 C.3   2001  OLA2001     0.0000
     20  C18        1.4570   32.6240   -3.4340 C.3   2001  OLA2001     0.0000
@<TRIPOS>BOND
     1    20    19    1
     2    19    18    1
     3    18    17    1
     4     2     1   ar
     5     4     1    1
     6     4     5    1
     7    17    16    1
     8     1     3   ar
     9     6     5    1
    10     6     7    1
    11    16    15    1
    12     7     8    1
    13    15    14    1
    14     8     9    1
    15    14    13    1
    16     9    10    1
    17    10    11    1
    18    13    12    1
    19    11    12    1
