@<TRIPOS>MOLECULE
2e9n_76A_A_1.pdb
 35 40 0 0 0
SMALL
GASTEIGER

@<TRIPOS>ATOM
      1  O1       -13.4960    9.4900  -13.8670 O.3   1001  76A1001    -0.2866
      2  C2        -9.6580    9.3950  -16.0270 C.ar  1001  76A1001     0.0002
      3  C3       -10.3360    8.1260  -15.6120 C.ar  1001  76A1001     0.0033
      4  C4       -11.6250    8.1580  -14.8870 C.ar  1001  76A1001     0.0420
      5  C5       -12.2860    9.4560  -14.5480 C.ar  1001  76A1001     0.1957
      6  C6       -11.6410   10.7100  -14.9420 C.ar  1001  76A1001     0.0420
      7  C7       -10.3660   10.6880  -15.6600 C.ar  1001  76A1001     0.0033
      8  C8        -5.7140    9.6140  -18.3310 C.ar  1001  76A1001     0.0195
      9  C9        -6.1180    8.3060  -17.6850 C.ar  1001  76A1001     0.0016
     10  C10       -7.3940    8.2220  -16.9350 C.ar  1001  76A1001     0.0000
     11  C11       -8.2980    9.4160  -16.8020 C.ar  1001  76A1001     0.0000
     12  C12       -7.8550   10.6720  -17.4560 C.ar  1001  76A1001     0.0000
     13  C13       -6.6180   10.7760  -18.1890 C.ar  1001  76A1001     0.0016
     14  C14       -4.4200    9.8530  -19.1240 C.2   1001  76A1001     0.1043
     15  N15       -4.2420   10.5910  -20.2580 N.2   1001  76A1001    -0.1480
     16  N16       -2.9630   10.6280  -20.7230 N.2   1001  76A1001    -0.1480
     17  C17       -2.2310    9.8610  -19.8500 C.2   1001  76A1001     0.1043
     18  C18       -3.1120    9.3620  -18.8240 C.2   1001  76A1001     0.0388
     19  C19       -0.9270    9.4350  -19.6310 C.ar  1001  76A1001     0.0195
     20  C20       -0.9940    8.6030  -18.3890 C.ar  1001  76A1001     0.0017
     21  C21       -2.3500    8.5850  -17.9410 C.2   1001  76A1001     0.0032
     22  C22        0.3570    9.6330  -20.3260 C.ar  1001  76A1001     0.0017
     23  C23        1.6120    8.9950  -19.7760 C.ar  1001  76A1001     0.0046
     24  C24        1.5530    8.1490  -18.5110 C.ar  1001  76A1001     0.0550
     25  C25        0.2170    7.9750  -17.8480 C.ar  1001  76A1001     0.0046
     26  C26        2.7020    7.5290  -17.9170 C.2   1001  76A1001     0.2647
     27  N27        3.5980    6.8640  -18.7560 N.am  1001  76A1001    -0.2034
     28  O28        2.9080    7.5990  -16.6860 O.2   1001  76A1001    -0.2684
     29  C29        4.8400    6.2040  -18.2460 C.3   1001  76A1001     0.0958
     30  C30        4.9170    4.6690  -18.5860 C.3   1001  76A1001     0.0243
     31  C31        6.2470    3.9840  -18.0630 C.3   1001  76A1001     0.0346
     32  C32        7.6020    4.7180  -18.4660 C.3   1001  76A1001     0.1521
     33  C33        7.4890    6.3300  -18.2950 C.3   1001  76A1001     0.0346
     34  C34        6.1300    6.9430  -18.8160 C.3   1001  76A1001     0.0243
     35  O35        8.6830    4.2490  -17.5860 O.3   1001  76A1001    -0.2231
@<TRIPOS>BOND
     1    16    15    1
     2    16    17    2
     3    22    23   ar
     4    22    19   ar
     5    15    14    2
     6    17    19    1
     7    17    18    1
     8    23    24   ar
     9    19    20   ar
    10    14    18    1
    11    14     8    1
    12    18    21    2
    13    34    33    1
    14    34    29    1
    15    27    29    1
    16    27    26   am
    17    30    29    1
    18    30    31    1
    19    24    26    1
    20    24    25   ar
    21    32    33    1
    22    32    31    1
    23    32    35    1
    24    20    21    1
    25    20    25   ar
    26     8    13   ar
    27     8     9   ar
    28    13    12   ar
    29    26    28    2
    30     9    10   ar
    31    12    11   ar
    32    10    11   ar
    33    11     2    1
    34     2     7   ar
    35     2     3   ar
    36     7     6   ar
    37     3     4   ar
    38     6     5   ar
    39     4     5   ar
    40     5     1    1
