@<TRIPOS>MOLECULE
2e9o_A58_A_1.pdb
 30 34 0 0 0
SMALL
GASTEIGER

@<TRIPOS>ATOM
      1  C1         3.0080    2.9230  -22.7750 C.3   1001  A581001     0.0000
      2  C2         3.1670    5.9420  -20.4040 C.3   1001  A581001     0.0732
      3  C3         3.0850    4.4450  -19.9610 C.3   1001  A581001     0.0174
      4  C4         4.1400    3.5350  -20.6800 C.3   1001  A581001     0.0014
      5  C5         4.1630    3.6650  -22.2410 C.3   1001  A581001     0.0001
      6  C6         4.1830    5.2180  -22.6670 C.3   1001  A581001     0.0014
      7  C7         3.0790    6.0660  -21.9610 C.3   1001  A581001     0.0174
      8  N8         2.0320    6.7120  -19.7640 N.3   1001  A581001    -0.2147
      9  C9         2.2110    8.1770  -19.6710 C.3   1001  A581001     0.1149
     10  C10        0.9070    8.9250  -19.8020 C.ar  1001  A581001    -0.0048
     11  C11       -0.2510    8.4520  -19.0310 C.ar  1001  A581001    -0.0028
     12  C12       -1.5190    9.1080  -19.1170 C.ar  1001  A581001     0.0013
     13  C13       -1.6660   10.2810  -19.9980 C.ar  1001  A581001     0.0194
     14  C14       -0.5430   10.7690  -20.7650 C.ar  1001  A581001     0.0013
     15  C15        0.7520   10.0950  -20.6750 C.ar  1001  A581001    -0.0028
     16  C16       -2.7960    8.8560  -18.4800 C.2   1001  A581001     0.0032
     17  C17       -3.7050    9.8410  -18.9530 C.2   1001  A581001     0.0388
     18  C18       -2.9930   10.6720  -19.8550 C.2   1001  A581001     0.1043
     19  C19       -5.0410   10.3910  -18.9290 C.2   1001  A581001     0.1043
     20  N20       -5.0860   11.4740  -19.7740 N.2   1001  A581001    -0.1480
     21  N21       -3.8370   11.6120  -20.3130 N.2   1001  A581001    -0.1480
     22  C22       -6.2170    9.8790  -18.1000 C.ar  1001  A581001     0.0195
     23  C23       -7.4020   10.7280  -17.9740 C.ar  1001  A581001     0.0018
     24  C24       -8.5540   10.3070  -17.1840 C.ar  1001  A581001     0.0066
     25  C25       -8.5440    9.0030  -16.4920 C.ar  1001  A581001     0.0798
     26  C26       -7.3590    8.1460  -16.6170 C.ar  1001  A581001     0.0066
     27  C27       -6.2230    8.5820  -17.4050 C.ar  1001  A581001     0.0018
     28  C28       -9.6960    8.5740  -15.6940 C.2   1001  A581001     0.3878
     29  O29      -10.7960    9.3360  -15.7400 O.co2 1001  A581001    -0.2406
     30  O30       -9.6480    7.5760  -15.0240 O.co2 1001  A581001    -0.2406
@<TRIPOS>BOND
     1     1     5    1
     2     6     5    1
     3     6     7    1
     4     5     4    1
     5     7     2    1
     6    14    15   ar
     7    14    13   ar
     8     4     3    1
     9    15    10   ar
    10     2     3    1
    11     2     8    1
    12    21    18    2
    13    21    20    1
    14    13    18    1
    15    13    12   ar
    16    18    17    1
    17    10     9    1
    18    10    11   ar
    19    20    19    2
    20     8     9    1
    21    12    11   ar
    22    12    16    1
    23    17    19    1
    24    17    16    2
    25    19    22    1
    26    22    23   ar
    27    22    27   ar
    28    23    24   ar
    29    27    26   ar
    30    24    25   ar
    31    26    25   ar
    32    25    28    1
    33    29    28   ar
    34    28    30   ar
