@<TRIPOS>MOLECULE
2e9p_77A_A_1.pdb
 26 27 0 0 0
SMALL
GASTEIGER

@<TRIPOS>ATOM
      1  N1        -3.3000    9.7560  -19.3710 N.am  1001  77A1001    -0.1575
      2  C2        -1.9860    9.3470  -19.5080 C.ar  1001  77A1001     0.1096
      3  C3        -1.0070   10.1470  -20.2140 C.ar  1001  77A1001     0.0311
      4  C4         0.3390    9.6770  -20.3270 C.ar  1001  77A1001     0.0592
      5  C5         0.7500    8.4270  -19.7600 C.ar  1001  77A1001     0.0146
      6  C6        -0.2170    7.6310  -19.0580 C.ar  1001  77A1001     0.0391
      7  C7        -1.6070    8.0820  -18.9220 C.ar  1001  77A1001     0.1540
      8  O8        -2.6530    7.3920  -18.2520 O.3   1001  77A1001    -0.4701
      9  C9        -2.8040    5.9860  -18.4530 C.3   1001  77A1001     0.2525
     10 CL10        1.4800   10.6600  -21.1810 Cl    1001  77A1001    -0.0822
     11  C11       -4.1610   10.6840  -20.0090 C.2   1001  77A1001     0.3498
     12  O12       -3.7820   11.3840  -20.9520 O.2   1001  77A1001    -0.2484
     13  N13       -5.4600   10.8180  -19.5750 N.am  1001  77A1001    -0.1323
     14  C14       -6.1870   10.1910  -18.5640 C.2   1001  77A1001     0.2120
     15  N15       -5.8760    8.8400  -18.2400 N.2   1001  77A1001    -0.3517
     16  C16       -6.5990    8.1630  -17.2180 C.2   1001  77A1001     0.2979
     17  C17       -7.6630    8.8830  -16.5110 C.2   1001  77A1001     0.1655
     18  N18       -7.9650   10.2180  -16.8350 N.2   1001  77A1001    -0.2540
     19  C19       -7.2470   10.8800  -17.8480 C.3   1001  77A1001     0.2020
     20  O20       -6.2880    6.8130  -16.9130 O.2   1001  77A1001    -0.4530
     21  C21       -6.3830    6.3060  -15.5820 C.3   1001  77A1001     0.1846
     22  C22       -5.0120    5.6460  -15.2720 C.3   1001  77A1001     0.1163
     23  N23       -4.2260    6.1630  -14.1190 N.3   1001  77A1001    -0.2673
     24  C24       -4.7050    5.6130  -12.8470 C.3   1001  77A1001     0.0898
     25  C25       -7.5300    5.2820  -15.5240 C.3   1001  77A1001     0.0488
     26  C26       -4.2080    7.6380  -14.0420 C.3   1001  77A1001     0.0898
@<TRIPOS>BOND
     1    10     4    1
     2    12    11    2
     3     4     3   ar
     4     4     5   ar
     5     3     2   ar
     6    11    13   am
     7    11     1   am
     8     5     6   ar
     9    13    14    1
    10     2     1    1
    11     2     7   ar
    12     6     7   ar
    13     7     8    1
    14    14    15    2
    15    14    19    1
    16     9     8    1
    17    15    16    2
    18    19    18    1
    19    16    20    1
    20    16    17    1
    21    20    21    1
    22    18    17    2
    23    21    25    1
    24    21    22    1
    25    22    23    1
    26    23    26    1
    27    23    24    1
