@<TRIPOS>MOLECULE
2e9r_RTP_X_1.pdb
 29 30 0 0 0
SMALL
GASTEIGER

@<TRIPOS>ATOM
      1  PG        19.9750   23.9740   11.9340 P.3   3832  RTP3832     0.5373
      2  O1G       19.4680   25.4120   12.0410 O.3   3832  RTP3832    -0.1143
      3  O2G       21.4850   23.9740   11.5440 O.3   3832  RTP3832    -0.1143
      4  O3G       19.0250   23.0560   11.1570 O.2   3832  RTP3832    -0.2221
      5  O3B       20.0990   23.2490   13.4450 O.3   3832  RTP3832    -0.2258
      6  PB        19.1270   23.2450   14.7940 P.3   3832  RTP3832     0.2277
      7  O1B       18.0660   22.1130   14.9490 O.2   3832  RTP3832    -0.5168
      8  O2B       20.1390   23.2790   15.9700 O.3   3832  RTP3832    -0.4368
      9  O3A       18.3140   24.6900   14.6270 O.3   3832  RTP3832    -0.2700
     10  PA        18.2580   25.7950   15.8710 P.3   3832  RTP3832     0.2189
     11  O1A       16.9090   26.5770   15.6160 O.2   3832  RTP3832    -0.5170
     12  O2A       19.6760   26.4230   15.9960 O.3   3832  RTP3832    -0.4371
     13  O5'       18.1410   24.9240   17.2300 O.3   3832  RTP3832    -0.3112
     14  C5'       18.4520   25.6760   18.4410 C.3   3832  RTP3832     0.1813
     15  C4'       18.5900   24.6370   19.5660 C.3   3832  RTP3832     0.1800
     16  O4'       18.5910   25.1300   20.9350 O.3   3832  RTP3832    -0.3317
     17  C1'       17.6240   24.3820   21.6690 C.3   3832  RTP3832     0.2437
     18  N1        16.4470   25.3010   21.7610 N.pl3 3832  RTP3832    -0.1720
     19  N2        15.1700   24.8390   22.1930 N.2   3832  RTP3832    -0.1198
     20  N3        12.5950   27.4760   22.2390 N.am  3832  RTP3832    -0.0743
     21  C6        12.9880   26.1820   22.4550 C.2   3832  RTP3832     0.3485
     22  O3        12.2890   25.2610   22.9000 O.2   3832  RTP3832    -0.2552
     23  C3        14.4050   25.9750   22.1200 C.1   3832  RTP3832     0.1072
     24  N4        15.1350   27.0420   21.7000 N.2   3832  RTP3832    -0.1909
     25  C5        16.3990   26.6130   21.4630 C.3   3832  RTP3832     0.2500
     26  C2'       17.1300   23.2360   20.7940 C.3   3832  RTP3832     0.2323
     27  O2'       17.9390   22.0810   21.1890 O.3   3832  RTP3832    -0.2157
     28  C3'       17.5200   23.5610   19.3520 C.3   3832  RTP3832     0.2159
     29  O3'       17.9590   22.5590   18.3820 O.3   3832  RTP3832    -0.2175
@<TRIPOS>BOND
     1     4     1    2
     2     3     1    1
     3     1     2    1
     4     1     5    1
     5     5     6    1
     6     9     6    1
     7     9    10    1
     8     6     7    2
     9     6     8    1
    10    11    10    2
    11    10    12    1
    12    10    13    1
    13    13    14    1
    14    29    28    1
    15    14    15    1
    16    28    15    1
    17    28    26    1
    18    15    16    1
    19    26    27    1
    20    26    17    1
    21    16    17    1
    22    25    24    1
    23    25    18    1
    24    17    18    1
    25    24    23    2
    26    18    19    1
    27    23    19    2
    28    23    21    1
    29    20    21   am
    30    21    22    2
