@<TRIPOS>MOLECULE
2e9s_GDP_A_1.pdb
 28 30 0 0 0
SMALL
GASTEIGER

@<TRIPOS>ATOM
      1  PB        -0.4330   28.5710    4.5050 P.3   602  GDP602      0.5373
      2  O1B       -1.3570   29.1340    5.5290 O.3   602  GDP602     -0.1143
      3  O2B        0.4080   27.5180    5.1540 O.3   602  GDP602     -0.1143
      4  O3B       -1.1680   27.9760    3.3530 O.2   602  GDP602     -0.2221
      5  O3A        0.5860   29.7190    4.0390 O.3   602  GDP602     -0.2261
      6  PA         0.4170   30.7730    2.8420 P.3   602  GDP602      0.2231
      7  O1A       -0.9910   31.2550    2.7720 O.3   602  GDP602     -0.4370
      8  O2A        0.9060   30.1910    1.5510 O.2   602  GDP602     -0.5169
      9  O5'        1.4040   31.9470    3.2950 O.3   602  GDP602     -0.3111
     10  C5'        1.1540   32.6530    4.4950 C.3   602  GDP602      0.1813
     11  C4'        1.8440   34.0000    4.4030 C.3   602  GDP602      0.1799
     12  O4'        3.2550   33.8070    4.3830 O.3   602  GDP602     -0.3326
     13  C3'        1.5040   34.6940    3.0890 C.3   602  GDP602      0.2158
     14  O3'        1.5750   36.0900    3.3630 O.3   602  GDP602     -0.2175
     15  C2'        2.6530   34.3410    2.1630 C.3   602  GDP602      0.2310
     16  O2'        2.9000   35.3520    1.1880 O.3   602  GDP602     -0.2158
     17  C1'        3.8060   34.2650    3.1480 C.3   602  GDP602      0.2293
     18  N9         4.8490   33.3270    2.6880 N.pl3 602  GDP602     -0.2354
     19  C8         4.6680   32.0650    2.2540 C.3   602  GDP602      0.2246
     20  N7         5.8500   31.4930    1.9350 N.2   602  GDP602     -0.2322
     21  C5         6.8120   32.4120    2.1770 C.2   602  GDP602      0.2182
     22  C6         8.2860   32.4960    2.0620 C.1   602  GDP602      0.2372
     23  O6         8.9540   31.5270    1.6500 O.2   602  GDP602     -0.2069
     24  N1         8.8750   33.6430    2.4290 N.2   602  GDP602     -0.2485
     25  C2         8.1920   34.7040    2.8850 C.1   602  GDP602      0.2531
     26  N2         8.8560   35.8260    3.2280 N.pl3 602  GDP602     -0.0226
     27  N3         6.8540   34.7070    3.0080 N.2   602  GDP602     -0.3074
     28  C4         6.1320   33.6160    2.6780 C.2   602  GDP602      0.2300
@<TRIPOS>BOND
     1    16    15    1
     2     8     6    2
     3    23    22    2
     4    20    21    2
     5    20    19    1
     6    22    21    1
     7    22    24    2
     8    15    13    1
     9    15    17    1
    10    21    28    1
    11    19    18    1
    12    24    25    2
    13    28    18    1
    14    28    27    2
    15    18    17    1
    16     7     6    1
    17     6     9    1
    18     6     5    1
    19    25    27    2
    20    25    26    1
    21    13    14    1
    22    13    11    1
    23    17    12    1
    24     9    10    1
    25     4     1    2
    26     5     1    1
    27    12    11    1
    28    11    10    1
    29     1     3    1
    30     1     2    1
