@<TRIPOS>MOLECULE
2e9u_A25_A_1.pdb
 24 26 0 0 0
SMALL
GASTEIGER

@<TRIPOS>ATOM
      1  C1        -0.7220    8.0620  -18.4090 C.2   1001  A251001     0.0398
      2  C2        -2.0890    8.4990  -18.2990 C.2   1001  A251001     0.1651
      3  C3        -2.5220    9.6350  -19.0550 C.2   1001  A251001     0.1632
      4  C4        -1.5840   10.3100  -19.9000 C.3   1001  A251001     0.1011
      5  C5        -0.2530    9.8530  -19.9820 C.2   1001  A251001     0.0427
      6  C6         0.1910    8.7380  -19.2490 C.2   1001  A251001     0.0107
      7 CL7         0.8580   10.6870  -21.0100 Cl    1001  A251001    -0.0865
      8  O8        -3.0670    7.8880  -17.4890 O.2   1001  A251001    -0.4732
      9  C9        -2.6230    7.1160  -16.3810 C.3   1001  A251001     0.2055
     10  N10       -3.8570   10.0630  -18.9460 N.2   1001  A251001    -0.3090
     11  C11       -4.4910   11.0210  -19.7270 C.1   1001  A251001     0.3645
     12  N12       -5.7980   11.2770  -19.4340 N.2   1001  A251001    -0.2440
     13  O13       -3.9380   11.6280  -20.6380 O.2   1001  A251001    -0.1745
     14  C14       -6.6400   10.7530  -18.4770 C.1   1001  A251001     0.1568
     15  N15       -6.3130    9.5120  -17.9960 N.2   1001  A251001    -0.3026
     16  C16       -7.1220    8.9440  -17.0440 C.2   1001  A251001     0.3070
     17  C17       -8.2790    9.6390  -16.5680 C.2   1001  A251001     0.1669
     18  N18       -8.6090   10.8730  -17.0400 N.2   1001  A251001    -0.2446
     19  C19       -7.7980   11.4260  -17.9880 C.3   1001  A251001     0.2504
     20  O20       -6.7120    7.6720  -16.6140 O.2   1001  A251001    -0.4502
     21  C21       -6.7320    7.3930  -15.2070 C.3   1001  A251001     0.2082
     22  C22       -5.4230    7.8650  -14.5490 C.3   1001  A251001     0.0476
     23  C23       -3.7500    6.2040  -15.9100 C.3   1001  A251001     0.0475
     24  C24       -4.3770    6.7850  -14.6370 C.3   1001  A251001     0.0077
@<TRIPOS>BOND
     1     7     5    1
     2    13    11    2
     3     5     4    1
     4     5     6    2
     5     4     3    1
     6    11    12    2
     7    11    10    2
     8    12    14    2
     9     6     1    1
    10     3    10    2
    11     3     2    1
    12    14    15    2
    13    14    19    1
    14     1     2    2
    15     2     8    1
    16    15    16    2
    17    19    18    1
    18     8     9    1
    19    16    20    1
    20    16    17    1
    21    18    17    2
    22    20    21    1
    23     9    23    1
    24    23    24    1
    25    21    22    1
    26    24    22    1
