@<TRIPOS>MOLECULE
2e9v_85A_A_1.pdb
 34 37 0 0 0
SMALL
GASTEIGER

@<TRIPOS>ATOM
      1  C1         3.6190   13.7660   -3.7700 C.2   1001  85A1001     0.0559
      2  C2         2.4230   13.4460   -2.9350 C.2   1001  85A1001     0.1664
      3  C3         2.4330   13.8180   -1.5040 C.2   1001  85A1001     0.1633
      4  C4         3.6280   14.4960   -0.9690 C.3   1001  85A1001     0.1024
      5  C5         4.7420   14.7810   -1.8030 C.2   1001  85A1001     0.0575
      6  C6         4.7690   14.4320   -3.2050 C.2   1001  85A1001     0.0757
      7  N7         5.8510   14.7210   -3.9870 N.pl3 1001  85A1001    -0.2322
      8 CL8         6.0630   15.5660   -1.0870 Cl    1001  85A1001    -0.0851
      9  C9        -4.7440   10.5340   -0.5340 C.1   1001  85A1001     0.1254
     10  N10       -5.6800    9.9510   -0.8460 N.1   1001  85A1001    -0.1891
     11  N11        1.2860   13.5200   -0.6860 N.2   1001  85A1001    -0.3090
     12  C12        0.9260   14.0250    0.5960 C.1   1001  85A1001     0.3645
     13  N13       -0.2790   13.6620    1.1160 N.2   1001  85A1001    -0.2440
     14  O14        1.6310   14.7770    1.2690 O.2   1001  85A1001    -0.1745
     15  C15       -1.3510   12.8810    0.7120 C.1   1001  85A1001     0.1569
     16  N16       -1.4380   12.4490   -0.6630 N.2   1001  85A1001    -0.3019
     17  C17       -2.5580   11.6660   -1.0910 C.2   1001  85A1001     0.3153
     18  C18       -3.5970   11.3160   -0.1010 C.2   1001  85A1001     0.2124
     19  N19       -3.4810   11.7440    1.2200 N.2   1001  85A1001    -0.2367
     20  C20       -2.3920   12.5050    1.6290 C.3   1001  85A1001     0.2511
     21  O21        1.2390   12.8080   -3.3940 O.2   1001  85A1001    -0.4731
     22  C22        1.3660   11.5560   -4.0420 C.3   1001  85A1001     0.2055
     23  C23       -1.5420   10.0890   -4.4050 C.3   1001  85A1001     0.0476
     24  C24       -1.7530   10.1650   -2.8680 C.3   1001  85A1001     0.2082
     25  O25       -2.5350   11.3100   -2.4830 O.2   1001  85A1001    -0.4498
     26  C26        0.5050   11.5270   -5.3190 C.3   1001  85A1001     0.0475
     27  C27       -0.7810   11.4470   -4.4630 C.3   1001  85A1001     0.0077
     28  C28        5.8610   15.6510   -5.0760 C.3   1001  85A1001     0.1386
     29  C29        7.2570   16.1210   -5.3700 C.ar  1001  85A1001     0.0024
     30  C30        7.9810   15.6030   -6.4740 C.ar  1001  85A1001     0.0181
     31  C31        9.2950   16.0750   -6.7090 C.ar  1001  85A1001     0.0986
     32  N32        9.8940   17.0130   -5.9090 N.ar  1001  85A1001    -0.2423
     33  C33        9.1910   17.5080   -4.8480 C.ar  1001  85A1001     0.0986
     34  C34        7.8750   17.0910   -4.5430 C.ar  1001  85A1001     0.0181
@<TRIPOS>BOND
     1    31    30   ar
     2    31    32   ar
     3    30    29   ar
     4    32    33   ar
     5    29    28    1
     6    29    34   ar
     7    26    27    1
     8    26    22    1
     9    28     7    1
    10    33    34   ar
    11    27    23    1
    12    23    24    1
    13    22    21    1
    14     7     6    1
    15     1     6    1
    16     1     2    2
    17    21     2    1
    18     6     5    2
    19     2     3    1
    20    24    25    1
    21    25    17    1
    22     5     8    1
    23     5     4    1
    24     3     4    1
    25     3    11    2
    26    17    16    2
    27    17    18    1
    28    10     9    3
    29    11    12    2
    30    16    15    2
    31     9    18    1
    32    18    19    2
    33    12    13    2
    34    12    14    2
    35    15    13    2
    36    15    20    1
    37    19    20    1
