@<TRIPOS>MOLECULE
2e9z_UTP_A_1.pdb
 29 30 0 0 0
SMALL
GASTEIGER

@<TRIPOS>ATOM
      1  PA        19.6450   26.1560   16.0940 P.3   993  UTP993      0.2189
      2  O1A       18.1090   25.8650   15.8460 O.2   993  UTP993     -0.5170
      3  O2A       20.3500   27.4960   16.4070 O.3   993  UTP993     -0.4371
      4  O3A       20.3860   25.5470   14.7290 O.3   993  UTP993     -0.2700
      5  O5'       19.6800   26.1310   17.6180 O.3   993  UTP993     -0.3112
      6  PB        19.5810   25.4310   13.2750 P.3   993  UTP993      0.2277
      7  O1B       19.1350   26.8630   12.8550 O.2   993  UTP993     -0.5168
      8  O2B       18.3670   24.4670   13.3910 O.3   993  UTP993     -0.4368
      9  O3B       20.6710   24.6020   12.3320 O.3   993  UTP993     -0.2258
     10  PG        21.0650   24.6490   10.6960 P.3   993  UTP993      0.5373
     11  O1G       22.1210   25.7210   10.4230 O.3   993  UTP993     -0.1143
     12  O2G       21.6200   23.2180   10.4870 O.3   993  UTP993     -0.1143
     13  O3G       19.7260   24.9840   10.0280 O.2   993  UTP993     -0.2221
     14  C5'       19.1080   26.5950   18.8910 C.3   993  UTP993      0.1813
     15  C4'       18.6160   25.3600   19.7170 C.3   993  UTP993      0.1799
     16  O4'       17.4200   25.6070   20.5120 O.3   993  UTP993     -0.3320
     17  C1'       16.3850   24.6750   20.1350 C.3   993  UTP993      0.2401
     18  C2'       16.9510   23.8000   19.0110 C.3   993  UTP993      0.2319
     19  O2'       16.9010   22.4230   19.4800 O.3   993  UTP993     -0.2157
     20  C3'       18.4060   24.1820   18.7580 C.3   993  UTP993      0.2158
     21  O3'       19.5270   23.2410   18.8010 O.3   993  UTP993     -0.2175
     22  N1        15.0940   25.3800   19.9300 N.am  993  UTP993     -0.1766
     23  C6        14.9330   26.7950   20.0870 C.2   993  UTP993      0.0929
     24  C2        13.9750   24.5550   19.5600 C.1   993  UTP993      0.2845
     25  O2        14.0040   23.3360   19.4020 O.2   993  UTP993     -0.1918
     26  N3        12.7700   25.2440   19.3730 N.2   993  UTP993     -0.2452
     27  C4        12.5490   26.6380   19.5120 C.1   993  UTP993      0.2182
     28  O4        11.4330   27.0970   19.3150 O.2   993  UTP993     -0.2085
     29  C5        13.7320   27.4200   19.8930 C.2   993  UTP993      0.1242
@<TRIPOS>BOND
     1    13    10    2
     2    11    10    1
     3    12    10    1
     4    10     9    1
     5     9     6    1
     6     7     6    2
     7     6     8    1
     8     6     4    1
     9     4     1    1
    10     2     1    2
    11     1     3    1
    12     1     5    1
    13     5    14    1
    14    20    21    1
    15    20    18    1
    16    20    15    1
    17    14    15    1
    18    18    19    1
    19    18    17    1
    20    28    27    2
    21    26    27    2
    22    26    24    2
    23    25    24    2
    24    27    29    1
    25    24    22   am
    26    15    16    1
    27    29    23    2
    28    22    23    1
    29    22    17    1
    30    17    16    1
