@<TRIPOS>MOLECULE
2ea1_GPG_A_1.pdb
 43 48 0 0 0
SMALL
GASTEIGER

@<TRIPOS>ATOM
      1  N9A       14.2440   13.9770   22.1470 N.pl3 250  GPG250     -0.2354
      2  C8A       13.0050   14.3830   21.7440 C.3   250  GPG250      0.2246
      3  N7A       12.0530   14.3360   22.7320 N.2   250  GPG250     -0.2322
      4  C5A       12.6860   13.8430   23.8150 C.2   250  GPG250      0.2182
      5  C6A       12.3400   13.5000   25.2200 C.1   250  GPG250      0.2372
      6  O6A       11.1530   13.6730   25.6300 O.2   250  GPG250     -0.2069
      7  N1A       13.3010   13.0170   26.0390 N.2   250  GPG250     -0.2485
      8  C2A       14.5900   12.8080   25.6490 C.1   250  GPG250      0.2531
      9  N2A       15.4220   12.3030   26.5830 N.pl3 250  GPG250     -0.0226
     10  N3A       15.0360   13.0670   24.3830 N.2   250  GPG250     -0.3074
     11  C4A       14.0880   13.6260   23.4320 C.2   250  GPG250      0.2300
     12  O5D       20.1420   13.6130   20.9570 O.3   250  GPG250     -0.2176
     13  C5D       18.8650   13.7600   21.6030 C.3   250  GPG250      0.2142
     14  C4D       17.6940   13.3910   20.6780 C.3   250  GPG250      0.1827
     15  O4D       16.4760   13.0010   21.3770 O.3   250  GPG250     -0.3326
     16  C3D       17.4250   14.6840   19.9930 C.3   250  GPG250      0.2131
     17  O3D       17.0430   14.1730   18.7020 O.3   250  GPG250     -0.2176
     18  C2D       16.1240   15.1730   20.5630 C.3   250  GPG250      0.2010
     19  O2D       15.6280   16.4440   20.0090 O.3   250  GPG250     -0.3095
     20  C1D       15.4220   13.9760   21.2040 C.3   250  GPG250      0.2264
     21  P         16.4810   17.7000   20.6400 P.3   250  GPG250      0.2142
     22  O1P       18.0020   17.5680   20.1570 O.2   250  GPG250     -0.5172
     23  O2P       16.3820   17.6010   22.2500 O.3   250  GPG250     -0.4373
     24  O5E       16.0320   19.2210   20.2930 O.3   250  GPG250     -0.3114
     25  C5E       16.4710   20.3190   21.1090 C.3   250  GPG250      0.1813
     26  C4E       15.2740   20.7710   21.9710 C.3   250  GPG250      0.1799
     27  O4E       14.1360   19.8750   22.0200 O.3   250  GPG250     -0.3326
     28  C3E       15.4520   21.4230   23.3440 C.3   250  GPG250      0.2158
     29  O3E       15.6880   22.8310   23.2460 O.3   250  GPG250     -0.2175
     30  C2E       14.2220   20.9880   24.1780 C.3   250  GPG250      0.2310
     31  O2E       13.3110   21.9600   24.6740 O.3   250  GPG250     -0.2158
     32  C1E       13.4110   20.1200   23.2390 C.3   250  GPG250      0.2293
     33  N9B       12.5010   19.0780   23.7750 N.pl3 250  GPG250     -0.2354
     34  C8B       12.7370   17.8670   24.3730 C.3   250  GPG250      0.2246
     35  N7B       11.5370   17.2330   24.6920 N.2   250  GPG250     -0.2322
     36  C5B       10.5120   18.0370   24.2610 C.2   250  GPG250      0.2182
     37  C6B        9.0250   18.1010   24.2490 C.1   250  GPG250      0.2372
     38  O6B        8.3550   17.1380   24.7150 O.2   250  GPG250     -0.2069
     39  N1B        8.3850   19.1810   23.7010 N.2   250  GPG250     -0.2485
     40  C2B        9.0110   20.2580   23.1670 C.1   250  GPG250      0.2531
     41  N2B        8.2640   21.3010   22.7080 N.pl3 250  GPG250     -0.0226
     42  N3B       10.3850   20.3290   23.1610 N.2   250  GPG250     -0.3074
     43  C4B       11.1590   19.2010   23.6830 C.2   250  GPG250      0.2300
@<TRIPOS>BOND
     1    17    16    1
     2    16    18    1
     3    16    14    1
     4    19    18    1
     5    19    21    1
     6    22    21    2
     7    24    21    1
     8    24    25    1
     9    18    20    1
    10    21    23    1
    11    14    15    1
    12    14    13    1
    13    12    13    1
    14    25    26    1
    15    20    15    1
    16    20     1    1
    17     2     1    1
    18     2     3    1
    19    26    27    1
    20    26    28    1
    21    27    32    1
    22     1    11    1
    23    41    40    1
    24     3     4    2
    25    42    40    2
    26    42    43    2
    27    40    39    2
    28    32    33    1
    29    32    30    1
    30    29    28    1
    31    28    30    1
    32    11     4    1
    33    11    10    2
    34    43    33    1
    35    43    36    1
    36    39    37    2
    37    33    34    1
    38     4     5    1
    39    30    31    1
    40    37    36    1
    41    37    38    2
    42    36    35    2
    43    34    35    1
    44    10     8    2
    45     5     6    2
    46     5     7    2
    47     8     7    2
    48     8     9    1
