@<TRIPOS>MOLECULE
2ea2_F77_A_1.pdb
 23 24 0 0 0
SMALL
GASTEIGER

@<TRIPOS>ATOM
      1  C1        19.9380   34.1400   16.4480 C.3   482  F77482      0.0050
      2  C2        19.0920   33.5110   15.3240 C.3   482  F77482      0.0260
      3  C3        18.1750   32.4030   15.8190 C.ar  482  F77482     -0.0258
      4  C4        16.7760   32.6880   16.0440 C.ar  482  F77482     -0.0032
      5  C5        15.8790   31.6690   16.5100 C.ar  482  F77482      0.0179
      6  C6        16.3490   30.3280   16.7710 C.ar  482  F77482      0.0970
      7  C7        17.7540   30.0170   16.5550 C.ar  482  F77482      0.0922
      8  C8        18.6610   31.0510   16.0750 C.ar  482  F77482     -0.0181
      9  C9        20.1560   30.7190   15.8360 C.3   482  F77482      0.0310
     10  C10       18.2950   28.6650   16.8110 C.2   482  F77482      0.3887
     11  O11       17.8230   27.6520   16.0710 O.co2 482  F77482     -0.2405
     12  O12       19.0990   28.4970   17.6750 O.co2 482  F77482     -0.2405
     13  N13       15.4730   29.3430   17.2220 N.pl3 482  F77482     -0.0963
     14  S14       14.8530   29.1810   18.7260 S.O2  482  F77482      0.0928
     15  O15       13.9540   28.0640   18.6920 O.2   482  F77482     -0.1483
     16  O16       14.2850   30.4760   19.0650 O.2   482  F77482     -0.1483
     17  C17       16.1930   28.8130   19.8010 C.ar  482  F77482      0.1272
     18  C18       16.6840   27.4840   19.8840 C.ar  482  F77482      0.0226
     19  C19       17.7690   27.1900   20.7450 C.ar  482  F77482      0.0310
     20  C20       18.3340   28.2370   21.5030 C.ar  482  F77482      0.1402
     21  C21       17.8560   29.5530   21.4310 C.ar  482  F77482      0.0310
     22  C22       16.7760   29.8410   20.5710 C.ar  482  F77482      0.0226
     23  F23       19.3510   27.9740   22.3150 F     482  F77482     -0.2042
@<TRIPOS>BOND
     1     2     3    1
     2     2     1    1
     3     3     4   ar
     4     3     8   ar
     5     9     8    1
     6     4     5   ar
     7    11    10   ar
     8     8     7   ar
     9     5     6   ar
    10     7     6   ar
    11     7    10    1
    12     6    13    1
    13    10    12   ar
    14    13    14    1
    15    15    14    2
    16    14    16    2
    17    14    17    1
    18    17    18   ar
    19    17    22   ar
    20    18    19   ar
    21    22    21   ar
    22    19    20   ar
    23    21    20   ar
    24    20    23    1
