@<TRIPOS>MOLECULE
2eac_DFU_A_1.pdb
 10 10 0 0 0
SMALL
GASTEIGER

@<TRIPOS>ATOM
      1  C1        74.4710   55.5220   68.7950 C.3   1690  DFU1690     0.1242
      2  C2        73.7510   54.2130   69.1120 C.3   1690  DFU1690     0.2020
      3  C3        72.3590   54.4860   69.6980 C.3   1690  DFU1690     0.2150
      4  C4        71.5320   55.3650   68.7570 C.3   1690  DFU1690     0.2005
      5  C5        72.2780   56.6770   68.4480 C.3   1690  DFU1690     0.1059
      6  C6        71.5020   57.5470   67.4570 C.3   1690  DFU1690     0.0216
      7  O4        71.3120   54.6650   67.5110 O.3   1690  DFU1690    -0.2188
      8  O3        71.6880   53.2420   69.9280 O.3   1690  DFU1690    -0.2176
      9  O2        74.5660   53.3950   69.9780 O.3   1690  DFU1690    -0.2188
     10  N5        73.6030   56.3510   67.9610 N.3   1690  DFU1690    -0.2140
@<TRIPOS>BOND
     1     6     5    1
     2     7     4    1
     3    10     5    1
     4    10     1    1
     5     5     4    1
     6     4     3    1
     7     1     2    1
     8     2     3    1
     9     2     9    1
    10     3     8    1
