@<TRIPOS>MOLECULE
2ead_GAL_B_1.pdb
 10 10 0 0 0
SMALL
GASTEIGER

@<TRIPOS>ATOM
      1  C1        71.7430  -32.1690   93.1760 C.3   900  GAL900      0.1450
      2  C2        70.2400  -32.1480   93.5110 C.3   900  GAL900      0.0677
      3  C3        70.0380  -32.2660   95.0380 C.3   900  GAL900      0.1872
      4  C4        70.7660  -33.4740   95.6240 C.3   900  GAL900      0.2116
      5  C5        72.2330  -33.5060   95.1590 C.3   900  GAL900      0.1808
      6  C6        72.9120  -34.8460   95.4680 C.3   900  GAL900      0.2141
      7  O3        68.6790  -32.3050   95.4060 O.3   900  GAL900     -0.2202
      8  O4        70.1060  -34.6630   95.2550 O.3   900  GAL900     -0.2177
      9  O5        72.3290  -33.3270   93.7530 O.3   900  GAL900     -0.3508
     10  O6        74.2690  -34.7370   95.0990 O.3   900  GAL900     -0.2176
@<TRIPOS>BOND
     1     1     2    1
     2     1     9    1
     3     2     3    1
     4     9     5    1
     5     3     7    1
     6     3     4    1
     7    10     6    1
     8     5     6    1
     9     5     4    1
    10     8     4    1
