@<TRIPOS>MOLECULE
2ead_BGC_B_1.pdb
 12 12 0 0 0
SMALL
GASTEIGER

@<TRIPOS>ATOM
      1  C2        74.9940  -32.8210   89.7510 C.3   899  BGC899      0.2434
      2  C3        73.8090  -33.1710   90.6570 C.3   899  BGC899      0.2199
      3  C4        73.1090  -31.9160   91.2050 C.3   899  BGC899      0.2144
      4  C5        72.8780  -30.8990   90.0680 C.3   899  BGC899      0.1836
      5  C6        72.2910  -29.5780   90.5740 C.3   899  BGC899      0.2142
      6  C1        74.5040  -31.8890   88.6380 C.3   899  BGC899      0.3024
      7  O1        75.5220  -31.6270   87.6860 O.3   899  BGC899     -0.1869
      8  O2        75.6020  -34.0020   89.2580 O.3   899  BGC899     -0.2148
      9  O3        74.2480  -33.9960   91.7120 O.3   899  BGC899     -0.2174
     10  O4        71.8370  -32.2470   91.7430 O.3   899  BGC899     -0.2176
     11  O5        74.0500  -30.6900   89.2660 O.3   899  BGC899     -0.3236
     12  O6        72.9830  -29.1340   91.7320 O.3   899  BGC899     -0.2176
@<TRIPOS>BOND
     1     7     6    1
     2     6    11    1
     3     6     1    1
     4     8     1    1
     5    11     4    1
     6     1     2    1
     7     4     5    1
     8     4     3    1
     9     5    12    1
    10     2     3    1
    11     2     9    1
    12     3    10    1
