@<TRIPOS>MOLECULE
2ead_FUC_B_1.pdb
 11 11 0 0 0
SMALL
GASTEIGER

@<TRIPOS>ATOM
      1  C1        68.0380  -31.0900   92.7380 C.3   901  FUC901      0.3023
      2  C2        67.6900  -30.0820   91.6510 C.3   901  FUC901      0.2434
      3  C3        68.1200  -30.7140   90.3200 C.3   901  FUC901      0.2198
      4  C4        67.4040  -32.0520   90.0520 C.3   901  FUC901      0.2118
      5  C5        67.6510  -33.0190   91.2140 C.3   901  FUC901      0.1509
      6  C6        66.7190  -34.2320   91.1720 C.3   901  FUC901      0.0350
      7  O1        69.4800  -31.2140   92.8920 O.3   901  FUC901     -0.1869
      8  O2        68.3770  -28.8480   91.9710 O.3   901  FUC901     -0.2148
      9  O3        67.8290  -29.8340   89.2720 O.3   901  FUC901     -0.2174
     10  O4        66.0040  -31.8290   89.8760 O.3   901  FUC901     -0.2177
     11  O5        67.4000  -32.3460   92.4570 O.3   901  FUC901     -0.3264
@<TRIPOS>BOND
     1     9     3    1
     2    10     4    1
     3     4     3    1
     4     4     5    1
     5     3     2    1
     6     6     5    1
     7     5    11    1
     8     2     8    1
     9     2     1    1
    10    11     1    1
    11     1     7    1
