@<TRIPOS>MOLECULE
2eae_LBT_A_1.pdb
 23 24 0 0 0
SMALL
GASTEIGER

@<TRIPOS>ATOM
      1  C1        39.8890   39.8920    3.5750 C.3   901  LBT901      0.2695
      2  C2        39.4540   39.4310    4.9760 C.3   901  LBT901      0.2406
      3  C3        37.9220   39.4240    5.0960 C.3   901  LBT901      0.2198
      4  C4        37.3890   40.8120    4.6950 C.3   901  LBT901      0.2144
      5  C5        37.8810   41.1640    3.2840 C.3   901  LBT901      0.1835
      6  C6        37.4790   42.5820    2.9380 C.3   901  LBT901      0.2142
      7  O1        41.2950   40.0130    3.5350 O.3   901  LBT901     -0.3257
      8  O2        40.0240   38.1920    5.3260 O.3   901  LBT901     -0.2149
      9  O3        37.6090   39.1580    6.4410 O.3   901  LBT901     -0.2174
     10  O4        37.8630   41.7720    5.6100 O.3   901  LBT901     -0.2176
     11  O5        39.2960   41.1280    3.2750 O.3   901  LBT901     -0.3256
     12  O6        37.7150   42.7820    1.5510 O.3   901  LBT901     -0.2176
     13  C1'       43.9790   39.4720    0.2910 C.3   901  LBT901      0.3023
     14  C2'       43.2080   40.7980    0.4130 C.3   901  LBT901      0.2433
     15  C3'       42.6050   41.0400    1.7860 C.3   901  LBT901      0.2168
     16  C4'       41.9330   39.7780    2.2930 C.3   901  LBT901      0.1804
     17  C5'       43.0430   38.7490    2.4520 C.3   901  LBT901      0.1804
     18  C6'       42.5040   37.4590    3.0430 C.3   901  LBT901      0.2141
     19  O1'       45.3650   39.6540    0.4900 O.3   901  LBT901     -0.1869
     20  O2'       44.0140   41.9210    0.1410 O.3   901  LBT901     -0.2148
     21  O3'       41.6690   42.0640    1.6080 O.3   901  LBT901     -0.2175
     22  O5'       43.5560   38.4280    1.1700 O.3   901  LBT901     -0.3237
     23  O6'       41.8060   36.8020    2.0010 O.3   901  LBT901     -0.2176
@<TRIPOS>BOND
     1    20    14    1
     2    13    14    1
     3    13    19    1
     4    13    22    1
     5    14    15    1
     6    22    17    1
     7    12     6    1
     8    21    15    1
     9    15    16    1
    10    23    18    1
    11    16    17    1
    12    16     7    1
    13    17    18    1
    14     6     5    1
    15    11     5    1
    16    11     1    1
    17     5     4    1
    18     7     1    1
    19     1     2    1
    20     4     3    1
    21     4    10    1
    22     2     3    1
    23     2     8    1
    24     3     9    1
