@<TRIPOS>MOLECULE
2eae_FUC_A_1.pdb
 11 11 0 0 0
SMALL
GASTEIGER

@<TRIPOS>ATOM
      1  C1        40.1190   37.7630    8.6500 C.3   899  FUC899      0.3023
      2  C2        41.2980   36.9530    8.1370 C.3   899  FUC899      0.2434
      3  C3        42.2910   37.9190    7.4880 C.3   899  FUC899      0.2198
      4  C4        42.7600   38.9900    8.4860 C.3   899  FUC899      0.2118
      5  C5        41.5060   39.6970    9.0150 C.3   899  FUC899      0.1509
      6  C6        41.7980   40.7930   10.0300 C.3   899  FUC899      0.0350
      7  O1        39.5240   38.3830    7.5030 O.3   899  FUC899     -0.1869
      8  O2        40.8410   35.9870    7.1760 O.3   899  FUC899     -0.2148
      9  O3        43.3480   37.1650    6.8970 O.3   899  FUC899     -0.2174
     10  O4        43.4930   38.4090    9.5750 O.3   899  FUC899     -0.2177
     11  O5        40.5880   38.7490    9.5850 O.3   899  FUC899     -0.3264
@<TRIPOS>BOND
     1     9     3    1
     2     8     2    1
     3     3     2    1
     4     3     4    1
     5     7     1    1
     6     2     1    1
     7     4     5    1
     8     4    10    1
     9     1    11    1
    10     5    11    1
    11     5     6    1
