@<TRIPOS>MOLECULE
2eae_FUL_A_1.pdb
 11 11 0 0 0
SMALL
GASTEIGER

@<TRIPOS>ATOM
      1  C1        40.0120   37.6800    8.4630 C.3   900  FUL900      0.3023
      2  C2        41.2750   36.8430    8.1680 C.3   900  FUL900      0.2434
      3  O2        40.9750   35.8680    7.1440 O.3   900  FUL900     -0.2148
      4  C3        42.5090   37.6760    7.7510 C.3   900  FUL900      0.2198
      5  O3        43.7000   36.8700    7.8970 O.3   900  FUL900     -0.2174
      6  C4        42.6570   38.9280    8.6180 C.3   900  FUL900      0.2118
      7  O4        42.9360   38.4440    9.9370 O.3   900  FUL900     -0.2177
      8  C5        41.3490   39.7200    8.6230 C.3   900  FUL900      0.1509
      9  C6        41.3940   40.9570    9.5200 C.3   900  FUL900      0.0350
     10  O5        40.3000   38.9040    9.1270 O.3   900  FUL900     -0.3264
     11  O1        39.0970   37.0030    9.3480 O.3   900  FUL900     -0.1869
@<TRIPOS>BOND
     1     3     2    1
     2     4     5    1
     3     4     2    1
     4     4     6    1
     5     2     1    1
     6     1    10    1
     7     1    11    1
     8     6     8    1
     9     6     7    1
    10     8    10    1
    11     8     9    1
