@<TRIPOS>MOLECULE
2eak_LBT_A_1.pdb
 23 24 0 0 0
SMALL
GASTEIGER

@<TRIPOS>ATOM
      1  C1        28.7690   49.8860   31.3590 C.3   149  LBT149      0.2695
      2  C2        27.6580   49.8400   30.3070 C.3   149  LBT149      0.2406
      3  C3        26.9070   51.1740   30.2190 C.3   149  LBT149      0.2198
      4  C4        26.6040   51.7730   31.5920 C.3   149  LBT149      0.2144
      5  C5        27.8530   51.7200   32.4780 C.3   149  LBT149      0.1835
      6  C6        27.6210   52.2840   33.8700 C.3   149  LBT149      0.2142
      7  O1        29.3390   48.5940   31.5470 O.3   149  LBT149     -0.3257
      8  O2        28.2010   49.5330   29.0360 O.3   149  LBT149     -0.2149
      9  O3        25.6880   50.9610   29.5420 O.3   149  LBT149     -0.2174
     10  O4        25.6150   50.9750   32.1820 O.3   149  LBT149     -0.2176
     11  O5        28.2670   50.3800   32.5880 O.3   149  LBT149     -0.3256
     12  O6        28.7980   52.1290   34.6610 O.3   149  LBT149     -0.2176
     13  C1'       32.7460   47.1440   33.6090 C.3   149  LBT149      0.3023
     14  C2'       31.3880   47.0300   34.2850 C.3   149  LBT149      0.2433
     15  C3'       30.2040   47.3020   33.3710 C.3   149  LBT149      0.2168
     16  C4'       30.4050   48.5210   32.4810 C.3   149  LBT149      0.1804
     17  C5'       31.7790   48.5760   31.7890 C.3   149  LBT149      0.1804
     18  C6'       32.1290   50.0290   31.4570 C.3   149  LBT149      0.2141
     19  O1'       33.0900   45.8740   33.1030 O.3   149  LBT149     -0.1869
     20  O2'       31.2640   45.7140   34.7520 O.3   149  LBT149     -0.2148
     21  O3'       29.0860   47.5250   34.1910 O.3   149  LBT149     -0.2175
     22  O5'       32.8700   48.1290   32.5860 O.3   149  LBT149     -0.3237
     23  O6'       32.1900   50.2060   30.0720 O.3   149  LBT149     -0.2176
@<TRIPOS>BOND
     1     8     2    1
     2     9     3    1
     3    23    18    1
     4     3     2    1
     5     3     4    1
     6     2     1    1
     7     1     7    1
     8     1    11    1
     9    18    17    1
    10     7    16    1
    11     4    10    1
    12     4     5    1
    13    17    16    1
    14    17    22    1
    15     5    11    1
    16     5     6    1
    17    16    15    1
    18    22    13    1
    19    19    13    1
    20    15    21    1
    21    15    14    1
    22    13    14    1
    23     6    12    1
    24    14    20    1
