@<TRIPOS>MOLECULE
2eal_GAL_A_1.pdb
 11 11 0 0 0
SMALL
GASTEIGER

@<TRIPOS>ATOM
      1  C1         9.3810   21.0020   19.7710 C.3   149  GAL149      0.2997
      2  C2        10.5940   21.5540   20.5010 C.3   149  GAL149      0.2134
      3  C3        10.4460   23.0430   20.1700 C.3   149  GAL149      0.0738
      4  C4        10.5100   23.2560   18.6470 C.3   149  GAL149      0.1843
      5  C5         9.6560   22.2340   17.8600 C.3   149  GAL149      0.1810
      6  C6         9.9820   22.2870   16.3730 C.3   149  GAL149      0.2141
      7  O1         8.8790   19.8260   20.3520 O.3   149  GAL149     -0.1870
      8  O2        10.6730   21.2410   21.8950 O.3   149  GAL149     -0.2175
      9  O4        11.8540   23.1750   18.2340 O.3   149  GAL149     -0.2204
     10  O5         9.8200   20.9280   18.4120 O.3   149  GAL149     -0.3238
     11  O6         8.9760   21.6360   15.6280 O.3   149  GAL149     -0.2176
@<TRIPOS>BOND
     1    11     6    1
     2     6     5    1
     3     5    10    1
     4     5     4    1
     5     9     4    1
     6    10     1    1
     7     4     3    1
     8     1     7    1
     9     1     2    1
    10     3     2    1
    11     2     8    1
