@<TRIPOS>MOLECULE
2ear_TG1_A_1.pdb
 46 48 0 0 0
SMALL
GASTEIGER

@<TRIPOS>ATOM
      1  C34        8.7790  -19.2010   17.7910 C.3   1003  TG11003     0.0474
      2  C11        9.3120  -19.3440   16.3870 C.3   1003  TG11003     0.2470
      3  C7         8.3290  -18.8270   15.2710 C.3   1003  TG11003     0.2380
      4  C8         8.1780  -17.2670   15.1690 C.3   1003  TG11003     0.2067
      5  C9         7.2820  -16.7060   14.0220 C.3   1003  TG11003     0.0869
      6  C10        7.5170  -17.1150   12.5010 C.3   1003  TG11003     0.1465
      7  C1         7.4230  -18.7150   12.0410 C.3   1003  TG11003     0.1022
      8  C2         7.4430  -19.0260   10.4160 C.3   1003  TG11003     0.2195
      9  O1         6.4560  -20.0100    9.9440 O.3   1003  TG11003    -0.4477
     10  C13        6.1580  -20.3030    8.5350 C.2   1003  TG11003     0.3170
     11  O2         6.5090  -19.6380    7.5680 O.2   1003  TG11003    -0.2501
     12  C14        5.3740  -21.6170    8.3500 C.3   1003  TG11003     0.1096
     13  C15        4.8930  -22.0530    6.9590 C.3   1003  TG11003     0.0116
     14  C16        3.7250  -21.2420    6.3700 C.3   1003  TG11003     0.0006
     15  C17        3.1800  -21.8300    5.0500 C.3   1003  TG11003     0.0000
     16  C18        1.8300  -21.1990    4.6440 C.3   1003  TG11003     0.0000
     17  C19        1.3480  -21.3630    3.1970 C.3   1003  TG11003     0.0000
     18  C20        0.0510  -20.5890    2.9770 C.3   1003  TG11003     0.0000
     19  C3         8.7780  -19.8150   10.1860 C.3   1003  TG11003     0.2271
     20  O3         9.7070  -18.9700    9.3950 O.3   1003  TG11003    -0.4414
     21  C21        9.8560  -19.2720    8.0830 C.2   1003  TG11003     0.3372
     22  O4         9.2800  -20.3670    7.3890 O.2   1003  TG11003    -0.2453
     23  C22       10.4720  -18.0360    7.2600 C.2   1003  TG11003     0.0495
     24  C23        9.5250  -17.6020    6.2110 C.3   1003  TG11003     0.0375
     25  C24       11.5630  -17.2620    7.3610 C.2   1003  TG11003    -0.0236
     26  C25       12.6770  -17.2650    8.3730 C.3   1003  TG11003     0.0306
     27  C4         9.3600  -20.0760   11.5840 C.2   1003  TG11003    -0.0052
     28  C26       10.6750  -20.8250   11.7100 C.3   1003  TG11003     0.0296
     29  C5         8.6400  -19.5200   12.5810 C.2   1003  TG11003     0.0000
     30  C6         9.0560  -19.5270   14.0900 C.3   1003  TG11003     0.2211
     31  O5         9.2650  -20.8250   14.6280 O.3   1003  TG11003    -0.4435
     32  C12        9.5530  -20.7120   15.9260 C.2   1003  TG11003     0.3477
     33  O12        9.9380  -21.6290   16.6410 O.2   1003  TG11003    -0.2473
     34  C31        8.8110  -16.4400   11.9970 C.3   1003  TG11003     0.0443
     35  O9         6.6730  -16.2700   11.6790 O.3   1003  TG11003    -0.4552
     36  C32        5.4020  -15.8270   11.6970 C.2   1003  TG11003     0.3173
     37  O10        4.5250  -16.1860   12.4600 O.2   1003  TG11003    -0.2501
     38  C33        5.2160  -14.8530   10.6690 C.3   1003  TG11003     0.1212
     39  O7         9.5590  -16.6660   15.2860 O.3   1003  TG11003    -0.4493
     40  C27        9.9870  -16.0860   16.4830 C.2   1003  TG11003     0.3169
     41  O8         9.2470  -15.7960   17.4100 O.2   1003  TG11003    -0.2501
     42  C28       11.5270  -16.0460   16.5620 C.3   1003  TG11003     0.1096
     43  C29       12.1030  -14.8920   17.4070 C.3   1003  TG11003     0.0116
     44  C30       13.3460  -15.2810   18.2010 C.3   1003  TG11003     0.0006
     45  O6         7.0200  -19.4310   15.4360 O.3   1003  TG11003    -0.2147
     46  O11       10.6760  -18.9530   16.4220 O.3   1003  TG11003    -0.2114
@<TRIPOS>BOND
     1    18    17    1
     2    17    16    1
     3    16    15    1
     4    15    14    1
     5    24    23    1
     6    14    13    1
     7    13    12    1
     8    23    25    2
     9    23    21    1
    10    25    26    1
    11    22    21    2
    12    11    10    2
    13    21    20    1
    14    12    10    1
    15    10     9    1
    16    20    19    1
    17     9     8    1
    18    19     8    1
    19    19    27    1
    20     8     7    1
    21    38    36    1
    22    27    28    1
    23    27    29    2
    24    35    36    1
    25    35     6    1
    26    36    37    2
    27    34     6    1
    28     7     6    1
    29     7    29    1
    30     6     5    1
    31    29    30    1
    32     5     4    1
    33    30    31    1
    34    30     3    1
    35    31    32    1
    36     4     3    1
    37     4    39    1
    38     3    45    1
    39     3     2    1
    40    39    40    1
    41    32     2    1
    42    32    33    2
    43     2    46    1
    44     2     1    1
    45    40    42    1
    46    40    41    2
    47    42    43    1
    48    43    44    1
