@<TRIPOS>MOLECULE
2eas_CZA_A_1.pdb
 25 29 0 0 0
SMALL
GASTEIGER

@<TRIPOS>ATOM
      1  O2        20.9660  -19.2070   15.9050 O.2   1005  CZA1005    -0.2934
      2  C6        20.6900  -18.2650   15.1220 C.2   1005  CZA1005     0.1835
      3  C3        19.4320  -17.7010   14.7640 C.3   1005  CZA1005     0.1661
      4  C2        18.2270  -18.0830   15.2110 C.3   1005  CZA1005     0.1677
      5  O1        17.7850  -19.4070   14.9270 O.3   1005  CZA1005    -0.2222
      6  C1        17.3550  -17.2100   15.9560 C.3   1005  CZA1005     0.0365
      7  C5        21.7550  -17.5060   14.3630 C.3   1005  CZA1005     0.1558
      8  C7        22.7440  -18.2980   13.4750 C.ar  1005  CZA1005    -0.0017
      9  C15       24.1380  -18.3570   14.0640 C.ar  1005  CZA1005     0.0009
     10  C16       24.6250  -18.7830   15.2890 C.3   1005  CZA1005     0.1512
     11  N2        26.0210  -18.6230   15.3190 N.2   1005  CZA1005    -0.2696
     12  C17       26.4410  -18.0730   14.0720 C.2   1005  CZA1005     0.0582
     13  C14       25.2270  -17.9130   13.2980 C.ar  1005  CZA1005     0.0111
     14  C18       27.7310  -17.7100   13.5610 C.3   1005  CZA1005     0.0713
     15  C19       27.7410  -17.1750   12.2400 C.2   1005  CZA1005    -0.0198
     16  C20       26.5080  -17.0100   11.4490 C.2   1005  CZA1005    -0.0042
     17  C13       25.2680  -17.3850   11.9890 C.ar  1005  CZA1005     0.0003
     18  C12       23.9400  -17.2770   11.2840 C.ar  1005  CZA1005    -0.0030
     19  C8        22.5870  -17.6500   12.0270 C.ar  1005  CZA1005    -0.0083
     20  C9        21.6380  -16.4330   12.1350 C.3   1005  CZA1005     0.0797
     21  C10       22.3320  -15.0440   12.0440 C.3   1005  CZA1005     0.0245
     22  C11       20.6010  -16.5540   10.9830 C.3   1005  CZA1005     0.0245
     23  N1        21.0130  -16.4880   13.5610 N.am  1005  CZA1005    -0.2703
     24  C4        19.6490  -16.6130   13.8050 C.2   1005  CZA1005     0.2355
     25  O3        18.7170  -15.9310   13.3110 O.2   1005  CZA1005    -0.2743
@<TRIPOS>BOND
     1    22    20    1
     2    18    17   ar
     3    18    19   ar
     4    16    17    1
     5    16    15    2
     6    17    13   ar
     7    19    20    1
     8    19     8   ar
     9    21    20    1
    10    20    23    1
    11    15    14    1
    12    13     9   ar
    13    13    12    1
    14    25    24    2
    15     8     9   ar
    16     8     7    1
    17    14    12    1
    18    23    24   am
    19    23     7    1
    20    24     3    1
    21     9    10    1
    22    12    11    2
    23     7     2    1
    24     3     2    1
    25     3     4    1
    26     5     4    1
    27     2     1    2
    28     4     6    1
    29    10    11    1
