@<TRIPOS>MOLECULE
2eat_CZA_A_1.pdb
 25 29 0 0 0
SMALL
GASTEIGER

@<TRIPOS>ATOM
      1  O2        22.0430  -18.7100   15.1800 O.2   1005  CZA1005    -0.2934
      2  C6        21.8670  -17.6350   14.6250 C.2   1005  CZA1005     0.1842
      3  C3        20.6880  -17.1050   14.3340 C.3   1005  CZA1005     0.1968
      4  C2        19.5220  -17.4310   14.8980 C.2   1005  CZA1005     0.1886
      5  O1        19.4880  -18.3920   15.8160 O.2   1005  CZA1005    -0.2904
      6  C1        18.3940  -16.8330   14.5550 C.2   1005  CZA1005     0.0413
      7  C5        22.9540  -16.7080   14.1490 C.3   1005  CZA1005     0.1339
      8  C7        24.1910  -17.3730   13.5790 C.3   1005  CZA1005     0.0333
      9  C15       25.3590  -16.6520   14.1310 C.3   1005  CZA1005     0.0496
     10  C16       25.7260  -16.7890   15.4670 C.3   1005  CZA1005     0.1295
     11  N2        27.0580  -17.0710   15.4880 N.2   1005  CZA1005    -0.2744
     12  C17       27.5210  -17.1690   14.2200 C.2   1005  CZA1005     0.0538
     13  C14       26.4580  -16.9210   13.3700 C.2   1005  CZA1005    -0.0110
     14  C18       28.7620  -17.4480   13.6450 C.3   1005  CZA1005     0.0709
     15  C19       28.8990  -17.4710   12.2510 C.2   1005  CZA1005    -0.0201
     16  C20       27.8030  -17.2180   11.4150 C.2   1005  CZA1005    -0.0087
     17  C13       26.5740  -16.9400   12.0030 C.2   1005  CZA1005    -0.0252
     18  C12       25.2980  -16.6610   11.2550 C.3   1005  CZA1005     0.0277
     19  C8        24.0850  -17.2120   12.0450 C.3   1005  CZA1005     0.0235
     20  C9        22.7930  -16.4500   11.7670 C.3   1005  CZA1005     0.0611
     21  C10       23.0020  -15.2690   10.8220 C.3   1005  CZA1005     0.0199
     22  C11       21.8290  -17.4540   11.1460 C.3   1005  CZA1005     0.0199
     23  N1        22.3120  -15.9270   13.0690 N.am  1005  CZA1005    -0.2769
     24  C4        20.9210  -16.0750   13.3330 C.2   1005  CZA1005     0.2400
     25  O3        20.0520  -15.3990   12.8100 O.2   1005  CZA1005    -0.2739
@<TRIPOS>BOND
     1    21    20    1
     2    22    20    1
     3    18    17    1
     4    18    19    1
     5    16    17    1
     6    16    15    2
     7    20    19    1
     8    20    23    1
     9    17    13    2
    10    19     8    1
    11    15    14    1
    12    25    24    2
    13    23    24   am
    14    23     7    1
    15    24     3    1
    16    13     9    1
    17    13    12    1
    18     8     9    1
    19     8     7    1
    20    14    12    1
    21     9    10    1
    22     7     2    1
    23    12    11    2
    24     3     2    1
    25     3     4    1
    26     6     4    2
    27     2     1    2
    28     4     5    1
    29    10    11    1
