@<TRIPOS>MOLECULE
2eat_TG1_A_1.pdb
 46 48 0 0 0
SMALL
GASTEIGER

@<TRIPOS>ATOM
      1  C34        7.5910  -20.0060   17.6510 C.3   1003  TG11003     0.0474
      2  C11        8.7470  -19.7390   16.6840 C.3   1003  TG11003     0.2470
      3  C7         8.2880  -19.1740   15.3370 C.3   1003  TG11003     0.2380
      4  C8         8.3050  -17.6390   15.2640 C.3   1003  TG11003     0.2067
      5  C9         7.5120  -17.0330   14.0780 C.3   1003  TG11003     0.0869
      6  C10        7.9170  -17.3530   12.6200 C.3   1003  TG11003     0.1465
      7  C1         7.8010  -18.8700   12.3340 C.3   1003  TG11003     0.1009
      8  C2         7.7870  -19.2610   10.8560 C.3   1003  TG11003     0.2067
      9  O1         6.6970  -20.1560   10.6180 O.3   1003  TG11003    -0.4489
     10  C13        6.1090  -20.0830    9.2800 C.2   1003  TG11003     0.3170
     11  O2         6.3160  -19.1090    8.5650 O.2   1003  TG11003    -0.2501
     12  C14        5.2310  -21.2160    8.7880 C.3   1003  TG11003     0.1096
     13  C15        5.8000  -21.8180    7.5070 C.3   1003  TG11003     0.0116
     14  C16        5.1230  -21.2170    6.2800 C.3   1003  TG11003     0.0006
     15  C17        6.1130  -21.0420    5.1330 C.3   1003  TG11003     0.0000
     16  C18        5.4410  -21.2030    3.7690 C.3   1003  TG11003     0.0000
     17  C19        5.7270  -22.5710    3.1560 C.3   1003  TG11003     0.0000
     18  C20        6.6810  -22.4640    1.9860 C.3   1003  TG11003     0.0000
     19  C3         9.1060  -19.9710   10.5660 C.3   1003  TG11003     0.1762
     20  O3         9.9910  -19.0860    9.8830 O.3   1003  TG11003    -0.3200
     21  C21       10.4920  -19.6120    8.6510 C.3   1003  TG11003     0.2886
     22  O4         9.8890  -20.8800    8.3460 O.3   1003  TG11003    -0.1850
     23  C22       10.2390  -18.6250    7.5420 C.2   1003  TG11003     0.0102
     24  C23        8.9960  -18.7630    6.7110 C.3   1003  TG11003     0.0312
     25  C24       11.0920  -17.6200    7.2660 C.2   1003  TG11003    -0.0294
     26  C25       12.3720  -17.3650    8.0230 C.3   1003  TG11003     0.0302
     27  C4         9.6620  -20.2610   11.9190 C.2   1003  TG11003    -0.0179
     28  C26       10.8940  -21.1040   12.1100 C.3   1003  TG11003     0.0284
     29  C5         8.9530  -19.6800   12.8850 C.2   1003  TG11003    -0.0011
     30  C6         9.2990  -19.7980   14.3560 C.3   1003  TG11003     0.2210
     31  O5         9.5320  -21.1290   14.8170 O.3   1003  TG11003    -0.4435
     32  C12        9.4150  -21.0140   16.2580 C.2   1003  TG11003     0.3477
     33  O12        9.8410  -21.8700   17.0160 O.2   1003  TG11003    -0.2473
     34  C31        9.3030  -16.7780   12.3250 C.3   1003  TG11003     0.0443
     35  O9         7.1010  -16.5720   11.7270 O.3   1003  TG11003    -0.4552
     36  C32        5.6470  -16.5660   11.5690 C.2   1003  TG11003     0.3173
     37  O10        4.9280  -16.5970   12.5520 O.2   1003  TG11003    -0.2501
     38  C33        5.0700  -16.4890   10.1850 C.3   1003  TG11003     0.1212
     39  O7         9.6660  -17.1980   15.2510 O.3   1003  TG11003    -0.4493
     40  C27       10.0730  -16.3520   16.3590 C.2   1003  TG11003     0.3169
     41  O8         9.2260  -15.8510   17.0830 O.2   1003  TG11003    -0.2501
     42  C28       11.5560  -16.1280   16.5630 C.3   1003  TG11003     0.1096
     43  C29       11.8680  -15.5140   17.9210 C.3   1003  TG11003     0.0116
     44  C30       13.1960  -16.0260   18.4300 C.3   1003  TG11003     0.0006
     45  O6         6.9660  -19.6630   15.0640 O.3   1003  TG11003    -0.2147
     46  O11        9.7090  -18.8840   17.3100 O.3   1003  TG11003    -0.2114
@<TRIPOS>BOND
     1    18    17    1
     2    17    16    1
     3    16    15    1
     4    15    14    1
     5    14    13    1
     6    24    23    1
     7    25    23    2
     8    25    26    1
     9    13    12    1
    10    23    21    1
    11    22    21    1
    12    11    10    2
    13    21    20    1
    14    12    10    1
    15    10     9    1
    16    20    19    1
    17    38    36    1
    18    19     8    1
    19    19    27    1
    20     9     8    1
    21     8     7    1
    22    36    35    1
    23    36    37    2
    24    35     6    1
    25    27    28    1
    26    27    29    2
    27    34     6    1
    28     7     6    1
    29     7    29    1
    30     6     5    1
    31    29    30    1
    32     5     4    1
    33    30    31    1
    34    30     3    1
    35    31    32    1
    36    45     3    1
    37    39     4    1
    38    39    40    1
    39     4     3    1
    40     3     2    1
    41    32     2    1
    42    32    33    2
    43    40    42    1
    44    40    41    2
    45    42    43    1
    46     2    46    1
    47     2     1    1
    48    43    44    1
