@<TRIPOS>MOLECULE
2eau_CZA_A_1.pdb
 25 29 0 0 0
SMALL
GASTEIGER

@<TRIPOS>ATOM
      1  O2         8.1420   13.5590   87.5820 O.2   1005  CZA1005    -0.2937
      2  C6         7.2380   13.9040   86.7920 C.2   1005  CZA1005     0.1796
      3  C3         5.9340   13.3590   86.5970 C.3   1005  CZA1005     0.1658
      4  C2         5.4010   12.3190   87.2600 C.3   1005  CZA1005     0.1677
      5  O1         6.2540   11.3810   87.8740 O.3   1005  CZA1005    -0.2222
      6  C1         4.0000   12.1360   87.4210 C.3   1005  CZA1005     0.0365
      7  C5         7.3830   15.0910   85.8640 C.3   1005  CZA1005     0.1369
      8  C7         8.4920   15.0380   84.7620 C.3   1005  CZA1005     0.0477
      9  C15        9.5200   16.1360   84.9110 C.2   1005  CZA1005    -0.0144
     10  C16       10.2770   16.5680   85.9580 C.2   1005  CZA1005     0.0907
     11  N2        11.0530   17.6410   85.5380 N.2   1005  CZA1005    -0.2482
     12  C17       10.7670   17.9050   84.1850 C.2   1005  CZA1005     0.0662
     13  C14        9.8060   16.9560   83.8110 C.3   1005  CZA1005     0.0783
     14  C18       11.2620   18.8550   83.3030 C.2   1005  CZA1005     0.0153
     15  C19       10.7220   18.8310   82.0250 C.2   1005  CZA1005     0.0006
     16  C20        9.7260   17.8780   81.6270 C.2   1005  CZA1005    -0.0078
     17  C13        9.3200   16.9160   82.5130 C.2   1005  CZA1005    -0.0352
     18  C12        8.3960   15.7660   82.2130 C.3   1005  CZA1005     0.0247
     19  C8         7.6630   15.1140   83.4130 C.3   1005  CZA1005     0.0266
     20  C9         6.3120   15.7220   83.7870 C.3   1005  CZA1005     0.0613
     21  C10        6.3430   17.2520   83.9700 C.3   1005  CZA1005     0.0199
     22  C11        5.2380   15.3090   82.7790 C.3   1005  CZA1005     0.0199
     23  N1         6.1070   15.0900   85.1160 N.am  1005  CZA1005    -0.2769
     24  C4         5.2780   14.0930   85.5100 C.2   1005  CZA1005     0.2350
     25  O3         4.1670   13.8170   85.0490 O.2   1005  CZA1005    -0.2743
@<TRIPOS>BOND
     1    16    15    1
     2    16    17    2
     3    15    14    2
     4    18    17    1
     5    18    19    1
     6    17    13    1
     7    22    20    1
     8    14    12    1
     9    19    20    1
    10    19     8    1
    11    20    21    1
    12    20    23    1
    13    13    12    1
    14    13     9    1
    15    12    11    2
    16     8     9    1
    17     8     7    1
    18     9    10    2
    19    25    24    2
    20    23    24   am
    21    23     7    1
    22    24     3    1
    23    11    10    1
    24     7     2    1
    25     3     2    1
    26     3     4    1
    27     2     1    2
    28     4     6    1
    29     4     5    1
