@<TRIPOS>MOLECULE
2eax_AMV_L_1.pdb
 19 19 0 0 0
SMALL
GASTEIGER

@<TRIPOS>ATOM
      1  C1        13.8120  -11.3180   47.6840 C.3   501  AMV501      0.2583
      2  C2        12.6480  -10.4070   48.0800 C.3   501  AMV501      0.1784
      3  C3        13.1050   -9.3630   49.1020 C.3   501  AMV501      0.1430
      4  C4        13.7960  -10.0470   50.2700 C.3   501  AMV501      0.0639
      5  C5        14.9010  -10.9480   49.7380 C.3   501  AMV501      0.1532
      6  C6        15.6370  -11.6550   50.8780 C.3   501  AMV501      0.2115
      7  C7        11.0630  -10.1340   46.2310 C.2   501  AMV501      0.2420
      8  C8        10.7260   -9.3370   44.9690 C.3   501  AMV501      0.0964
      9  C9        11.6440   -7.5640   48.6660 C.3   501  AMV501      0.1794
     10  C10       10.2240   -7.0590   48.9320 C.2   501  AMV501      0.2366
     11  C11       12.6320   -6.4090   48.8420 C.3   501  AMV501      0.0406
     12  O1        13.3240  -12.3200   46.7800 O.3   501  AMV501     -0.3265
     13  O3        11.9770   -8.6160   49.5830 O.3   501  AMV501     -0.3488
     14  O5        14.3480  -11.9410   48.8600 O.3   501  AMV501     -0.3289
     15  O6        16.7090  -12.4380   50.3460 O.3   501  AMV501     -0.2177
     16  O7        10.3700  -11.0860   46.5830 O.2   501  AMV501     -0.2733
     17  O11        9.6970   -6.3460   48.0790 O.2   501  AMV501     -0.2856
     18  N2        12.1570   -9.7300   46.8710 N.am  501  AMV501     -0.1995
     19  C12       14.3900  -13.1970   46.4070 C.3   501  AMV501      0.1769
@<TRIPOS>BOND
     1     8     7    1
     2     7    16    2
     3     7    18   am
     4    19    12    1
     5    12     1    1
     6    18     2    1
     7     1     2    1
     8     1    14    1
     9    17    10    2
    10     2     3    1
    11     9    11    1
    12     9    10    1
    13     9    13    1
    14    14     5    1
    15     3    13    1
    16     3     4    1
    17     5     4    1
    18     5     6    1
    19    15     6    1
