@<TRIPOS>MOLECULE
2eax_III_L_1.pdb
 34 33 0 0 0
SMALL
GASTEIGER

@<TRIPOS>ATOM
      1  N          9.6140   -7.3980   50.0660 N.3   502  ALA502     -0.1231
      2  CA         8.2460   -6.9580   50.3820 C.3   502  ALA502      0.1694
      3  C          8.0170   -6.9450   51.8950 C.2   502  ALA502      0.2593
      4  O          8.8370   -7.4400   52.6670 O.2   502  ALA502     -0.2718
      5  CB         7.2430   -7.9130   49.7320 C.3   502  ALA502      0.0304
      6  N          6.8770   -6.3800   52.2830 N.am  503  FGA503     -0.1944
      7  CA         6.4820   -6.2760   53.6960 C.3   503  FGA503      0.1983
      8  C          7.4370   -5.3300   54.4260 C.2   503  FGA503      0.3842
      9  O          7.0320   -4.1660   54.6330 O.co2 503  FGA503     -0.2437
     10  CB         5.0590   -5.7210   53.7920 C.3   503  FGA503      0.0429
     11  CG         4.0490   -6.6770   53.1550 C.3   503  FGA503      0.0892
     12  CD         2.6580   -6.0460   53.0670 C.2   503  FGA503      0.2418
     13  OE1        2.5120   -4.8600   52.7770 O.2   503  FGA503     -0.2733
     14  OXT        8.5480   -5.7960   54.7600 O.co2 503  FGA503     -0.2437
     15  N          1.6510   -6.8770   53.3220 N.am  504  LYS504     -0.1978
     16  CA         0.2480   -6.4430   53.2660 C.3   504  LYS504      0.1727
     17  C         -0.2920   -6.1780   54.6720 C.2   504  LYS504      0.2616
     18  O          0.0180   -6.8890   55.6260 O.2   504  LYS504     -0.2715
     19  CB        -0.5930   -7.5300   52.5930 C.3   504  LYS504      0.0311
     20  CG        -0.4690   -8.8590   53.3410 C.3   504  LYS504      0.0038
     21  CD        -1.2800   -9.9560   52.6470 C.3   504  LYS504      0.0206
     22  CE        -1.1160  -11.2930   53.3720 C.3   504  LYS504      0.1093
     23  NZ        -1.8870  -12.3290   52.6690 N.3   504  LYS504     -0.1314
     24  N         -1.1070   -5.1320   54.7560 N.am  505  DAL505     -0.1963
     25  CA        -1.7290   -4.7350   56.0260 C.3   505  DAL505      0.1728
     26  CB        -3.0640   -5.4690   56.1660 C.3   505  DAL505      0.0334
     27  C         -1.9920   -3.2290   56.0220 C.2   505  DAL505      0.2617
     28  O         -1.7020   -2.5350   56.9950 O.2   505  DAL505     -0.2715
     29  N         -2.5410   -2.7660   54.9020 N.am  506  DAL506     -0.1942
     30  CA        -2.8840   -1.3500   54.7110 C.3   506  DAL506      0.1979
     31  CB        -4.3730   -1.2520   54.3710 C.3   506  DAL506      0.0356
     32  C         -2.0620   -0.7600   53.5640 C.2   506  DAL506      0.3842
     33  O         -2.6290   -0.6480   52.4560 O.co2 506  DAL506     -0.2437
     34  OXT       -0.8850   -0.4260   53.8210 O.co2 506  DAL506     -0.2437
@<TRIPOS>BOND
     1     5     2    1
     2     1     2    1
     3     2     3    1
     4     3     6   am
     5     3     4    2
     6     6     7    1
     7    33    32   ar
     8    19    16    1
     9    19    20    1
    10    21    20    1
    11    21    22    1
    12    23    22    1
    13    13    12    2
    14    12    11    1
    15    12    15   am
    16    11    10    1
    17    16    15    1
    18    16    17    1
    19    32    34   ar
    20    32    30    1
    21     7    10    1
    22     7     8    1
    23    31    30    1
    24     8     9   ar
    25     8    14   ar
    26    17    24   am
    27    17    18    2
    28    30    29    1
    29    24    25    1
    30    29    27   am
    31    27    25    1
    32    27    28    2
    33    25    26    1
