@<TRIPOS>MOLECULE
2eb3_ANP_A_1.pdb
 31 33 0 0 0
SMALL
GASTEIGER

@<TRIPOS>ATOM
      1  PG        27.8770  -47.6110    4.6490 P.3   2001  ANP2001     0.4884
      2  O1G       27.4510  -48.9820    4.2880 O.3   2001  ANP2001    -0.1240
      3  O2G       28.0780  -46.6730    3.3560 O.2   2001  ANP2001    -0.2331
      4  O3G       29.2910  -47.6060    5.4190 O.3   2001  ANP2001    -0.1240
      5  PB        25.2980  -47.1450    5.1910 P.3   2001  ANP2001     0.4669
      6  O1B       24.9660  -48.5840    5.3050 O.2   2001  ANP2001    -0.2351
      7  O2B       24.3910  -46.2390    6.1620 O.3   2001  ANP2001    -0.1253
      8  N3B       26.8330  -46.8300    5.6170 N.3   2001  ANP2001    -0.0163
      9  PA        25.0290  -47.4660    2.4040 P.3   2001  ANP2001     0.2220
     10  O1A       25.7420  -46.8620    1.2560 O.2   2001  ANP2001    -0.5170
     11  O2A       25.6610  -48.8890    2.8200 O.3   2001  ANP2001    -0.4370
     12  O3A       25.0980  -46.5290    3.7150 O.3   2001  ANP2001    -0.2360
     13  O5'       23.4640  -47.7230    2.1170 O.3   2001  ANP2001    -0.3111
     14  C5'       22.6100  -46.6310    1.7660 C.3   2001  ANP2001     0.1813
     15  C4'       21.1600  -47.0820    1.5670 C.3   2001  ANP2001     0.1821
     16  O4'       21.1300  -48.0850    0.5340 O.3   2001  ANP2001    -0.3135
     17  C3'       20.6680  -47.7720    2.8410 C.3   2001  ANP2001     0.2184
     18  O3'       19.2390  -47.8100    2.8640 O.3   2001  ANP2001    -0.2174
     19  C2'       21.2290  -49.1740    2.6110 C.3   2001  ANP2001     0.2570
     20  O2'       20.5130  -50.0990    3.4330 O.3   2001  ANP2001    -0.2130
     21  C1'       20.8300  -49.3520    1.1450 C.3   2001  ANP2001     0.3186
     22  N9        21.5800  -50.4490    0.4850 N.pl3 2001  ANP2001    -0.1439
     23  C8        22.8810  -50.6910    0.6300 C.3   2001  ANP2001     0.3377
     24  N7        23.2340  -51.7390   -0.1110 N.2   2001  ANP2001    -0.2095
     25  C5        22.1450  -52.1760   -0.7360 C.2   2001  ANP2001     0.2526
     26  C6        21.9030  -53.2150   -1.6250 C.2   2001  ANP2001     0.4393
     27  N6        22.8840  -54.0440   -1.9730 N.pl3 2001  ANP2001     0.2180
     28  N1        20.6580  -53.3850   -2.0980 N.2   2001  ANP2001     0.0021
     29  C2        19.6810  -52.5850   -1.7190 C.3   2001  ANP2001     0.5254
     30  N3        19.8760  -51.5870   -0.8690 N.2   2001  ANP2001    -0.0055
     31  C4        21.0930  -51.3550   -0.3590 C.2   2001  ANP2001     0.3518
@<TRIPOS>BOND
     1    28    29    1
     2    28    26    2
     3    27    26    1
     4    29    30    1
     5    26    25    1
     6    30    31    2
     7    25    31    1
     8    25    24    2
     9    31    22    1
    10    24    23    1
    11    22    23    1
    12    22    21    1
    13    16    21    1
    14    16    15    1
    15    21    19    1
    16    10     9    2
    17    15    14    1
    18    15    17    1
    19    14    13    1
    20    13     9    1
    21     9    11    1
    22     9    12    1
    23    19    17    1
    24    19    20    1
    25    17    18    1
    26     3     1    2
    27    12     5    1
    28     2     1    1
    29     1     4    1
    30     1     8    1
    31     5     6    2
    32     5     8    1
    33     5     7    1
