@<TRIPOS>MOLECULE
2eb8_CUP_A_1.pdb
 21 24 0 0 0
SMALL
GASTEIGER

@<TRIPOS>ATOM
      1  O3        -0.4060    6.2040   -1.7910 O.2   1001  CUP1001     0.0000
      2  C8         0.1330    5.5980   -0.8700 C.2   1001  CUP1001     0.0000
      3  O2         1.2070    4.6610   -1.0810 O.3   1001  CUP1001     0.0000
      4  C9        -0.2260    5.8060    0.5740 C.3   1001  CUP1001     0.0000
      5  C10        0.7240    6.9210    1.0420 C.3   1001  CUP1001     0.0000
      6  C11        0.5170    7.4050    2.4560 C.ar  1001  CUP1001     0.0000
      7  C16       -0.6230    8.1490    2.7900 C.ar  1001  CUP1001     0.0000
      8  C15       -0.8060    8.5920    4.1090 C.ar  1001  CUP1001     0.0000
      9  C14        0.1640    8.2930    5.0710 C.ar  1001  CUP1001     0.0000
     10  C13        1.2990    7.5420    4.7480 C.ar  1001  CUP1001     0.0000
     11  C12        1.4870    7.1050    3.4210 C.ar  1001  CUP1001     0.0000
     12  N1         0.0780    4.6270    1.4070 N.pl3 1001  CUP1001     0.0000
     13 CU1         1.5200    3.4890    0.8720 Cu    1001  CUP1001     0.0000
     14  C1        -0.6080    4.4220    2.4570 C.2   1001  CUP1001     0.0000
     15  C2        -0.5610    3.2750    3.3980 C.2   1001  CUP1001     0.0000
     16  C7         0.3400    2.2130    3.3490 C.3   1001  CUP1001     0.0000
     17  O1         1.3470    2.1260    2.4390 O.3   1001  CUP1001     0.0000
     18  C6         0.2510    1.1920    4.3100 C.2   1001  CUP1001     0.0000
     19  C5        -0.7350    1.2150    5.2800 C.2   1001  CUP1001     0.0000
     20  C4        -1.6300    2.2710    5.3250 C.2   1001  CUP1001     0.0000
     21  C3        -1.5450    3.2920    4.3940 C.2   1001  CUP1001     0.0000
@<TRIPOS>BOND
     1     1     2    2
     2     3     2    1
     3     3    13    1
     4     2     4    1
     5     4     5    1
     6     4    12    1
     7    13    12    1
     8    13    17    1
     9     5     6    1
    10    12    14    1
    11    17    16    1
    12     6     7   ar
    13     6    11   ar
    14    14    15    2
    15     7     8   ar
    16    16    15    1
    17    16    18    1
    18    15    21    1
    19    11    10   ar
    20     8     9   ar
    21    18    19    2
    22    21    20    2
    23    10     9   ar
    24    19    20    1
