@<TRIPOS>MOLECULE
2eb9_CUS_A_1.pdb
 18 20 0 0 0
SMALL
GASTEIGER

@<TRIPOS>ATOM
      1  O2         2.2820    6.0390    1.8750 O.3   1001  CUS1001     0.0000
      2  C8         1.3290    6.7490    2.7240 C.2   1001  CUS1001     0.0000
      3  O3         1.0370    7.9150    2.4960 O.2   1001  CUS1001     0.0000
      4  C9         0.7620    5.9720    3.8810 C.3   1001  CUS1001     0.0000
      5  C10        1.7560    6.1380    5.0290 C.3   1001  CUS1001     0.0000
      6  C11        1.3580    7.1380    6.1070 C.3   1001  CUS1001     0.0000
      7  C16        1.2060    6.4080    7.4310 C.3   1001  CUS1001     0.0000
      8  C12        2.4080    8.2400    6.2410 C.3   1001  CUS1001     0.0000
      9  N1         0.8070    4.5350    3.5640 N.pl3 1001  CUS1001     0.0000
     10 CU1         2.1400    3.9330    2.1330 Cu    1001  CUS1001     0.0000
     11  C1         0.0640    3.7230    4.1810 C.2   1001  CUS1001     0.0000
     12  C2        -0.0050    2.2530    4.0230 C.2   1001  CUS1001     0.0000
     13  C7         0.7870    1.4740    3.1710 C.3   1001  CUS1001     0.0000
     14  O1         1.7570    1.9720    2.3490 O.3   1001  CUS1001     0.0000
     15  C6         0.6120    0.0860    3.1170 C.2   1001  CUS1001     0.0000
     16  C5        -0.3560   -0.5230    3.9060 C.2   1001  CUS1001     0.0000
     17  C4        -1.1490    0.2490    4.7600 C.2   1001  CUS1001     0.0000
     18  C3        -0.9690    1.6220    4.8140 C.2   1001  CUS1001     0.0000
@<TRIPOS>BOND
     1     1    10    1
     2     1     2    1
     3    10    14    1
     4    10     9    1
     5    14    13    1
     6     3     2    2
     7     2     4    1
     8    15    13    1
     9    15    16    2
    10    13    12    1
    11     9     4    1
    12     9    11    1
    13     4     5    1
    14    16    17    1
    15    12    11    2
    16    12    18    1
    17    17    18    2
    18     5     6    1
    19     6     8    1
    20     6     7    1
