@<TRIPOS>MOLECULE
2ebf_TRE_X_1.pdb
 23 24 0 0 0
SMALL
GASTEIGER

@<TRIPOS>ATOM
      1  C1        17.3410   55.4810   53.5910 C.3   1414  TRE1414     0.2713
      2  C2        16.6470   54.6170   52.5370 C.3   1414  TRE1414     0.2406
      3  C3        17.4960   54.5320   51.2700 C.3   1414  TRE1414     0.2198
      4  C4        17.8440   55.9320   50.7510 C.3   1414  TRE1414     0.2144
      5  C5        18.4250   56.8240   51.8470 C.3   1414  TRE1414     0.1835
      6  C6        18.4570   58.2700   51.3670 C.3   1414  TRE1414     0.2142
      7  O1        18.5080   54.8120   54.0760 O.3   1414  TRE1414    -0.3016
      8  O2        16.3830   53.3070   53.0640 O.3   1414  TRE1414    -0.2149
      9  O3        16.7750   53.8060   50.2710 O.3   1414  TRE1414    -0.2174
     10  O4        18.8040   55.8350   49.6880 O.3   1414  TRE1414    -0.2176
     11  O5        17.6600   56.7720   53.0580 O.3   1414  TRE1414    -0.3256
     12  O6        19.2120   59.0640   52.2890 O.3   1414  TRE1414    -0.2176
     13  C1P       18.9500   55.2980   55.3460 C.3   1414  TRE1414     0.2713
     14  C2P       20.4450   55.0040   55.5110 C.3   1414  TRE1414     0.2406
     15  C3P       20.6830   53.4940   55.6030 C.3   1414  TRE1414     0.2198
     16  C4P       19.8260   52.8710   56.7110 C.3   1414  TRE1414     0.2144
     17  C5P       18.3430   53.2640   56.5830 C.3   1414  TRE1414     0.1835
     18  C6P       17.5200   52.8270   57.8010 C.3   1414  TRE1414     0.2142
     19  O2P       21.2080   55.5640   54.4280 O.3   1414  TRE1414    -0.2149
     20  O3P       22.0660   53.2450   55.8720 O.3   1414  TRE1414    -0.2174
     21  O4P       19.9900   51.4500   56.7050 O.3   1414  TRE1414    -0.2176
     22  O5P       18.1890   54.6820   56.4050 O.3   1414  TRE1414    -0.3256
     23  O6P       17.8830   53.5590   58.9860 O.3   1414  TRE1414    -0.2176
@<TRIPOS>BOND
     1    10     4    1
     2     9     3    1
     3     4     3    1
     4     4     5    1
     5     3     2    1
     6     6     5    1
     7     6    12    1
     8     5    11    1
     9     2     8    1
    10     2     1    1
    11    11     1    1
    12     1     7    1
    13     7    13    1
    14    19    14    1
    15    13    14    1
    16    13    22    1
    17    14    15    1
    18    15    20    1
    19    15    16    1
    20    22    17    1
    21    17    16    1
    22    17    18    1
    23    21    16    1
    24    18    23    1
