@<TRIPOS>MOLECULE
2ebh_TRE_X_1.pdb
 23 24 0 0 0
SMALL
GASTEIGER

@<TRIPOS>ATOM
      1  C1        18.4730   55.5950   54.5110 C.3   1414  TRE1414     0.2713
      2  C2        17.7640   54.6700   53.5140 C.3   1414  TRE1414     0.2406
      3  C3        18.4690   54.6140   52.1550 C.3   1414  TRE1414     0.2198
      4  C4        18.8890   55.9960   51.6450 C.3   1414  TRE1414     0.2144
      5  C5        19.5310   56.8580   52.7340 C.3   1414  TRE1414     0.1835
      6  C6        19.7030   58.2980   52.2620 C.3   1414  TRE1414     0.2142
      7  O1        19.6830   55.0020   54.9880 O.3   1414  TRE1414    -0.3016
      8  O2        17.6600   53.3500   54.0650 O.3   1414  TRE1414    -0.2149
      9  O3        17.5880   54.0100   51.1980 O.3   1414  TRE1414    -0.2174
     10  O4        19.8230   55.8320   50.5690 O.3   1414  TRE1414    -0.2176
     11  O5        18.7230   56.8710   53.9140 O.3   1414  TRE1414    -0.3256
     12  O6        20.4530   59.0320   53.2360 O.3   1414  TRE1414    -0.2176
     13  C1P       20.0560   55.4620   56.2910 C.3   1414  TRE1414     0.2713
     14  C2P       21.5470   55.2090   56.5150 C.3   1414  TRE1414     0.2406
     15  C3P       21.8270   53.7070   56.5970 C.3   1414  TRE1414     0.2198
     16  C4P       20.9610   53.0550   57.6770 C.3   1414  TRE1414     0.2144
     17  C5P       19.4780   53.4070   57.4920 C.3   1414  TRE1414     0.1835
     18  C6P       18.6170   52.9200   58.6580 C.3   1414  TRE1414     0.2142
     19  O2P       22.3050   55.7930   55.4510 O.3   1414  TRE1414    -0.2149
     20  O3P       23.2170   53.4830   56.8650 O.3   1414  TRE1414    -0.2174
     21  O4P       21.1460   51.6350   57.6390 O.3   1414  TRE1414    -0.2176
     22  O5P       19.2830   54.8230   57.3260 O.3   1414  TRE1414    -0.3256
     23  O6P       18.9300   53.6290   59.8620 O.3   1414  TRE1414    -0.2176
@<TRIPOS>BOND
     1    10     4    1
     2     9     3    1
     3     4     3    1
     4     4     5    1
     5     3     2    1
     6     6     5    1
     7     6    12    1
     8     5    11    1
     9     2     8    1
    10     2     1    1
    11    11     1    1
    12     1     7    1
    13     7    13    1
    14    19    14    1
    15    13    14    1
    16    13    22    1
    17    14    15    1
    18    15    20    1
    19    15    16    1
    20    22    17    1
    21    17    16    1
    22    17    18    1
    23    21    16    1
    24    18    23    1
