@<TRIPOS>MOLECULE
2ec9_ASO_L_1.pdb
 11 11 0 0 0
SMALL
GASTEIGER

@<TRIPOS>ATOM
      1  C1        38.2820   35.0570   61.8540 C.3   1052  ASO1052     0.1777
      2  C2        37.7780   34.6390   60.4830 C.3   1052  ASO1052     0.2141
      3  C3        38.7000   33.5570   59.8710 C.3   1052  ASO1052     0.2173
      4  C4        38.7170   32.3020   60.7700 C.3   1052  ASO1052     0.2142
      5  C5        38.3240   32.7010   62.2020 C.3   1052  ASO1052     0.1810
      6  C6        38.7900   31.6970   63.2140 C.3   1052  ASO1052     0.2141
      7  O2        37.7320   35.8240   59.7040 O.3   1052  ASO1052    -0.2176
      8  O3        40.0230   34.0770   59.8850 O.3   1052  ASO1052    -0.2175
      9  O4        40.0050   31.6790   60.7080 O.3   1052  ASO1052    -0.2176
     10  O5        38.8570   33.9620   62.5770 O.3   1052  ASO1052    -0.3481
     11  O6        38.5380   32.2190   64.4820 O.3   1052  ASO1052    -0.2176
@<TRIPOS>BOND
     1     7     2    1
     2     3     8    1
     3     3     2    1
     4     3     4    1
     5     2     1    1
     6     9     4    1
     7     4     5    1
     8     1    10    1
     9     5    10    1
    10     5     6    1
    11     6    11    1
