@<TRIPOS>MOLECULE
2ec9_24X_H_1.pdb
 35 37 0 0 0
SMALL
GASTEIGER

@<TRIPOS>ATOM
      1  N1        29.9730    6.8420   11.9090 N.ar  999  24X999     -0.2275
      2  C2        29.8640    6.5520   13.2780 C.ar  999  24X999      0.1083
      3  C3        29.1050    7.4330   14.1120 C.ar  999  24X999      0.1167
      4  C4        28.4330    8.5700   13.5780 C.ar  999  24X999      0.0125
      5  C5        28.5510    8.8400   12.1920 C.ar  999  24X999      0.0361
      6  C6        29.3500    8.0000   11.3820 C.ar  999  24X999      0.1478
      7  C7        30.1840    7.5280    9.0830 C.3   999  24X999      0.1401
      8  N2        29.4490    8.3340   10.0530 N.pl3 999  24X999     -0.2154
      9  C8        29.9950    6.8220    6.2060 C.ar  999  24X999      0.0061
     10  C17       30.6940    5.7340    5.6310 C.ar  999  24X999      0.0003
     11  C21       29.9900    4.6090    5.1960 C.ar  999  24X999      0.0046
     12  C23       28.6070    4.5210    5.3150 C.ar  999  24X999      0.0552
     13  C26       27.8800    5.5920    5.8850 C.ar  999  24X999      0.0111
     14  C29       28.5830    6.7460    6.3270 C.ar  999  24X999      0.0799
     15  C9        27.7950    7.8590    6.8900 C.2   999  24X999      0.3878
     16  O2        27.0320    7.6750    7.8460 O.co2 999  24X999     -0.2406
     17  O1        27.9340    8.9600    6.3350 O.co2 999  24X999     -0.2406
     18  C10       27.9870    3.2740    4.8140 C.2   999  24X999      0.2648
     19  N3        26.6200    3.4070    4.2840 N.am  999  24X999     -0.2017
     20  O4        28.6560    2.0330    4.8710 O.2   999  24X999     -0.2684
     21  C11       25.9460    2.1060    4.4260 C.3   999  24X999      0.1154
     22  C18       24.4910    2.3620    4.8250 C.3   999  24X999      0.0217
     23  C12       24.4100    3.0900    6.1730 C.3   999  24X999      0.0018
     24  C13       23.7880    3.1510    3.6880 C.3   999  24X999      0.0018
     25  C14       28.9890    7.1630   15.5560 C.2   999  24X999      0.4781
     26  N4        28.4630    8.1220   16.3890 N.pl3 999  24X999      0.2048
     27  N5        29.4300    5.9650   16.0670 N.pl3 999  24X999      0.2048
     28  C15       32.2630    9.7760    6.0350 C.ar  999  24X999     -0.0043
     29  C19       32.3320   10.1880    7.3820 C.ar  999  24X999     -0.0224
     30  C22       31.6620    9.4520    8.3780 C.ar  999  24X999     -0.0068
     31  C24       30.8920    8.3200    7.9930 C.ar  999  24X999     -0.0009
     32  C27       30.7810    7.9470    6.6280 C.ar  999  24X999     -0.0021
     33  C30       31.4910    8.6720    5.6450 C.ar  999  24X999     -0.0006
     34  C16       32.6660   12.2510    8.8870 C.3   999  24X999      0.0050
     35  C20       33.1860   11.4110    7.7040 C.3   999  24X999      0.0264
@<TRIPOS>BOND
     1    24    22    1
     2    19    21    1
     3    19    18   am
     4    21    22    1
     5    18    20    2
     6    18    12    1
     7    22    23    1
     8    11    12   ar
     9    11    10   ar
    10    12    13   ar
    11    10     9   ar
    12    33    28   ar
    13    33    32   ar
    14    13    14   ar
    15    28    29   ar
    16     9    14   ar
    17     9    32    1
    18    14    15    1
    19    17    15   ar
    20    32    31   ar
    21    15    16   ar
    22    29    35    1
    23    29    30   ar
    24    35    34    1
    25    31    30   ar
    26    31     7    1
    27     7     8    1
    28     8     6    1
    29     6     1   ar
    30     6     5   ar
    31     1     2   ar
    32     5     4   ar
    33     2     3   ar
    34     4     3   ar
    35     3    25    1
    36    25    27    2
    37    25    26    1
