@<TRIPOS>MOLECULE
2ec9_FUC_L_1.pdb
 10 9 0 0 0
SMALL
GASTEIGER

@<TRIPOS>ATOM
      1  C1        20.3130   31.0280   64.2530 C.3   1060  FUC1060     0.2175
      2  C2        20.5460   32.5150   64.5700 C.3   1060  FUC1060     0.2174
      3  C3        20.8060   33.4930   63.4150 C.3   1060  FUC1060     0.2148
      4  C4        20.3450   33.1300   62.0110 C.3   1060  FUC1060     0.1848
      5  C5        21.4150   32.3250   61.2590 C.3   1060  FUC1060     0.0356
      6  C6        20.9100   31.4560   60.1060 C.3   1060  FUC1060     0.0028
      7  O1        21.2740   30.4660   63.3890 O.3   1060  FUC1060    -0.2175
      8  O2        21.6200   32.7000   65.4790 O.3   1060  FUC1060    -0.2175
      9  O3        20.1320   34.6810   63.7900 O.3   1060  FUC1060    -0.2176
     10  O4        19.0640   32.5470   62.0550 O.3   1060  FUC1060    -0.2203
@<TRIPOS>BOND
     1     6     5    1
     2     5     4    1
     3     4    10    1
     4     4     3    1
     5     7     1    1
     6     3     9    1
     7     3     2    1
     8     1     2    1
     9     2     8    1
