@<TRIPOS>MOLECULE
2eck_AMP_A_1.pdb
 27 29 0 0 0
SMALL
GASTEIGER

@<TRIPOS>ATOM
      1  P         47.5480   65.6070   36.4690 P.3   215  AMP215      0.5327
      2  O1P       48.8070   65.9870   37.1900 O.3   215  AMP215     -0.1145
      3  O2P       47.2940   66.3840   35.2420 O.2   215  AMP215     -0.2224
      4  O3P       47.2900   64.1560   36.2750 O.3   215  AMP215     -0.1145
      5  O5'       46.3810   66.0020   37.4910 O.3   215  AMP215     -0.2675
      6  C5'       45.9720   67.3780   37.5710 C.3   215  AMP215      0.1858
      7  C4'       44.6820   67.5460   38.3380 C.3   215  AMP215      0.1786
      8  O4'       43.6520   66.6560   37.9060 O.3   215  AMP215     -0.3138
      9  C3'       44.9460   67.2240   39.7960 C.3   215  AMP215      0.1737
     10  O3'       45.5330   68.4200   40.4210 O.3   215  AMP215     -0.3793
     11  C2'       43.5690   66.7850   40.2720 C.3   215  AMP215      0.2135
     12  O2'       42.8430   67.9280   40.7670 O.3   215  AMP215     -0.3763
     13  C1'       42.8490   66.3160   39.0240 C.3   215  AMP215      0.3148
     14  N9        42.7810   64.9110   38.8490 N.pl3 215  AMP215     -0.1440
     15  C8        43.3060   64.2430   37.8270 C.3   215  AMP215      0.3377
     16  N7        43.1330   62.9190   37.9620 N.2   215  AMP215     -0.2098
     17  C5        42.4830   62.8300   39.0940 C.2   215  AMP215      0.2438
     18  C6        42.0730   61.6360   39.6080 C.2   215  AMP215      0.3428
     19  N6        42.3150   60.5120   38.9310 N.pl3 215  AMP215     -0.2449
     20  N1        41.4300   61.6960   40.8000 N.2   215  AMP215     -0.0059
     21  C2        41.2190   62.8520   41.3930 C.3   215  AMP215      0.5252
     22  N3        41.6380   64.0000   40.8450 N.2   215  AMP215     -0.0055
     23  C4        42.2730   64.0350   39.6860 C.2   215  AMP215      0.3515
     24 HO3'       45.7420   68.2680   41.3850 H     215  AMP215      0.2105
     25 HO2'       43.3000   68.2770   41.5850 H     215  AMP215      0.2107
     26 HN61       42.7860   60.5460   38.0510 H     215  AMP215      0.2885
     27 HN62       42.0340   59.6260   39.3030 H     215  AMP215      0.2885
@<TRIPOS>BOND
     1     3     1    2
     2     4     1    1
     3     1     2    1
     4     1     5    1
     5     5     6    1
     6     6     7    1
     7    15    16    1
     8    15    14    1
     9     8     7    1
    10     8    13    1
    11    16    17    2
    12    26    19    1
    13     7     9    1
    14    14    13    1
    15    14    23    1
    16    19    27    1
    17    19    18    1
    18    13    11    1
    19    17    18    1
    20    17    23    1
    21    18    20    2
    22    23    22    2
    23     9    11    1
    24     9    10    1
    25    11    12    1
    26    10    24    1
    27    12    25    1
    28    20    21    1
    29    22    21    1
