@<TRIPOS>MOLECULE
2eck_ADP_A_1.pdb
 31 33 0 0 0
SMALL
GASTEIGER

@<TRIPOS>ATOM
      1  PB        53.7730   63.1560   35.1690 P.3   216  ADP216      0.5373
      2  O1B       54.0550   62.0070   36.0620 O.3   216  ADP216     -0.1143
      3  O2B       52.9010   62.8570   34.0180 O.2   216  ADP216     -0.2221
      4  O3B       53.4980   64.4410   35.8180 O.3   216  ADP216     -0.1143
      5  PA        55.5950   64.3030   33.1270 P.3   216  ADP216      0.2231
      6  O1A       55.9370   63.3460   32.1010 O.2   216  ADP216     -0.5169
      7  O2A       54.7570   65.4540   32.8160 O.3   216  ADP216     -0.4370
      8  O3A       55.0990   63.4490   34.3410 O.3   216  ADP216     -0.2261
      9  O5'       57.0110   64.9050   33.6750 O.3   216  ADP216     -0.3111
     10  C5'       57.1750   66.2710   34.0950 C.3   216  ADP216      0.1812
     11  C4'       58.2160   67.1050   33.3600 C.3   216  ADP216      0.1784
     12  O4'       59.4150   66.3740   33.4450 O.3   216  ADP216     -0.3138
     13  C3'       58.0240   67.2870   31.8840 C.3   216  ADP216      0.1737
     14  O3'       58.4520   68.5690   31.6070 O.3   216  ADP216     -0.3793
     15  C2'       58.8600   66.2450   31.2110 C.3   216  ADP216      0.2135
     16  O2'       59.1980   66.5680   29.8840 O.3   216  ADP216     -0.3763
     17  C1'       59.9900   66.1010   32.1630 C.3   216  ADP216      0.3148
     18  N9        60.4950   64.7020   32.3390 N.pl3 216  ADP216     -0.1440
     19  C8        59.8550   63.5450   32.1440 C.3   216  ADP216      0.3377
     20  N7        60.6340   62.4550   32.3190 N.2   216  ADP216     -0.2098
     21  C5        61.7760   62.9900   32.6710 C.2   216  ADP216      0.2438
     22  C6        62.9200   62.2720   32.9630 C.2   216  ADP216      0.3428
     23  N6        62.8490   60.9490   32.9060 N.pl3 216  ADP216     -0.2449
     24  N1        64.0000   62.9770   33.3090 N.2   216  ADP216     -0.0059
     25  C2        63.9590   64.3060   33.3600 C.3   216  ADP216      0.5252
     26  N3        62.8780   64.9720   33.0610 N.2   216  ADP216     -0.0055
     27  C4        61.7380   64.3550   32.6940 C.2   216  ADP216      0.3515
     28 HO3'       58.3030   68.7810   30.6440 H     216  ADP216      0.2105
     29 HO2'       58.3780   66.6180   29.3130 H     216  ADP216      0.2107
     30 HN61       62.0190   60.4920   32.6230 H     216  ADP216      0.2885
     31 HN62       63.6370   60.3670   33.0890 H     216  ADP216      0.2885
@<TRIPOS>BOND
     1    29    16    1
     2    16    15    1
     3    28    14    1
     4    15    13    1
     5    15    17    1
     6    14    13    1
     7    13    11    1
     8     6     5    2
     9    19    20    1
    10    19    18    1
    11    17    18    1
    12    17    12    1
    13    20    21    2
    14    18    27    1
    15    30    23    1
    16    21    27    1
    17    21    22    1
    18    27    26    2
    19     7     5    1
    20    23    22    1
    21    23    31    1
    22    22    24    2
    23    26    25    1
    24     5     9    1
    25     5     8    1
    26    24    25    1
    27    11    12    1
    28    11    10    1
    29     9    10    1
    30     3     1    2
    31     8     1    1
    32     1     4    1
    33     1     2    1
