@<TRIPOS>MOLECULE
2eco_PLP_A_1.pdb
 15 15 0 0 0
SMALL
GASTEIGER

@<TRIPOS>ATOM
      1  N1        72.5080   41.3190    0.4570 N.ar  413  PLP413     -0.2452
      2  C2        72.4070   40.8490    1.7310 C.ar  413  PLP413      0.0978
      3  C2A       73.7050   40.5480    2.5260 C.3   413  PLP413      0.0555
      4  C3        71.1460   40.6540    2.2930 C.ar  413  PLP413      0.2049
      5  O3        71.0260   40.1750    3.5620 O.3   413  PLP413     -0.2857
      6  C4        69.9960   40.9370    1.5560 C.ar  413  PLP413      0.0182
      7  C4A       68.6140   40.7320    2.1860 C.3   413  PLP413      0.0342
      8  C5        70.1130   41.4230    0.2510 C.ar  413  PLP413      0.0261
      9  C6        71.3690   41.6070   -0.2850 C.ar  413  PLP413      0.0965
     10  C5A       68.8670   41.7590   -0.6590 C.3   413  PLP413      0.1815
     11  O4P       67.8310   42.6960   -0.1650 O.3   413  PLP413     -0.2653
     12  P         66.3320   42.2790   -0.5430 P.3   413  PLP413      0.5329
     13  O1P       65.9830   41.0120    0.1500 O.3   413  PLP413     -0.1145
     14  O2P       65.3980   43.4220   -0.0620 O.3   413  PLP413     -0.1145
     15  O3P       66.2820   42.2640   -2.0290 O.2   413  PLP413     -0.2224
@<TRIPOS>BOND
     1    15    12    2
     2    10    11    1
     3    10     8    1
     4    12    11    1
     5    12    14    1
     6    12    13    1
     7     9     8   ar
     8     9     1   ar
     9     8     6   ar
    10     1     2   ar
    11     6     7    1
    12     6     4   ar
    13     2     4   ar
    14     2     3    1
    15     4     5    1
