@<TRIPOS>MOLECULE
2ecq_PLP_A_1.pdb
 15 15 0 0 0
SMALL
GASTEIGER

@<TRIPOS>ATOM
      1  N1        52.7120   -7.1300   13.6420 N.ar  413  PLP413     -0.2452
      2  C2        53.0920   -7.4610   14.9130 C.ar  413  PLP413      0.0978
      3  C2A       53.9780   -6.4730   15.6960 C.3   413  PLP413      0.0555
      4  C3        52.6710   -8.6680   15.4700 C.ar  413  PLP413      0.2049
      5  O3        53.0550   -9.0130   16.7350 O.3   413  PLP413     -0.2857
      6  C4        51.8660   -9.5280   14.7300 C.ar  413  PLP413      0.0182
      7  C4A       51.3810  -10.8530   15.3200 C.3   413  PLP413      0.0342
      8  C5        51.4810   -9.1660   13.4250 C.ar  413  PLP413      0.0261
      9  C6        51.9120   -7.9730   12.9000 C.ar  413  PLP413      0.0965
     10  C5A       50.5820  -10.0710   12.5170 C.3   413  PLP413      0.1815
     11  O4P       49.2560  -10.4970   13.0330 O.3   413  PLP413     -0.2653
     12  P         48.8440  -11.9900   12.6740 P.3   413  PLP413      0.5329
     13  O1P       49.7240  -12.9290   13.4140 O.3   413  PLP413     -0.1145
     14  O2P       47.3740  -12.2050   13.1320 O.3   413  PLP413     -0.1145
     15  O3P       48.8390  -12.0550   11.1960 O.2   413  PLP413     -0.2224
@<TRIPOS>BOND
     1    15    12    2
     2    10    11    1
     3    10     8    1
     4    12    11    1
     5    12    14    1
     6    12    13    1
     7     9     8   ar
     8     9     1   ar
     9     8     6   ar
    10     1     2   ar
    11     6     7    1
    12     6     4   ar
    13     2     4   ar
    14     2     3    1
    15     4     5    1
