@<TRIPOS>MOLECULE
2ed3_SAH_A_1.pdb
 26 28 0 0 0
SMALL
GASTEIGER

@<TRIPOS>ATOM
      1  N         32.9710   92.7020   66.2210 N.3   1301  SAH1301    -0.1208
      2  CA        31.6150   92.0760   66.5730 C.3   1301  SAH1301     0.1952
      3  CB        31.3940   91.6220   67.9830 C.3   1301  SAH1301     0.0422
      4  CG        32.3300   90.6170   68.6220 C.3   1301  SAH1301     0.0597
      5  SD        31.2860   89.5950   69.7360 S.3   1301  SAH1301    -0.1375
      6  C         30.4990   93.1250   66.1600 C.2   1301  SAH1301     0.3819
      7  O         30.8400   94.2110   65.6650 O.co2 1301  SAH1301    -0.2441
      8  OXT       29.2820   92.7720   66.3720 O.co2 1301  SAH1301    -0.2441
      9  C5'       30.6520   88.4070   68.6130 C.3   1301  SAH1301     0.0899
     10  C4'       29.0720   88.3090   68.7630 C.3   1301  SAH1301     0.1630
     11  O4'       28.5070   89.4920   68.1850 O.3   1301  SAH1301    -0.3153
     12  C3'       28.4130   87.1920   68.0530 C.3   1301  SAH1301     0.2168
     13  O3'       28.5720   85.9740   68.7840 O.3   1301  SAH1301    -0.2175
     14  C2'       26.9420   87.7130   67.9370 C.3   1301  SAH1301     0.2569
     15  O2'       26.1180   87.2820   69.0210 O.3   1301  SAH1301    -0.2130
     16  C1'       27.0650   89.2600   67.8240 C.3   1301  SAH1301     0.3185
     17  N9        26.8040   89.7250   66.5860 N.pl3 1301  SAH1301    -0.1439
     18  C8        27.5860   90.1240   65.5180 C.3   1301  SAH1301     0.3377
     19  N7        26.9350   90.5190   64.4630 N.2   1301  SAH1301    -0.2095
     20  C5        25.5610   90.3850   64.8260 C.2   1301  SAH1301     0.2526
     21  C6        24.3410   90.6580   64.0940 C.2   1301  SAH1301     0.4393
     22  N6        24.3100   91.1190   62.8370 N.pl3 1301  SAH1301     0.2180
     23  N1        23.1770   90.4020   64.7910 N.2   1301  SAH1301     0.0021
     24  C2        23.1550   89.9280   66.0680 C.3   1301  SAH1301     0.5254
     25  N3        24.2950   89.6540   66.7960 N.2   1301  SAH1301    -0.0055
     26  C4        25.4590   89.9060   66.1130 C.2   1301  SAH1301     0.3518
@<TRIPOS>BOND
     1    22    21    1
     2    21    23    2
     3    21    20    1
     4    19    20    2
     5    19    18    1
     6    23    24    1
     7    20    26    1
     8    18    17    1
     9     7     6   ar
    10    24    25    1
    11    26    17    1
    12    26    25    2
    13     6     8   ar
    14     6     2    1
    15     1     2    1
    16     2     3    1
    17    17    16    1
    18    16    14    1
    19    16    11    1
    20    14    12    1
    21    14    15    1
    22     3     4    1
    23    12    10    1
    24    12    13    1
    25    11    10    1
    26     9    10    1
    27     9     5    1
    28     4     5    1
