@<TRIPOS>MOLECULE
2ed4_NAD_A_1.pdb
 44 48 0 0 0
SMALL
GASTEIGER

@<TRIPOS>ATOM
      1  PA        20.6880   26.2470   64.3350 P.3   401  NAD401      0.2189
      2  O1A       21.0980   26.2230   65.7570 O.3   401  NAD401     -0.4371
      3  O2A       20.4910   27.5620   63.6830 O.2   401  NAD401     -0.5170
      4  O5B       21.7350   25.3780   63.4730 O.3   401  NAD401     -0.3112
      5  C5B       21.8630   25.5960   62.0640 C.3   401  NAD401      0.1813
      6  C4B       22.9080   24.6690   61.4380 C.3   401  NAD401      0.1821
      7  O4B       24.2320   25.2060   61.6100 O.3   401  NAD401     -0.3135
      8  C3B       22.9210   23.2960   62.1110 C.3   401  NAD401      0.2184
      9  O3B       21.9670   22.4390   61.4770 O.3   401  NAD401     -0.2174
     10  C2B       24.3400   22.8330   61.7900 C.3   401  NAD401      0.2570
     11  O2B       24.4160   22.4040   60.4280 O.3   401  NAD401     -0.2130
     12  C1B       25.1250   24.1350   61.9650 C.3   401  NAD401      0.3186
     13  N9A       25.5360   24.2870   63.3800 N.pl3 401  NAD401     -0.1439
     14  C8A       24.7970   24.8200   64.3530 C.3   401  NAD401      0.3377
     15  N7A       25.4730   24.7910   65.4980 N.2   401  NAD401     -0.2095
     16  C5A       26.6570   24.2380   65.2530 C.2   401  NAD401      0.2526
     17  C6A       27.7660   23.9320   66.0320 C.2   401  NAD401      0.4393
     18  N6A       27.7680   24.2060   67.3340 N.pl3 401  NAD401      0.2180
     19  N1A       28.8310   23.3540   65.4550 N.2   401  NAD401      0.0021
     20  C2A       28.8380   23.0600   64.1640 C.3   401  NAD401      0.5254
     21  N3A       27.8010   23.3370   63.3960 N.2   401  NAD401     -0.0055
     22  C4A       26.7000   23.9230   63.9020 C.2   401  NAD401      0.3518
     23  O3        19.3030   25.4340   64.1850 O.3   401  NAD401     -0.2703
     24  PN        19.2550   23.8250   64.1530 P.3   401  NAD401      0.2189
     25  O1N       19.8390   23.3450   62.8790 O.2   401  NAD401     -0.5170
     26  O2N       17.8880   23.3830   64.5100 O.3   401  NAD401     -0.4371
     27  O5D       20.2560   23.3910   65.3360 O.3   401  NAD401     -0.3112
     28  C5D       19.8100   23.4080   66.6950 C.3   401  NAD401      0.1813
     29  C4D       20.9510   23.0730   67.6570 C.3   401  NAD401      0.1799
     30  O4D       21.2870   21.6790   67.5540 O.3   401  NAD401     -0.3327
     31  C3D       22.2220   23.8370   67.2880 C.3   401  NAD401      0.2158
     32  O3D       22.2590   25.1190   67.9190 O.3   401  NAD401     -0.2175
     33  C2D       23.2990   22.9300   67.8800 C.3   401  NAD401      0.2309
     34  O2D       23.4390   23.1500   69.2860 O.3   401  NAD401     -0.2158
     35  C1D       22.7180   21.5370   67.6290 C.3   401  NAD401      0.2263
     36  N1N       23.2350   20.9840   66.3550 N.pl3 401  NAD401     -0.2787
     37  C2N       24.6100   20.7610   66.2060 C.3   401  NAD401      0.1244
     38  C3N       25.1070   20.2750   65.0000 C.2   401  NAD401      0.0544
     39  C7N       26.6150   20.0500   64.8610 C.2   401  NAD401      0.2818
     40  O7N       27.3680   20.2280   65.8170 O.2   401  NAD401     -0.2670
     41  N7N       27.0200   19.6350   63.6630 N.am  401  NAD401     -0.0839
     42  C4N       24.1610   19.9350   63.8420 C.2   401  NAD401      0.0033
     43  C5N       22.8580   20.3860   64.0390 C.2   401  NAD401      0.0157
     44  C6N       22.3590   20.6870   65.3020 C.2   401  NAD401      0.0633
@<TRIPOS>BOND
     1    11    10    1
     2     6     7    1
     3     6     5    1
     4     6     8    1
     5     9     8    1
     6     7    12    1
     7    10    12    1
     8    10     8    1
     9    12    13    1
    10     5     4    1
    11    25    24    2
    12    13    22    1
    13    13    14    1
    14    21    22    2
    15    21    20    1
    16     4     1    1
    17    41    39   am
    18     3     1    2
    19    42    43    1
    20    42    38    2
    21    22    16    1
    22    43    44    2
    23    24    23    1
    24    24    26    1
    25    24    27    1
    26    20    19    1
    27    23     1    1
    28     1     2    1
    29    14    15    1
    30    39    38    1
    31    39    40    2
    32    38    37    1
    33    16    15    2
    34    16    17    1
    35    44    36    1
    36    27    28    1
    37    19    17    2
    38    17    18    1
    39    37    36    1
    40    36    35    1
    41    28    29    1
    42    31    29    1
    43    31    33    1
    44    31    32    1
    45    30    35    1
    46    30    29    1
    47    35    33    1
    48    33    34    1
