@<TRIPOS>MOLECULE
2ed5_SAH_A_1.pdb
 26 28 0 0 0
SMALL
GASTEIGER

@<TRIPOS>ATOM
      1  N         33.8140   93.2020   67.3610 N.3   1301  SAH1301    -0.1208
      2  CA        32.3990   92.6900   67.1200 C.3   1301  SAH1301     0.1952
      3  CB        31.7380   91.9340   68.2380 C.3   1301  SAH1301     0.0422
      4  CG        32.4070   90.6840   68.7980 C.3   1301  SAH1301     0.0597
      5  SD        31.2380   89.9500   70.0240 S.3   1301  SAH1301    -0.1375
      6  C         31.5220   93.9520   66.7110 C.2   1301  SAH1301     0.3819
      7  O         32.0650   95.0730   66.6710 O.co2 1301  SAH1301    -0.2441
      8  OXT       30.2730   93.7230   66.4410 O.co2 1301  SAH1301    -0.2441
      9  C5'       30.2930   88.9070   68.9820 C.3   1301  SAH1301     0.0899
     10  C4'       28.8330   88.7600   69.5820 C.3   1301  SAH1301     0.1630
     11  O4'       28.1760   90.0390   69.4080 O.3   1301  SAH1301    -0.3153
     12  C3'       27.9680   87.7310   68.9260 C.3   1301  SAH1301     0.2168
     13  O3'       28.0860   86.4750   69.5800 O.3   1301  SAH1301    -0.2175
     14  C2'       26.5660   88.3710   69.0260 C.3   1301  SAH1301     0.2569
     15  O2'       25.9400   88.0770   70.2810 O.3   1301  SAH1301    -0.2130
     16  C1'       26.8240   89.8720   68.7870 C.3   1301  SAH1301     0.3185
     17  N9        26.8270   90.2410   67.4840 N.pl3 1301  SAH1301    -0.1439
     18  C8        27.8100   90.5400   66.5540 C.3   1301  SAH1301     0.3377
     19  N7        27.3760   90.8620   65.3720 N.2   1301  SAH1301    -0.2095
     20  C5        25.9580   90.7860   65.4830 C.2   1301  SAH1301     0.2526
     21  C6        24.9090   91.0300   64.5200 C.2   1301  SAH1301     0.4393
     22  N6        25.1300   91.3960   63.2470 N.pl3 1301  SAH1301     0.2180
     23  N1        23.6280   90.8550   65.0010 N.2   1301  SAH1301     0.0021
     24  C2        23.3520   90.4790   66.2830 C.3   1301  SAH1301     0.5254
     25  N3        24.3270   90.2380   67.2260 N.2   1301  SAH1301    -0.0055
     26  C4        25.6030   90.4110   66.7560 C.2   1301  SAH1301     0.3518
@<TRIPOS>BOND
     1    22    21    1
     2    21    23    2
     3    21    20    1
     4    23    24    1
     5    19    20    2
     6    19    18    1
     7    20    26    1
     8    24    25    1
     9     8     6   ar
    10    18    17    1
    11     7     6   ar
    12     6     2    1
    13    26    25    2
    14    26    17    1
    15     2     1    1
    16     2     3    1
    17    17    16    1
    18     3     4    1
    19    16    14    1
    20    16    11    1
    21     4     5    1
    22    12    14    1
    23    12    13    1
    24    12    10    1
    25     9    10    1
    26     9     5    1
    27    14    15    1
    28    11    10    1
