@<TRIPOS>MOLECULE
2eep_AIO_A_1.pdb
 21 21 0 0 0
SMALL
GASTEIGER

@<TRIPOS>ATOM
      1  O2        -7.2690   43.5860   67.0440 O.2   801  AIO801      0.0000
      2  C9        -7.4960   43.4970   65.8620 C.2   801  AIO801      0.0000
      3  C4        -7.0760   44.6040   64.9320 C.3   801  AIO801      0.0000
      4  C5        -5.5370   44.5690   64.9420 C.3   801  AIO801      0.0000
      5  C7        -4.8600   45.6980   64.1670 C.3   801  AIO801      0.0000
      6  C8        -5.1740   45.6940   62.7070 C.3   801  AIO801      0.0000
      7  C6        -4.9800   43.2060   64.5100 C.3   801  AIO801      0.0000
      8  N2        -7.4780   45.8550   65.5150 N.am  801  AIO801      0.0000
      9  C3        -8.6960   46.3900   65.3370 C.2   801  AIO801      0.0000
     10  O1        -9.6350   45.7640   64.8660 O.2   801  AIO801      0.0000
     11  C1        -8.8930   47.8280   65.7670 C.3   801  AIO801      0.0000
     12  C2        -9.3030   47.7630   67.2480 C.3   801  AIO801      0.0000
     13  N1        -9.9680   48.4590   64.9700 N.3   801  AIO801      0.0000
     14  N3        -8.1170   42.4260   65.4310 N.am  801  AIO801      0.0000
     15  C13       -8.4860   42.0360   64.0710 C.3   801  AIO801      0.0000
     16  C12       -9.2600   40.7240   64.2730 C.3   801  AIO801      0.0000
     17  C11       -9.5930   40.6500   65.7550 C.3   801  AIO801      0.0000
     18  C10       -8.5390   41.4710   66.4720 C.3   801  AIO801      0.0000
     19  B         -7.2270   40.6280   66.9520 B     801  AIO801      0.0000
     20  O4        -6.2740   41.1110   68.0600 O.3   801  AIO801      0.0000
     21  O3        -6.5120   39.7740   65.9190 O.3   801  AIO801      0.0000
@<TRIPOS>BOND
     1     6     5    1
     2    15    16    1
     3    15    14    1
     4     5     4    1
     5    16    17    1
     6     7     4    1
     7    10     9    2
     8     3     4    1
     9     3     8    1
    10     3     2    1
    11    13    11    1
    12     9     8   am
    13     9    11    1
    14    14     2   am
    15    14    18    1
    16    17    18    1
    17    11    12    1
    18     2     1    2
    19    21    19    1
    20    18    19    1
    21    19    20    1
