@<TRIPOS>MOLECULE
2eeq_SAH_A_1.pdb
 26 28 0 0 0
SMALL
GASTEIGER

@<TRIPOS>ATOM
      1  N         33.2790   92.3710   65.5010 N.3   301  SAH301     -0.1208
      2  CA        31.8620   91.8250   65.3880 C.3   301  SAH301      0.1952
      3  CB        31.2930   91.1110   66.5790 C.3   301  SAH301      0.0422
      4  CG        32.0220   89.9050   67.1480 C.3   301  SAH301      0.0597
      5  SD        30.8860   89.1000   68.3560 S.3   301  SAH301     -0.1375
      6  C         30.9420   93.0500   64.9720 C.2   301  SAH301      0.3819
      7  O         31.4580   94.1740   64.8250 O.co2 301  SAH301     -0.2441
      8  OXT       29.6880   92.7910   64.8040 O.co2 301  SAH301     -0.2441
      9  C5'       29.9320   88.0840   67.3080 C.3   301  SAH301      0.0899
     10  C4'       28.4910   87.8990   67.9370 C.3   301  SAH301      0.1630
     11  O4'       27.7940   89.1530   67.7760 O.3   301  SAH301     -0.3153
     12  C3'       27.6470   86.8430   67.3010 C.3   301  SAH301      0.2168
     13  O3'       27.7910   85.6030   67.9880 O.3   301  SAH301     -0.2175
     14  C2'       26.2260   87.4590   67.3790 C.3   301  SAH301      0.2569
     15  O2'       25.5940   87.1660   68.6220 O.3   301  SAH301     -0.2130
     16  C1'       26.4500   88.9570   67.1490 C.3   301  SAH301      0.3185
     17  N9        26.4360   89.3470   65.8480 N.pl3 301  SAH301     -0.1439
     18  C8        27.4040   89.6490   64.8950 C.3   301  SAH301      0.3377
     19  N7        26.9420   90.0040   63.7280 N.2   301  SAH301     -0.2095
     20  C5        25.5260   89.9480   63.8760 C.2   301  SAH301      0.2526
     21  C6        24.4450   90.2320   62.9520 C.2   301  SAH301      0.4393
     22  N6        24.6200   90.6330   61.6820 N.pl3 301  SAH301      0.2180
     23  N1        23.1810   90.0580   63.4730 N.2   301  SAH301      0.0021
     24  C2        22.9470   89.6540   64.7510 C.3   301  SAH301      0.5254
     25  N3        23.9470   89.3810   65.6560 N.2   301  SAH301     -0.0055
     26  C4        25.2020   89.5480   65.1540 C.2   301  SAH301      0.3518
@<TRIPOS>BOND
     1    22    21    1
     2    21    23    2
     3    21    20    1
     4    23    24    1
     5    19    20    2
     6    19    18    1
     7    20    26    1
     8    24    25    1
     9     8     6   ar
    10     7     6   ar
    11    18    17    1
    12     6     2    1
    13    26    25    2
    14    26    17    1
    15     2     1    1
    16     2     3    1
    17    17    16    1
    18     3     4    1
    19     4     5    1
    20    16    14    1
    21    16    11    1
    22    12    14    1
    23    12    10    1
    24    12    13    1
    25     9    10    1
    26     9     5    1
    27    14    15    1
    28    11    10    1
