@<TRIPOS>MOLECULE
2eer_NAD_A_1.pdb
 44 48 0 0 0
SMALL
GASTEIGER

@<TRIPOS>ATOM
      1  PA         8.3120   -0.7900   53.8610 P.3   401  NAD401      0.2189
      2  O1A        9.1530   -1.8510   54.3900 O.3   401  NAD401     -0.4371
      3  O2A        8.8870   -0.2130   52.6280 O.2   401  NAD401     -0.5170
      4  O5B        6.8290   -1.2470   53.3890 O.3   401  NAD401     -0.3112
      5  C5B        5.9990   -2.1920   54.1140 C.3   401  NAD401      0.1813
      6  C4B        5.4980   -3.3400   53.2370 C.3   401  NAD401      0.1821
      7  O4B        4.1620   -3.0610   52.7170 O.3   401  NAD401     -0.3135
      8  C3B        6.3030   -3.7280   51.9540 C.3   401  NAD401      0.2184
      9  O3B        6.9100   -5.0210   52.0990 O.3   401  NAD401     -0.2174
     10  C2B        5.2170   -3.6430   50.8530 C.3   401  NAD401      0.2570
     11  O2B        5.4260   -4.6140   49.7930 O.3   401  NAD401     -0.2130
     12  C1B        3.9790   -3.9320   51.6560 C.3   401  NAD401      0.3186
     13  N9A        2.7350   -3.6210   50.9280 N.pl3 401  NAD401     -0.1439
     14  C8A        2.4730   -2.6200   50.0020 C.3   401  NAD401      0.3377
     15  N7A        1.1950   -2.6290   49.5240 N.2   401  NAD401     -0.2095
     16  C5A        0.6170   -3.7090   50.1970 C.2   401  NAD401      0.2526
     17  C6A       -0.7210   -4.2710   50.1560 C.2   401  NAD401      0.4393
     18  N6A       -1.6970   -3.7860   49.3870 N.pl3 401  NAD401      0.2180
     19  N1A       -0.9590   -5.3700   50.9720 N.2   401  NAD401      0.0021
     20  C2A        0.0590   -5.8710   51.7720 C.3   401  NAD401      0.5254
     21  N3A        1.3080   -5.4250   51.8770 N.2   401  NAD401     -0.0055
     22  C4A        1.5440   -4.3400   51.0690 C.2   401  NAD401      0.3518
     23  O3         8.1600    0.3230   54.9580 O.3   401  NAD401     -0.2703
     24  PN         8.0230    0.3440   56.5720 P.3   401  NAD401      0.2189
     25  O1N        9.2640    1.0410   57.0020 O.2   401  NAD401     -0.5170
     26  O2N        7.9650   -1.0410   57.0680 O.3   401  NAD401     -0.4371
     27  O5D        6.8200    1.3270   56.9460 O.3   401  NAD401     -0.3112
     28  C5D        5.4640    0.9940   56.6250 C.3   401  NAD401      0.1813
     29  C4D        4.5630    2.1270   57.1080 C.3   401  NAD401      0.1799
     30  O4D        4.6490    2.2890   58.5690 O.3   401  NAD401     -0.3327
     31  C3D        4.8370    3.5090   56.4960 C.3   401  NAD401      0.2158
     32  O3D        3.6490    4.2210   56.1350 O.3   401  NAD401     -0.2175
     33  C2D        5.6440    4.1770   57.6180 C.3   401  NAD401      0.2309
     34  O2D        5.6520    5.6140   57.4670 O.3   401  NAD401     -0.2158
     35  C1D        4.9030    3.6520   58.8260 C.3   401  NAD401      0.2263
     36  N1N        5.6060    3.8340   60.1340 N.pl3 401  NAD401     -0.2787
     37  C2N        4.7430    4.1620   61.1720 C.3   401  NAD401      0.1244
     38  C3N        5.3110    4.3660   62.4290 C.2   401  NAD401      0.0544
     39  C7N        4.4540    4.7220   63.6460 C.2   401  NAD401      0.2818
     40  O7N        5.0070    4.9010   64.7230 O.2   401  NAD401     -0.2670
     41  N7N        3.1200    4.8310   63.5150 N.am  401  NAD401     -0.0839
     42  C4N        6.7490    4.2370   62.6520 C.2   401  NAD401      0.0033
     43  C5N        7.5190    3.8910   61.4980 C.2   401  NAD401      0.0157
     44  C6N        7.0230    3.6780   60.2260 C.2   401  NAD401      0.0633
@<TRIPOS>BOND
     1    18    17    1
     2    15    14    1
     3    15    16    2
     4    11    10    1
     5    14    13    1
     6    17    16    1
     7    17    19    2
     8    16    22    1
     9    10    12    1
    10    10     8    1
    11    13    22    1
    12    13    12    1
    13    19    20    1
    14    22    21    2
    15    12     7    1
    16    20    21    1
    17     8     9    1
    18     8     6    1
    19     3     1    2
    20     7     6    1
    21     6     5    1
    22     4     1    1
    23     4     5    1
    24     1     2    1
    25     1    23    1
    26    23    24    1
    27    32    31    1
    28    31    29    1
    29    31    33    1
    30    24    27    1
    31    24    25    2
    32    24    26    1
    33    28    27    1
    34    28    29    1
    35    29    30    1
    36    34    33    1
    37    33    35    1
    38    30    35    1
    39    35    36    1
    40    36    44    1
    41    36    37    1
    42    44    43    2
    43    37    38    1
    44    43    42    1
    45    38    42    2
    46    38    39    1
    47    41    39   am
    48    39    40    2
