@<TRIPOS>MOLECULE
2ef2_RHX_A_1.pdb
 29 35 0 0 0
SMALL
GASTEIGER

@<TRIPOS>ATOM
      1  C13       -0.6060    4.5260   -0.2590 C.3   1001  RHX1001     0.0000
      2  C12       -0.3590    3.2870   -1.1510 C.3   1001  RHX1001     0.0000
      3  C11        0.5300    2.9840    0.9200 C.3   1001  RHX1001     0.0000
      4  C9         0.5890    6.5640    5.3240 C.3   1001  RHX1001     0.0000
      5  C1         1.0280    3.4020    3.0990 C.ar  1001  RHX1001     0.0000
      6  C2         1.5480    3.1660    4.4180 C.ar  1001  RHX1001     0.0000
      7  C3         2.1860    1.9510    4.6830 C.ar  1001  RHX1001     0.0000
      8  C8         1.1450    6.1560    6.7150 C.3   1001  RHX1001     0.0000
      9  C7         1.2630    4.4030    5.2080 C.3   1001  RHX1001     0.0000
     10  C4         2.2690    0.9870    3.6570 C.ar  1001  RHX1001     0.0000
     11  C5         1.7640    1.2210    2.3780 C.ar  1001  RHX1001     0.0000
     12  C6         1.1520    2.4530    2.1430 C.ar  1001  RHX1001     0.0000
     13 RH1         0.1790    5.0260    2.7540 Rh    1001  RHX1001     0.0000
     14  O2         0.4760    2.4150   -0.3960 O.3   1001  RHX1001     0.0000
     15  C21       -0.0340    5.6790   -1.0180 C.ar  1001  RHX1001     0.0000
     16  C62       -0.8340    6.8060   -1.2400 C.ar  1001  RHX1001     0.0000
     17  C61       -0.3500    7.9010   -1.9540 C.ar  1001  RHX1001     0.0000
     18  C60        0.9470    7.8740   -2.4770 C.ar  1001  RHX1001     0.0000
     19  C59        1.7510    6.7440   -2.2720 C.ar  1001  RHX1001     0.0000
     20  C58        1.2620    5.6460   -1.5540 C.ar  1001  RHX1001     0.0000
     21  N2         0.0140    4.1320    1.0360 N.3   1001  RHX1001     0.0000
     22  N1         0.7260    5.3360    4.5520 N.3   1001  RHX1001     0.0000
     23  O1         1.5030    4.7790    6.5800 O.3   1001  RHX1001     0.0000
     24  C17       -0.8460    6.9780    5.3590 C.ar  1001  RHX1001     0.0000
     25  C51       -1.1760    8.3330    5.2680 C.ar  1001  RHX1001     0.0000
     26  C50       -2.5070    8.7540    5.2780 C.ar  1001  RHX1001     0.0000
     27  C49       -3.5300    7.8100    5.3650 C.ar  1001  RHX1001     0.0000
     28  C48       -3.2140    6.4470    5.4490 C.ar  1001  RHX1001     0.0000
     29  C47       -1.8790    6.0300    5.4520 C.ar  1001  RHX1001     0.0000
@<TRIPOS>BOND
     1    18    19   ar
     2    18    17   ar
     3    19    20   ar
     4    17    16   ar
     5    20    15   ar
     6    16    15   ar
     7     2    14    1
     8     2     1    1
     9    15     1    1
    10    14     3    1
    11     1    21    1
    12     3    21    1
    13     3    12    1
    14    21    13    1
    15    12    11   ar
    16    12     5   ar
    17    11    10   ar
    18    13     5    1
    19    13    22    1
    20     5     6   ar
    21    10     7   ar
    22     6     7   ar
    23     6     9    1
    24    22     9    1
    25    22     4    1
    26     9    23    1
    27    25    26   ar
    28    25    24   ar
    29    26    27   ar
    30     4    24    1
    31     4     8    1
    32    24    29   ar
    33    27    28   ar
    34    28    29   ar
    35    23     8    1
