@<TRIPOS>MOLECULE
2ef5_LYS_A_1.pdb
 10 9 0 0 0
SMALL
GASTEIGER

@<TRIPOS>ATOM
      1  N        -26.1540   48.0290   36.1880 N.3   3001  LYS3001    -0.1208
      2  CA       -24.8280   47.8160   37.0970 C.3   3001  LYS3001     0.1943
      3  C        -25.2500   46.6370   38.1770 C.2   3001  LYS3001     0.3819
      4  O        -24.5910   45.5820   38.1470 O.co2 3001  LYS3001    -0.2441
      5  CB       -24.6010   49.2650   37.7380 C.3   3001  LYS3001     0.0307
      6  CG       -23.2620   50.0930   38.2930 C.3   3001  LYS3001     0.0036
      7  CD       -23.2140   51.1380   39.4300 C.3   3001  LYS3001     0.0206
      8  CE       -21.7240   50.9540   40.2040 C.3   3001  LYS3001     0.1093
      9  NZ       -21.2710   49.9600   41.4950 N.3   3001  LYS3001    -0.1314
     10  OXT      -26.1410   46.6600   39.0870 O.co2 3001  LYS3001    -0.2441
@<TRIPOS>BOND
     1     1     2    1
     2     2     5    1
     3     2     3    1
     4     5     6    1
     5     4     3   ar
     6     3    10   ar
     7     6     7    1
     8     7     8    1
     9     8     9    1
