@<TRIPOS>MOLECULE
2ef6_MDM_A_1.pdb
 24 25 0 0 0
SMALL
GASTEIGER

@<TRIPOS>ATOM
      1  C1        16.4460    2.6850   33.7740 C.3   1002  MDM1002     0.2695
      2  C2        17.3580    2.7650   32.6170 C.3   1002  MDM1002     0.2406
      3  C3        17.5610    4.2390   32.2220 C.3   1002  MDM1002     0.2198
      4  C4        16.2590    4.9660   31.9980 C.3   1002  MDM1002     0.2144
      5  C5        15.3050    4.7410   33.1840 C.3   1002  MDM1002     0.1835
      6  C6        13.9100    5.2410   32.9840 C.3   1002  MDM1002     0.2142
      7  O2        16.6620    1.9580   31.6620 O.3   1002  MDM1002    -0.2149
      8  O3        18.4600    4.3670   31.1050 O.3   1002  MDM1002    -0.2174
      9  O4        16.5400    6.3530   31.7720 O.3   1002  MDM1002    -0.2176
     10  O5        15.2130    3.3190   33.4560 O.3   1002  MDM1002    -0.3256
     11  O6        13.3750    4.5500   31.8710 O.3   1002  MDM1002    -0.2176
     12  C1'       15.3150    3.5900   38.0510 C.3   1002  MDM1002     0.2694
     13  C2'       15.9840    4.2770   36.8630 C.3   1002  MDM1002     0.2374
     14  C3'       16.3850    3.0280   36.1000 C.3   1002  MDM1002     0.1858
     15  C4'       17.3690    2.2330   36.9600 C.3   1002  MDM1002     0.2113
     16  C5'       16.7650    1.8610   38.3170 C.3   1002  MDM1002     0.1834
     17  C6'       17.7180    1.0330   39.1830 C.3   1002  MDM1002     0.2142
     18  C7'       13.2900    3.4220   39.2870 C.3   1002  MDM1002     0.1769
     19  O1'       14.2450    4.2830   38.6770 O.3   1002  MDM1002    -0.3259
     20  O2'       17.2160    4.9780   37.1650 O.3   1002  MDM1002    -0.2150
     21  O3'       17.0230    3.3520   34.8730 O.3   1002  MDM1002    -0.3255
     22  O4'       17.8760    1.1030   36.2400 O.3   1002  MDM1002    -0.2177
     23  O5'       16.3140    3.0720   38.9370 O.3   1002  MDM1002    -0.3256
     24  O6'       19.0770    1.5580   39.1480 O.3   1002  MDM1002    -0.2176
@<TRIPOS>BOND
     1     8     3    1
     2     7     2    1
     3     9     4    1
     4    11     6    1
     5     4     3    1
     6     4     5    1
     7     3     2    1
     8     2     1    1
     9     6     5    1
    10     5    10    1
    11    10     1    1
    12     1    21    1
    13    21    14    1
    14    14    13    1
    15    14    15    1
    16    22    15    1
    17    13    20    1
    18    13    12    1
    19    15    16    1
    20    12    19    1
    21    12    23    1
    22    16    23    1
    23    16    17    1
    24    19    18    1
    25    24    17    1
