@<TRIPOS>MOLECULE
2ef9_PEP_A_1.pdb
 10 9 0 0 0
SMALL
GASTEIGER

@<TRIPOS>ATOM
      1  C1        32.5580   51.6020   22.5360 C.2   1268  PEP1268     0.4216
      2  O1        33.3020   52.1770   23.3860 O.co2 1268  PEP1268    -0.2371
      3  O2'       31.2940   51.6950   22.6070 O.co2 1268  PEP1268    -0.2371
      4  C2        33.1680   50.7880   21.4290 C.2   1268  PEP1268     0.2283
      5  C3        34.4450   50.4190   21.4330 C.2   1268  PEP1268     0.0477
      6  O2        32.2410   50.4330   20.4570 O.2   1268  PEP1268    -0.3930
      7  P         32.2650   49.3170   19.2840 P.3   1268  PEP1268     0.5889
      8  O1P       33.0050   48.0400   19.6690 O.3   1268  PEP1268    -0.1039
      9  O2P       32.9500   49.9460   18.0920 O.2   1268  PEP1268    -0.2114
     10  O3P       30.7860   49.1420   18.9400 O.3   1268  PEP1268    -0.1039
@<TRIPOS>BOND
     1     9     7    2
     2    10     7    1
     3     7     8    1
     4     7     6    1
     5     6     4    1
     6     4     5    2
     7     4     1    1
     8     1     3   ar
     9     1     2   ar
