@<TRIPOS>MOLECULE
2ef9_A5P_A_1.pdb
 14 13 0 0 0
SMALL
GASTEIGER

@<TRIPOS>ATOM
      1  C1        35.0300   51.9830   18.0590 C.2   1269  A5P1269     0.2427
      2  O1        35.5290   50.9840   18.4770 O.2   1269  A5P1269    -0.2854
      3  C2        34.9060   53.2770   18.8960 C.3   1269  A5P1269     0.2486
      4  O2        35.4390   53.2780   20.2160 O.3   1269  A5P1269    -0.2118
      5  C3        35.3880   54.4050   18.0250 C.3   1269  A5P1269     0.2224
      6  O3        34.5430   54.5450   16.8930 O.3   1269  A5P1269    -0.2171
      7  C4        36.8870   54.2510   17.6530 C.3   1269  A5P1269     0.2151
      8  O4        37.7710   53.6290   18.6100 O.3   1269  A5P1269    -0.2176
      9  C5        37.4340   55.4440   17.0190 C.3   1269  A5P1269     0.1892
     10  O5        38.4520   54.9180   16.2330 O.3   1269  A5P1269    -0.2674
     11  P         39.4810   55.6620   15.5390 P.3   1269  A5P1269     0.5327
     12  O1P       40.8080   55.2640   16.0790 O.3   1269  A5P1269    -0.1145
     13  O2P       39.4110   55.1730   14.1500 O.2   1269  A5P1269    -0.2224
     14  O3P       39.2570   57.1480   15.6640 O.3   1269  A5P1269    -0.1145
@<TRIPOS>BOND
     1    13    11    2
     2    11    14    1
     3    11    12    1
     4    11    10    1
     5    10     9    1
     6     6     5    1
     7     9     7    1
     8     7     5    1
     9     7     8    1
    10     5     3    1
    11     1     2    2
    12     1     3    1
    13     3     4    1
