@<TRIPOS>MOLECULE
2efb_HEM_A_1.pdb
 43 50 0 0 0
SMALL
GASTEIGER

@<TRIPOS>ATOM
      1  CHA       -3.9630   -2.3230   -5.3410 C.2   1001  HEM1001     0.0000
      2  CHB       -1.3780   -6.4440   -5.2770 C.2   1001  HEM1001     0.0000
      3  CHC        2.2920   -4.0780   -3.1960 C.2   1001  HEM1001     0.0000
      4  CHD       -0.1420    0.0970   -3.4810 C.2   1001  HEM1001     0.0000
      5  C1A       -3.5890   -3.6320   -5.5190 C.ar  1001  HEM1001     0.0000
      6  C2A       -4.4240   -4.6540   -6.1130 C.ar  1001  HEM1001     0.0000
      7  C3A       -3.7230   -5.7990   -6.1030 C.ar  1001  HEM1001     0.0000
      8  C4A       -2.4140   -5.5320   -5.5000 C.ar  1001  HEM1001     0.0000
      9  CMA       -4.2100   -7.1610   -6.6410 C.3   1001  HEM1001     0.0000
     10  CAA       -5.8620   -4.3930   -6.6400 C.3   1001  HEM1001     0.0000
     11  CBA       -5.8260   -3.4300   -7.8250 C.3   1001  HEM1001     0.0000
     12  CGA       -7.2170   -3.1620   -8.3400 C.2   1001  HEM1001     0.0000
     13  O1A       -8.0380   -4.1330   -8.3860 O.co2 1001  HEM1001     0.0000
     14  O2A       -7.4960   -1.9780   -8.7170 O.co2 1001  HEM1001     0.0000
     15  C1B       -0.1620   -6.1940   -4.6670 C.2   1001  HEM1001     0.0000
     16  C2B        0.9090   -7.1410   -4.3690 C.2   1001  HEM1001     0.0000
     17  C3B        1.9130   -6.4550   -3.7950 C.2   1001  HEM1001     0.0000
     18  C4B        1.5150   -5.0710   -3.7170 C.2   1001  HEM1001     0.0000
     19  CMB        0.9140   -8.6450   -4.6580 C.3   1001  HEM1001     0.0000
     20  CAB        3.2780   -6.9560   -3.2790 C.2   1001  HEM1001     0.0000
     21  CBB        3.8480   -8.0140   -3.8500 C.2   1001  HEM1001     0.0000
     22  C1C        1.9900   -2.7410   -3.0920 C.ar  1001  HEM1001     0.0000
     23  C2C        2.8320   -1.6940   -2.5380 C.ar  1001  HEM1001     0.0000
     24  C3C        2.1370   -0.5340   -2.6210 C.ar  1001  HEM1001     0.0000
     25  C4C        0.8550   -0.8190   -3.2200 C.ar  1001  HEM1001     0.0000
     26  CMC        4.2600   -1.9140   -1.9860 C.3   1001  HEM1001     0.0000
     27  CAC        2.5170    0.9090   -2.2050 C.2   1001  HEM1001     0.0000
     28  CBC        3.7330    1.2720   -1.7750 C.2   1001  HEM1001     0.0000
     29  C1D       -1.4340   -0.1680   -3.8900 C.2   1001  HEM1001     0.0000
     30  C2D       -2.5430    0.7350   -3.7910 C.2   1001  HEM1001     0.0000
     31  C3D       -3.7410   -0.0040   -4.3690 C.2   1001  HEM1001     0.0000
     32  C4D       -3.2340   -1.3070   -4.7660 C.2   1001  HEM1001     0.0000
     33  CMD       -2.5640    2.1600   -3.2440 C.3   1001  HEM1001     0.0000
     34  CAD       -5.1800    0.5830   -4.4360 C.3   1001  HEM1001     0.0000
     35  CBD       -5.7620    0.6760   -3.0120 C.3   1001  HEM1001     0.0000
     36  CGD       -7.1740    1.2000   -3.0640 C.2   1001  HEM1001     0.0000
     37  O1D       -7.4040    2.3370   -2.5980 O.co2 1001  HEM1001     0.0000
     38  O2D       -8.0860    0.4850   -3.5680 O.co2 1001  HEM1001     0.0000
     39  NA        -2.3820   -4.1890   -5.1670 N.ar  1001  HEM1001     0.0000
     40  NB         0.2530   -4.9360   -4.2550 N.2   1001  HEM1001     0.0000
     41  NC         0.8080   -2.1620   -3.4960 N.ar  1001  HEM1001     0.0000
     42  ND        -1.8850   -1.3440   -4.4650 N.2   1001  HEM1001     0.0000
     43 FE         -0.7590   -3.0020   -4.3280 Fe    1001  HEM1001     0.0000
@<TRIPOS>BOND
     1    14    12   ar
     2    13    12   ar
     3    12    11    1
     4    11    10    1
     5     9     7    1
     6    10     6    1
     7     6     7   ar
     8     6     5   ar
     9     7     8   ar
    10     5     1    2
    11     5    39   ar
    12     8     2    2
    13     8    39   ar
    14     1    32    1
    15     2    15    1
    16    39    43    1
    17    32    42    2
    18    32    31    1
    19    15    16    1
    20    15    40    2
    21    19    16    1
    22    42    43    1
    23    42    29    1
    24    34    31    1
    25    34    35    1
    26    16    17    2
    27    31    30    2
    28    43    40    1
    29    43    41    1
    30    40    18    1
    31    29    30    1
    32    29     4    2
    33    21    20    2
    34    17    18    1
    35    17    20    1
    36    30    33    1
    37    18     3    2
    38    38    36   ar
    39    41    25   ar
    40    41    22   ar
    41     4    25    1
    42    25    24   ar
    43     3    22    1
    44    22    23   ar
    45    36    35    1
    46    36    37   ar
    47    24    23   ar
    48    24    27    1
    49    23    26    1
    50    27    28    2
