@<TRIPOS>MOLECULE
2efc_GDP_B_1.pdb
 28 30 0 0 0
SMALL
GASTEIGER

@<TRIPOS>ATOM
      1  PB       -13.8150   -9.0560   -1.7200 P.3   1200  GDP1200     0.5373
      2  O1B      -14.1950   -8.4600   -0.3880 O.3   1200  GDP1200    -0.1143
      3  O2B      -13.2120   -8.0130   -2.6430 O.2   1200  GDP1200    -0.2221
      4  O3B      -12.9050  -10.2150   -1.4790 O.3   1200  GDP1200    -0.1143
      5  O3A      -15.2020   -9.5720   -2.3390 O.3   1200  GDP1200    -0.2261
      6  PA       -15.5790   -9.6930   -3.8910 P.3   1200  GDP1200     0.2231
      7  O1A      -15.9300   -8.3820   -4.5320 O.3   1200  GDP1200    -0.4370
      8  O2A      -14.5150  -10.3860   -4.7070 O.2   1200  GDP1200    -0.5169
      9  O5'      -16.8840  -10.6380   -3.7640 O.3   1200  GDP1200    -0.3111
     10  C5'      -16.8170  -12.0320   -3.4360 C.3   1200  GDP1200     0.1813
     11  C4'      -17.7750  -12.8200   -4.3410 C.3   1200  GDP1200     0.1799
     12  O4'      -19.1350  -12.4170   -4.0850 O.3   1200  GDP1200    -0.3326
     13  C3'      -17.5040  -12.5510   -5.8120 C.3   1200  GDP1200     0.2158
     14  O3'      -17.6500  -13.7620   -6.5590 O.3   1200  GDP1200    -0.2175
     15  C2'      -18.5740  -11.5610   -6.2160 C.3   1200  GDP1200     0.2310
     16  O2'      -18.9470  -11.7700   -7.5730 O.3   1200  GDP1200    -0.2158
     17  C1'      -19.7270  -11.8250   -5.2480 C.3   1200  GDP1200     0.2293
     18  N9       -20.4990  -10.5960   -4.8970 N.pl3 1200  GDP1200    -0.2354
     19  C8       -20.0040   -9.4040   -4.5210 C.3   1200  GDP1200     0.2246
     20  N7       -20.9770   -8.4920   -4.2980 N.2   1200  GDP1200    -0.2322
     21  C5       -22.1510   -9.1060   -4.5280 C.2   1200  GDP1200     0.2182
     22  C6       -23.5920   -8.7300   -4.4630 C.1   1200  GDP1200     0.2372
     23  O6       -23.9490   -7.5790   -4.1370 O.2   1200  GDP1200    -0.2069
     24  N1       -24.5020   -9.6480   -4.7780 N.2   1200  GDP1200    -0.2485
     25  C2       -24.1620  -10.8960   -5.1410 C.1   1200  GDP1200     0.2531
     26  N2       -25.1500  -11.7590   -5.4360 N.pl3 1200  GDP1200    -0.0226
     27  N3       -22.8690  -11.3270   -5.2150 N.2   1200  GDP1200    -0.3074
     28  C4       -21.8370  -10.4860   -4.9250 C.2   1200  GDP1200     0.2300
@<TRIPOS>BOND
     1    16    15    1
     2    14    13    1
     3    15    13    1
     4    15    17    1
     5    13    11    1
     6    26    25    1
     7    17    18    1
     8    17    12    1
     9    27    25    2
    10    27    28    2
    11    25    24    2
    12    28    18    1
    13    28    21    1
    14    18    19    1
    15    24    22    2
    16     8     6    2
    17     7     6    1
    18    21    22    1
    19    21    20    2
    20    19    20    1
    21    22    23    2
    22    11    12    1
    23    11    10    1
    24     6     9    1
    25     6     5    1
    26     9    10    1
    27     3     1    2
    28     5     1    1
    29     1     4    1
    30     1     2    1
