@<TRIPOS>MOLECULE
2efe_GNH_B_1.pdb
 28 30 0 0 0
SMALL
GASTEIGER

@<TRIPOS>ATOM
      1  N3B      -12.1830   -9.8590   -1.4350 N.3   1200  GNH1200    -0.0178
      2  PB       -13.3550   -8.6400   -1.8810 P.3   1200  GNH1200     0.4738
      3  O1B      -13.9030   -8.0960   -0.5850 O.3   1200  GNH1200    -0.1247
      4  O2B      -12.8550   -7.6090   -2.8540 O.2   1200  GNH1200    -0.2343
      5  O3A      -14.4850   -9.5070   -2.6180 O.3   1200  GNH1200    -0.2354
      6  PA       -14.9270   -9.4460   -4.1660 P.3   1200  GNH1200     0.2220
      7  O1A      -15.3590   -8.0490   -4.5180 O.3   1200  GNH1200    -0.4370
      8  O2A      -13.8230  -10.1170   -4.9700 O.2   1200  GNH1200    -0.5170
      9  O5'      -16.2170  -10.4100   -4.1720 O.3   1200  GNH1200    -0.3111
     10  C5'      -16.1780  -11.7990   -3.7800 C.3   1200  GNH1200     0.1813
     11  C4'      -17.1110  -12.6450   -4.6540 C.3   1200  GNH1200     0.1799
     12  O4'      -18.4920  -12.3520   -4.3440 O.3   1200  GNH1200    -0.3326
     13  C3'      -16.9290  -12.3690   -6.1460 C.3   1200  GNH1200     0.2158
     14  O3'      -17.1760  -13.5540   -6.9160 O.3   1200  GNH1200    -0.2175
     15  C2'      -18.0260  -11.3920   -6.4760 C.3   1200  GNH1200     0.2310
     16  O2'      -18.5260  -11.5760   -7.8050 O.3   1200  GNH1200    -0.2158
     17  C1'      -19.1170  -11.7200   -5.4640 C.3   1200  GNH1200     0.2293
     18  N9       -19.9070  -10.5010   -5.1130 N.pl3 1200  GNH1200    -0.2354
     19  C8       -19.4580   -9.2770   -4.7460 C.3   1200  GNH1200     0.2246
     20  N7       -20.4830   -8.4170   -4.5420 N.2   1200  GNH1200    -0.2322
     21  C5       -21.6280   -9.0960   -4.7750 C.2   1200  GNH1200     0.2182
     22  C6       -23.0960   -8.8160   -4.7250 C.1   1200  GNH1200     0.2372
     23  O6       -23.5510   -7.7040   -4.4040 O.2   1200  GNH1200    -0.2069
     24  N1       -23.9440   -9.7910   -5.0330 N.2   1200  GNH1200    -0.2485
     25  C2       -23.5260  -11.0170   -5.3790 C.1   1200  GNH1200     0.2531
     26  N2       -24.4640  -11.9230   -5.6740 N.pl3 1200  GNH1200    -0.0226
     27  N3       -22.2140  -11.3730   -5.4510 N.2   1200  GNH1200    -0.3074
     28  C4       -21.2430  -10.4630   -5.1590 C.2   1200  GNH1200     0.2300
@<TRIPOS>BOND
     1    16    15    1
     2    14    13    1
     3    15    13    1
     4    15    17    1
     5    13    11    1
     6    26    25    1
     7    17    18    1
     8    17    12    1
     9    27    25    2
    10    27    28    2
    11    25    24    2
    12    28    18    1
    13    28    21    1
    14    18    19    1
    15    24    22    2
    16     8     6    2
    17    21    22    1
    18    21    20    2
    19    19    20    1
    20    22    23    2
    21    11    12    1
    22    11    10    1
    23     7     6    1
    24     9     6    1
    25     9    10    1
    26     6     5    1
    27     4     2    2
    28     5     2    1
    29     2     1    1
    30     2     3    1
