@<TRIPOS>MOLECULE
2efg_III_B_1.pdb
 49 48 0 0 0
SMALL
GASTEIGER

@<TRIPOS>ATOM
      1  N         19.0140   20.3560   36.2920 N.3   717  UNK717     -0.1231
      2  CA        20.4890   20.1620   36.1920 C.3   717  UNK717      0.1694
      3  C         20.8500   18.6970   36.4190 C.2   717  UNK717      0.2592
      4  O         20.5310   18.1250   37.4630 O.2   717  UNK717     -0.2718
      5  CB        21.2000   21.0410   37.2130 C.3   717  UNK717      0.0304
      6  N         21.5170   18.0980   35.4350 N.am  718  UNK718     -0.1966
      7  CA        21.9210   16.6950   35.5060 C.3   718  UNK718      0.1728
      8  C         23.3180   16.5140   36.0940 C.2   718  UNK718      0.2616
      9  O         24.3210   16.7500   35.4190 O.2   718  UNK718     -0.2715
     10  CB        21.8630   16.0700   34.1180 C.3   718  UNK718      0.0334
     11  N         23.3740   16.0820   37.3520 N.am  719  UNK719     -0.1963
     12  CA        24.6430   15.8610   38.0400 C.3   719  UNK719      0.1728
     13  C         25.0400   14.3850   38.0180 C.2   719  UNK719      0.2616
     14  O         24.8110   13.6590   38.9890 O.2   719  UNK719     -0.2715
     15  CB        24.5480   16.3560   39.4790 C.3   719  UNK719      0.0334
     16  N         25.6320   13.9570   36.9030 N.am  720  UNK720     -0.1963
     17  CA        26.0880   12.5790   36.7050 C.3   720  UNK720      0.1728
     18  C         24.9780   11.6130   36.2800 C.2   720  UNK720      0.2616
     19  O         24.8510   10.5190   36.8340 O.2   720  UNK720     -0.2715
     20  CB        26.7800   12.0590   37.9750 C.3   720  UNK720      0.0334
     21  N         24.1860   12.0150   35.2880 N.am  721  UNK721     -0.1963
     22  CA        23.0950   11.1820   34.7840 C.3   721  UNK721      0.1728
     23  C         23.3650   10.7430   33.3440 C.2   721  UNK721      0.2616
     24  O         23.0820   11.4840   32.4030 O.2   721  UNK721     -0.2715
     25  CB        21.7750   11.9480   34.8580 C.3   721  UNK721      0.0334
     26  N         23.9110    9.5400   33.1790 N.am  722  UNK722     -0.1963
     27  CA        24.2150    9.0050   31.8540 C.3   722  UNK722      0.1728
     28  C         23.0910    8.0920   31.3640 C.2   722  UNK722      0.2616
     29  O         22.4690    7.3830   32.1550 O.2   722  UNK722     -0.2715
     30  CB        25.5250    8.2410   31.8950 C.3   722  UNK722      0.0334
     31  N         22.8380    8.1110   30.0570 N.am  723  UNK723     -0.1963
     32  CA        21.7840    7.2930   29.4600 C.3   723  UNK723      0.1728
     33  C         22.3370    5.9960   28.8650 C.2   723  UNK723      0.2616
     34  O         23.5490    5.8370   28.7240 O.2   723  UNK723     -0.2715
     35  CB        21.0530    8.0940   28.3870 C.3   723  UNK723      0.0334
     36  N         21.4420    5.0730   28.5250 N.am  724  UNK724     -0.1963
     37  CA        21.8300    3.7860   27.9460 C.3   724  UNK724      0.1728
     38  C         20.5920    2.9660   27.5790 C.2   724  UNK724      0.2616
     39  O         19.6890    2.7970   28.4000 O.2   724  UNK724     -0.2715
     40  CB        22.6990    3.0070   28.9320 C.3   724  UNK724      0.0334
     41  N         20.5580    2.4550   26.3480 N.am  725  UNK725     -0.1963
     42  CA        19.4280    1.6580   25.8660 C.3   725  UNK725      0.1728
     43  C         19.8630    0.2820   25.3290 C.2   725  UNK725      0.2612
     44  O         21.0400    0.0670   25.0270 O.2   725  UNK725     -0.2715
     45  CB        18.6810    2.4340   24.7810 C.3   725  UNK725      0.0334
     46  N         18.9110   -0.6460   25.2220 N.am  726  UNK726     -0.2058
     47  CA        19.1990   -1.9890   24.7140 C.3   726  UNK726      0.0955
     48  C         17.9320   -2.7850   24.4080 C.3   726  UNK726      0.0234
     49  CB        20.0530   -2.7490   25.7110 C.3   726  UNK726      0.0234
@<TRIPOS>BOND
     1    48    47    1
     2    47    46    1
     3    47    49    1
     4    45    42    1
     5    44    43    2
     6    46    43   am
     7    43    42    1
     8    42    41    1
     9    41    38   am
    10    38    37    1
    11    38    39    2
    12    37    36    1
    13    37    40    1
    14    35    32    1
    15    36    33   am
    16    34    33    2
    17    33    32    1
    18    32    31    1
    19    31    28   am
    20    28    27    1
    21    28    29    2
    22    27    30    1
    23    27    26    1
    24    24    23    2
    25    26    23   am
    26    23    22    1
    27    10     7    1
    28    22    25    1
    29    22    21    1
    30    21    18   am
    31     9     8    2
    32     6     7    1
    33     6     3   am
    34     7     8    1
    35     8    11   am
    36     2     1    1
    37     2     3    1
    38     2     5    1
    39    18    17    1
    40    18    19    2
    41     3     4    2
    42    17    16    1
    43    17    20    1
    44    16    13   am
    45    11    12    1
    46    13    12    1
    47    13    14    2
    48    12    15    1
