@<TRIPOS>MOLECULE
2efg_GDP_A_1.pdb
 28 30 0 0 0
SMALL
GASTEIGER

@<TRIPOS>ATOM
      1  PB        -2.5850   21.3980   20.4430 P.3   900  GDP900      0.5373
      2  O1B       -1.1200   21.7570   20.3610 O.3   900  GDP900     -0.1143
      3  O2B       -3.1590   20.2450   19.6660 O.2   900  GDP900     -0.2221
      4  O3B       -3.0230   21.1100   21.8540 O.3   900  GDP900     -0.1143
      5  O3A       -3.2510   22.6820   20.0990 O.3   900  GDP900     -0.2261
      6  PA        -3.5420   23.9490   20.8860 P.3   900  GDP900      0.2231
      7  O1A       -4.9800   23.9310   21.3710 O.2   900  GDP900     -0.5169
      8  O2A       -2.4550   24.0660   21.9320 O.3   900  GDP900     -0.4370
      9  O5'       -3.4360   25.1820   20.0020 O.3   900  GDP900     -0.3111
     10  C5'       -2.3270   25.4060   19.1320 C.3   900  GDP900      0.1813
     11  C4'       -2.4030   26.7940   18.5240 C.3   900  GDP900      0.1799
     12  O4'       -3.5300   26.7860   17.6260 O.3   900  GDP900     -0.3326
     13  C3'       -2.6620   27.9480   19.5090 C.3   900  GDP900      0.2158
     14  O3'       -1.8880   29.0510   19.1370 O.3   900  GDP900     -0.2175
     15  C2'       -4.1510   28.2580   19.3870 C.3   900  GDP900      0.2310
     16  O2'       -4.4160   29.5420   19.9590 O.3   900  GDP900     -0.2158
     17  C1'       -4.4090   27.9050   17.8960 C.3   900  GDP900      0.2293
     18  N9        -5.7780   27.4720   17.4850 N.pl3 900  GDP900     -0.2354
     19  C8        -6.4810   26.4330   18.0510 C.3   900  GDP900      0.2246
     20  N7        -7.7330   26.3190   17.6560 N.2   900  GDP900     -0.2322
     21  C5        -7.8690   27.3510   16.7240 C.2   900  GDP900      0.2182
     22  C6        -9.0580   27.8370   15.8670 C.1   900  GDP900      0.2372
     23  O6       -10.1880   27.3350   15.8410 O.2   900  GDP900     -0.2069
     24  N1        -8.8080   29.0120   15.1320 N.2   900  GDP900     -0.2485
     25  C2        -7.5690   29.6460   15.0100 C.1   900  GDP900      0.2531
     26  N2        -7.4910   30.7710   14.2660 N.pl3 900  GDP900     -0.0226
     27  N3        -6.4430   29.1190   15.6310 N.2   900  GDP900     -0.3074
     28  C4        -6.6710   28.0330   16.5940 C.2   900  GDP900      0.2300
@<TRIPOS>BOND
     1    26    25    1
     2    25    24    2
     3    25    27    2
     4    24    22    2
     5    27    28    2
     6    23    22    2
     7    22    21    1
     8    28    21    1
     9    28    18    1
    10    21    20    2
    11    18    17    1
    12    18    19    1
    13    12    17    1
    14    12    11    1
    15    20    19    1
    16    17    15    1
    17    11    10    1
    18    11    13    1
    19    10     9    1
    20    14    13    1
    21    15    13    1
    22    15    16    1
    23     3     1    2
    24     9     6    1
    25     5     1    1
    26     5     6    1
    27     2     1    1
    28     1     4    1
    29     6     7    2
    30     6     8    1
