@<TRIPOS>MOLECULE
2efh_GDP_B_1.pdb
 28 30 0 0 0
SMALL
GASTEIGER

@<TRIPOS>ATOM
      1  PB       -14.0110   -9.6070   -1.7250 P.3   1200  GDP1200     0.5373
      2  O1B      -14.4140   -9.0420   -0.3770 O.3   1200  GDP1200    -0.1143
      3  O2B      -13.5450   -8.4790   -2.6080 O.2   1200  GDP1200    -0.2221
      4  O3B      -12.9430  -10.6360   -1.5100 O.3   1200  GDP1200    -0.1143
      5  O3A      -15.2810  -10.3620   -2.3680 O.3   1200  GDP1200    -0.2261
      6  PA       -15.7900  -10.2750   -3.8950 P.3   1200  GDP1200     0.2231
      7  O1A      -16.2260   -8.9070   -4.3340 O.3   1200  GDP1200    -0.4370
      8  O2A      -14.7330  -10.7890   -4.8630 O.2   1200  GDP1200    -0.5169
      9  O5'      -17.0300  -11.2910   -3.8390 O.3   1200  GDP1200    -0.3111
     10  C5'      -16.8590  -12.6980   -3.6920 C.3   1200  GDP1200     0.1813
     11  C4'      -17.9790  -13.3970   -4.4570 C.3   1200  GDP1200     0.1799
     12  O4'      -19.2510  -12.8660   -4.0310 O.3   1200  GDP1200    -0.3326
     13  C3'      -17.8830  -13.1760   -5.9680 C.3   1200  GDP1200     0.2158
     14  O3'      -18.3550  -14.3510   -6.6320 O.3   1200  GDP1200    -0.2175
     15  C2'      -18.8690  -12.0720   -6.2510 C.3   1200  GDP1200     0.2310
     16  O2'      -19.3960  -12.1020   -7.5910 O.3   1200  GDP1200    -0.2158
     17  C1'      -19.9260  -12.3170   -5.1730 C.3   1200  GDP1200     0.2293
     18  N9       -20.6600  -11.0780   -4.8270 N.pl3 1200  GDP1200    -0.2354
     19  C8       -20.1560   -9.8640   -4.5450 C.3   1200  GDP1200     0.2246
     20  N7       -21.1420   -8.9690   -4.2910 N.2   1200  GDP1200    -0.2322
     21  C5       -22.3090   -9.6270   -4.4090 C.2   1200  GDP1200     0.2182
     22  C6       -23.7510   -9.3030   -4.2700 C.1   1200  GDP1200     0.2372
     23  O6       -24.1100   -8.1500   -3.9710 O.2   1200  GDP1200    -0.2069
     24  N1       -24.6450  -10.2840   -4.4740 N.2   1200  GDP1200    -0.2485
     25  C2       -24.2790  -11.5400   -4.8000 C.1   1200  GDP1200     0.2531
     26  N2       -25.2250  -12.4870   -4.9870 N.pl3 1200  GDP1200    -0.0226
     27  N3       -22.9840  -11.9120   -4.9430 N.2   1200  GDP1200    -0.3074
     28  C4       -21.9830  -11.0130   -4.7630 C.2   1200  GDP1200     0.2300
@<TRIPOS>BOND
     1    16    15    1
     2    14    13    1
     3    15    13    1
     4    15    17    1
     5    13    11    1
     6    17    18    1
     7    17    12    1
     8    26    25    1
     9    27    25    2
    10    27    28    2
    11     8     6    2
    12    18    28    1
    13    18    19    1
    14    25    24    2
    15    28    21    1
    16    19    20    1
    17    24    22    2
    18    11    12    1
    19    11    10    1
    20    21    20    2
    21    21    22    1
    22     7     6    1
    23    22    23    2
    24     6     9    1
    25     6     5    1
    26     9    10    1
    27     3     1    2
    28     5     1    1
    29     1     4    1
    30     1     2    1
