@<TRIPOS>MOLECULE
2efj_37T_A_1.pdb
 13 14 0 0 0
SMALL
GASTEIGER

@<TRIPOS>ATOM
      1  O6         7.9840   21.9180   59.4730 O.2   502  37T502     -0.2113
      2  C6         7.4540   22.1940   58.3790 C.1   502  37T502      0.2207
      3  N1         8.1930   22.6370   57.3280 N.2   502  37T502     -0.2291
      4  C5         5.9910   22.0760   58.1370 C.3   502  37T502      0.2882
      5  N7         4.9480   21.6900   58.8770 N.3   502  37T502     -0.2030
      6  C13        5.0070   21.2450   60.2700 C.3   502  37T502      0.0951
      7  C8         3.8380   21.7820   58.1050 C.3   502  37T502      0.3434
      8  N9         4.1400   22.2300   56.8520 N.2   502  37T502     -0.0464
      9  C4         5.4780   22.4300   56.8300 C.2   502  37T502      0.3435
     10  N3         6.3100   22.8470   55.8720 N.am  502  37T502     -0.0804
     11  C12        5.7670   23.1910   54.5610 C.3   502  37T502      0.2727
     12  C2         7.6350   22.9460   56.1200 C.1   502  37T502      0.3737
     13  O2         8.3930   23.3350   55.2050 O.2   502  37T502     -0.1671
@<TRIPOS>BOND
     1    11    10    1
     2    13    12    2
     3    10    12   am
     4    10     9    1
     5    12     3    2
     6     9     8    2
     7     9     4    1
     8     8     7    1
     9     3     2    2
    10     7     5    1
    11     4     2    1
    12     4     5    1
    13     2     1    2
    14     5     6    1
