@<TRIPOS>MOLECULE
2efj_SAH_A_1.pdb
 26 28 0 0 0
SMALL
GASTEIGER

@<TRIPOS>ATOM
      1  N          2.1880   28.0120   51.3780 N.3   501  SAH501     -0.1208
      2  CA         1.6480   26.6230   51.2490 C.3   501  SAH501      0.1952
      3  CB         2.7660   25.6220   50.9460 C.3   501  SAH501      0.0422
      4  CG         3.8910   25.5090   51.9650 C.3   501  SAH501      0.0597
      5  SD         4.8210   23.9570   51.7340 S.3   501  SAH501     -0.1375
      6  C          0.8810   26.1610   52.4860 C.2   501  SAH501      0.3819
      7  O          0.5570   26.9500   53.3900 O.co2 501  SAH501     -0.2441
      8  OXT        0.5710   24.9750   52.5870 O.co2 501  SAH501     -0.2441
      9  C5'        6.3430   24.7510   51.1730 C.3   501  SAH501      0.0899
     10  C4'        6.3480   25.0390   49.6830 C.3   501  SAH501      0.1630
     11  O4'        7.4580   25.8480   49.4700 O.3   501  SAH501     -0.3153
     12  C3'        6.5270   23.8460   48.7350 C.3   501  SAH501      0.2168
     13  O3'        5.4380   23.7220   47.8390 O.3   501  SAH501     -0.2175
     14  C2'        7.8180   24.1650   47.9820 C.3   501  SAH501      0.2569
     15  O2'        7.8850   23.7010   46.6410 O.3   501  SAH501     -0.2130
     16  C1'        7.8450   25.6760   48.1150 C.3   501  SAH501      0.3185
     17  N9         9.1730   26.2720   47.8530 N.pl3 501  SAH501     -0.1439
     18  C8        10.3510   26.0580   48.5250 C.3   501  SAH501      0.3377
     19  N7        11.3430   26.8000   47.9570 N.2   501  SAH501     -0.2095
     20  C5        10.8030   27.5030   46.9300 C.2   501  SAH501      0.2526
     21  C6        11.3390   28.4290   46.0230 C.2   501  SAH501      0.4393
     22  N6        12.6270   28.7580   46.0670 N.pl3 501  SAH501      0.2180
     23  N1        10.5190   28.9990   45.0760 N.2   501  SAH501      0.0021
     24  C2         9.1750   28.6700   45.0100 C.3   501  SAH501      0.5254
     25  N3         8.6390   27.7480   45.9080 N.2   501  SAH501     -0.0055
     26  C4         9.4370   27.1830   46.8590 C.2   501  SAH501      0.3518
@<TRIPOS>BOND
     1    24    23    1
     2    24    25    1
     3    23    21    2
     4    25    26    2
     5    21    22    1
     6    21    20    1
     7    15    14    1
     8    26    20    1
     9    26    17    1
    10    20    19    2
    11    13    12    1
    12    17    16    1
    13    17    18    1
    14    19    18    1
    15    14    16    1
    16    14    12    1
    17    16    11    1
    18    12    10    1
    19    11    10    1
    20    10     9    1
    21     3     2    1
    22     3     4    1
    23     9     5    1
    24     2     1    1
    25     2     6    1
    26     5     4    1
    27     6     8   ar
    28     6     7   ar
