@<TRIPOS>MOLECULE
2efp_GLN_A_1.pdb
 10 9 0 0 0
SMALL
GASTEIGER

@<TRIPOS>ATOM
      1  N        -32.7450  -54.8310   -8.4400 N.3   1002  GLN1002    -0.1208
      2  CA       -32.6250  -53.3490   -8.3670 C.3   1002  GLN1002     0.1948
      3  C        -32.1650  -52.9300   -6.9800 C.2   1002  GLN1002     0.3819
      4  O        -33.0110  -52.4380   -6.1980 O.co2 1002  GLN1002    -0.2441
      5  CB       -33.9630  -52.6830   -8.6810 C.3   1002  GLN1002     0.0403
      6  CG       -33.9270  -51.1540   -8.7230 C.3   1002  GLN1002     0.0906
      7  CD       -33.0760  -50.6040   -9.8690 C.2   1002  GLN1002     0.2608
      8  OE1      -33.0070  -49.3910  -10.0820 O.2   1002  GLN1002    -0.2717
      9  NE2      -32.4270  -51.4970  -10.6080 N.am  1002  GLN1002    -0.0878
     10  OXT      -30.9570  -53.1100   -6.6830 O.co2 1002  GLN1002    -0.2441
@<TRIPOS>BOND
     1     9     7   am
     2     8     7    2
     3     7     6    1
     4     6     5    1
     5     5     2    1
     6     1     2    1
     7     2     3    1
     8     3    10   ar
     9     3     4   ar
