@<TRIPOS>MOLECULE
2efq_GLN_A_1.pdb
 10 9 0 0 0
SMALL
GASTEIGER

@<TRIPOS>ATOM
      1  N         52.8070   32.5500    6.1660 N.3   152  GLN152     -0.1208
      2  CA        53.5780   33.3550    7.1550 C.3   152  GLN152      0.1948
      3  C         54.8280   32.6170    7.6270 C.2   152  GLN152      0.3819
      4  O         54.8170   32.0700    8.7490 O.co2 152  GLN152     -0.2441
      5  CB        52.6850   33.7130    8.3470 C.3   152  GLN152      0.0403
      6  CG        51.6880   32.6230    8.7170 C.3   152  GLN152      0.0906
      7  CD        50.7000   33.0490    9.7940 C.2   152  GLN152      0.2608
      8  OE1       51.0790   33.2870   10.9390 O.2   152  GLN152     -0.2717
      9  NE2       49.4260   33.1440    9.4290 N.am  152  GLN152     -0.0878
     10  OXT       55.8140   32.5940    6.8550 O.co2 152  GLN152     -0.2441
@<TRIPOS>BOND
     1     1     2    1
     2    10     3   ar
     3     2     3    1
     4     2     5    1
     5     3     4   ar
     6     5     6    1
     7     6     7    1
     8     9     7   am
     9     7     8    2
