@<TRIPOS>MOLECULE
2efu_PHE_A_1.pdb
 12 12 0 0 0
SMALL
GASTEIGER

@<TRIPOS>ATOM
      1  N        -12.6540   39.3270   86.8000 N.3   2001  PHE2001    -0.1205
      2  CA       -12.6020   39.4500   88.2810 C.3   2001  PHE2001     0.1986
      3  C        -11.1460   39.4650   88.7430 C.2   2001  PHE2001     0.3822
      4  O        -10.8550   39.6830   89.9120 O.co2 2001  PHE2001    -0.2440
      5  CB       -13.3790   38.3080   88.9440 C.3   2001  PHE2001     0.0569
      6  CG       -14.8220   38.2150   88.5050 C.ar  2001  PHE2001    -0.0202
      7  CD1      -15.2220   37.2560   87.5680 C.ar  2001  PHE2001    -0.0042
      8  CD2      -15.7840   39.0930   89.0210 C.ar  2001  PHE2001    -0.0042
      9  CE1      -16.5560   37.1760   87.1490 C.ar  2001  PHE2001    -0.0003
     10  CE2      -17.1270   39.0160   88.6080 C.ar  2001  PHE2001    -0.0003
     11  CZ       -17.5090   38.0570   87.6730 C.ar  2001  PHE2001    -0.0000
     12  OXT      -10.2140   39.2600   87.9480 O.co2 2001  PHE2001    -0.2440
@<TRIPOS>BOND
     1     1     2    1
     2     9     7   ar
     3     9    11   ar
     4     7     6   ar
     5    11    10   ar
     6    12     3   ar
     7     2     3    1
     8     2     5    1
     9     6     5    1
    10     6     8   ar
    11    10     8   ar
    12     3     4   ar
