@<TRIPOS>MOLECULE
2efx_NFA_A_1.pdb
 12 12 0 0 0
SMALL
GASTEIGER

@<TRIPOS>ATOM
      1  N        -12.7100   38.5820   86.1910 N.3   2001  NFA2001    -0.1226
      2  CA       -12.9380   39.2810   87.4330 C.3   2001  NFA2001     0.1753
      3  C        -11.5890   39.7190   87.9190 C.2   2001  NFA2001     0.2785
      4  O        -11.2940   39.6260   89.1080 O.2   2001  NFA2001    -0.2701
      5  CB       -13.6510   38.3550   88.4170 C.3   2001  NFA2001     0.0548
      6  CG       -15.0660   38.1340   87.9070 C.ar  2001  NFA2001    -0.0202
      7  CD1      -16.0570   39.1100   88.1310 C.ar  2001  NFA2001    -0.0042
      8  CD2      -15.3710   36.9620   87.1940 C.ar  2001  NFA2001    -0.0042
      9  CE1      -17.3530   38.9110   87.6430 C.ar  2001  NFA2001    -0.0003
     10  CE2      -16.6620   36.7720   86.7000 C.ar  2001  NFA2001    -0.0003
     11  CZ       -17.6560   37.7400   86.9280 C.ar  2001  NFA2001    -0.0000
     12  NXT      -10.7320   40.2020   87.0090 N.am  2001  NFA2001    -0.0865
@<TRIPOS>BOND
     1     1     2    1
     2    10    11   ar
     3    10     8   ar
     4    11     9   ar
     5    12     3   am
     6     8     6   ar
     7     2     3    1
     8     2     5    1
     9     9     7   ar
    10     6     7   ar
    11     6     5    1
    12     3     4    2
