@<TRIPOS>MOLECULE
2efy_PLP_A_1.pdb
 15 15 0 0 0
SMALL
GASTEIGER

@<TRIPOS>ATOM
      1  N1        19.6070   52.7350   -5.0570 N.ar  413  PLP413     -0.2452
      2  C2        20.1920   51.5950   -5.5180 C.ar  413  PLP413      0.0978
      3  C2A       21.1780   50.8450   -4.5520 C.3   413  PLP413      0.0555
      4  C3        19.9090   51.1420   -6.8080 C.ar  413  PLP413      0.2049
      5  O3        20.4990   50.0170   -7.2730 O.3   413  PLP413     -0.2857
      6  C4        19.0300   51.8620   -7.6150 C.ar  413  PLP413      0.0182
      7  C4A       18.7040   51.3730   -9.0140 C.3   413  PLP413      0.0342
      8  C5        18.4370   53.0410   -7.1060 C.ar  413  PLP413      0.0261
      9  C6        18.7450   53.4430   -5.8390 C.ar  413  PLP413      0.0965
     10  C5A       17.4620   53.9600   -7.8780 C.3   413  PLP413      0.1815
     11  O4P       16.2290   53.4630   -8.4890 O.3   413  PLP413     -0.2653
     12  P         15.9290   53.9350  -10.0140 P.3   413  PLP413      0.5329
     13  O1P       17.0170   53.5110  -10.9120 O.2   413  PLP413     -0.2224
     14  O2P       14.6530   53.0700  -10.3550 O.3   413  PLP413     -0.1145
     15  O3P       15.5830   55.3630   -9.9820 O.3   413  PLP413     -0.1145
@<TRIPOS>BOND
     1    13    12    2
     2    14    12    1
     3    12    15    1
     4    12    11    1
     5     7     6    1
     6    11    10    1
     7    10     8    1
     8     6     8   ar
     9     6     4   ar
    10     5     4    1
    11     8     9   ar
    12     4     2   ar
    13     9     1   ar
    14     2     1   ar
    15     2     3    1
