@<TRIPOS>MOLECULE
2eg2_ATP_A_1.pdb
 31 33 0 0 0
SMALL
GASTEIGER

@<TRIPOS>ATOM
      1  PG        13.8660   30.8560    1.4480 P.3   501  ATP501      0.5373
      2  O1G       12.7510   31.5510    2.1290 O.3   501  ATP501     -0.1143
      3  O2G       15.2610   31.0580    2.2270 O.3   501  ATP501     -0.1143
      4  O3G       14.1080   31.4120   -0.0440 O.2   501  ATP501     -0.2221
      5  PB        14.8010   28.2160    1.6060 P.3   501  ATP501      0.2277
      6  O1B       14.7620   27.0360    0.7130 O.2   501  ATP501     -0.5168
      7  O2B       16.1970   29.0080    1.4740 O.3   501  ATP501     -0.4368
      8  O3B       13.6260   29.2710    1.2920 O.3   501  ATP501     -0.2258
      9  PA        15.3110   28.6860    4.3270 P.3   501  ATP501      0.2189
     10  O1A       14.3590   29.6140    4.9760 O.3   501  ATP501     -0.4371
     11  O2A       16.5770   29.4380    3.6750 O.2   501  ATP501     -0.5170
     12  O3A       14.6220   27.8210    3.1570 O.3   501  ATP501     -0.2700
     13  O5'       15.9280   27.5920    5.3340 O.3   501  ATP501     -0.3112
     14  C5'       15.8790   27.7700    6.7520 C.3   501  ATP501      0.1813
     15  C4'       16.3670   26.4850    7.4220 C.3   501  ATP501      0.1821
     16  O4'       15.5650   25.3540    7.0450 O.3   501  ATP501     -0.3135
     17  C3'       17.7390   26.1470    6.8430 C.3   501  ATP501      0.2184
     18  O3'       18.7250   26.9700    7.4740 O.3   501  ATP501     -0.2174
     19  C2'       17.8310   24.7170    7.3700 C.3   501  ATP501      0.2570
     20  O2'       18.0530   24.7370    8.7810 O.3   501  ATP501     -0.2130
     21  C1'       16.4200   24.1960    7.0790 C.3   501  ATP501      0.3186
     22  N9        16.3720   23.5760    5.7350 N.pl3 501  ATP501     -0.1439
     23  C8        16.0490   24.1940    4.6010 C.3   501  ATP501      0.3377
     24  N7        16.0810   23.3220    3.5960 N.2   501  ATP501     -0.2095
     25  C5        16.4270   22.1390    4.0940 C.2   501  ATP501      0.2526
     26  C6        16.6150   20.8770    3.5460 C.2   501  ATP501      0.4393
     27  N6        16.4440   20.6770    2.2420 N.pl3 501  ATP501      0.2180
     28  N1        16.9710   19.8670    4.3520 N.2   501  ATP501      0.0021
     29  C2        17.1480   20.0590    5.6470 C.3   501  ATP501      0.5254
     30  N3        16.9780   21.2450    6.2040 N.2   501  ATP501     -0.0055
     31  C4        16.6170   22.3000    5.4590 C.2   501  ATP501      0.3518
@<TRIPOS>BOND
     1     4     1    2
     2     6     5    2
     3     8     1    1
     4     8     5    1
     5     1     2    1
     6     1     3    1
     7     7     5    1
     8     5    12    1
     9    27    26    1
    10    12     9    1
    11    26    25    1
    12    26    28    2
    13    24    25    2
    14    24    23    1
    15    11     9    2
    16    25    31    1
    17     9    10    1
    18     9    13    1
    19    28    29    1
    20    23    22    1
    21    13    14    1
    22    31    22    1
    23    31    30    2
    24    29    30    1
    25    22    21    1
    26    14    15    1
    27    17    19    1
    28    17    15    1
    29    17    18    1
    30    16    21    1
    31    16    15    1
    32    21    19    1
    33    19    20    1
