@<TRIPOS>MOLECULE
2eg5_XTS_A_1.pdb
 20 22 0 0 0
SMALL
GASTEIGER

@<TRIPOS>ATOM
      1  O6        31.8280   92.6360  104.3890 O.2   502  XTS502     -0.2068
      2  C6        32.8830   93.0070  103.8580 C.1   502  XTS502      0.2388
      3  N1        33.0930   94.3560  103.4980 N.2   502  XTS502     -0.2311
      4  C2        34.3120   94.7680  102.8940 C.1   502  XTS502      0.3668
      5  O2        34.5010   95.9370  102.5530 O.2   502  XTS502     -0.1744
      6  N3        35.3180   93.8310  102.6530 N.2   502  XTS502     -0.2901
      7  C4        35.1110   92.5010  103.0320 C.2   502  XTS502      0.2316
      8  C5        33.9040   92.0850  103.6300 C.2   502  XTS502      0.2183
      9  N7        33.9940   90.7660  103.8720 N.2   502  XTS502     -0.2322
     10  C8        35.1960   90.3840  103.4420 C.3   502  XTS502      0.2246
     11  N9        35.8790   91.4290  102.9440 N.pl3 502  XTS502     -0.2353
     12  C1'       37.2440   91.3130  102.3460 C.3   502  XTS502      0.2293
     13  O4'       36.9270   90.6710  101.0470 O.3   502  XTS502     -0.3325
     14  C4'       38.2070   90.4310  100.4180 C.3   502  XTS502      0.1828
     15  C5'       38.7350   89.0370  100.8490 C.3   502  XTS502      0.2142
     16  O5'       38.6430   88.0470   99.8050 O.3   502  XTS502     -0.2176
     17  C3'       39.1250   91.5540  100.9610 C.3   502  XTS502      0.2159
     18  O3'       39.6170   92.3210   99.8810 O.3   502  XTS502     -0.2175
     19  C2'       38.2760   92.4090  101.9310 C.3   502  XTS502      0.2310
     20  O2'       37.7410   93.5420  101.2240 O.3   502  XTS502     -0.2158
@<TRIPOS>BOND
     1    16    15    1
     2    18    17    1
     3    14    15    1
     4    14    17    1
     5    14    13    1
     6    17    19    1
     7    13    12    1
     8    20    19    1
     9    19    12    1
    10    12    11    1
    11     5     4    2
    12     6     4    2
    13     6     7    2
    14     4     3    2
    15    11     7    1
    16    11    10    1
    17     7     8    1
    18    10     9    1
    19     3     2    2
    20     8     2    1
    21     8     9    2
    22     2     1    2
