@<TRIPOS>MOLECULE
2eg5_SAH_A_1.pdb
 26 28 0 0 0
SMALL
GASTEIGER

@<TRIPOS>ATOM
      1  N         31.6910   86.5620  109.2260 N.3   501  SAH501     -0.1208
      2  CA        32.3690   86.5700  107.8770 C.3   501  SAH501      0.1952
      3  CB        32.1130   87.8480  107.1040 C.3   501  SAH501      0.0422
      4  CG        30.7120   87.8260  106.5200 C.3   501  SAH501      0.0597
      5  SD        30.5930   89.0620  105.2090 S.3   501  SAH501     -0.1375
      6  C         33.8770   86.3220  107.9030 C.2   501  SAH501      0.3819
      7  O         34.5140   86.4790  108.9370 O.co2 501  SAH501     -0.2441
      8  OXT       34.4910   85.9520  106.8830 O.co2 501  SAH501     -0.2441
      9  C5'       29.4560   90.1770  106.0750 C.3   501  SAH501      0.0899
     10  C4'       28.1150   89.4530  106.3050 C.3   501  SAH501      0.1630
     11  O4'       27.2400   90.1460  107.1930 O.3   501  SAH501     -0.3153
     12  C3'       27.2980   89.2210  105.0390 C.3   501  SAH501      0.2168
     13  O3'       27.0090   87.8470  104.9410 O.3   501  SAH501     -0.2175
     14  C2'       25.9960   89.9660  105.2880 C.3   501  SAH501      0.2569
     15  O2'       24.8950   89.3320  104.6800 O.3   501  SAH501     -0.2130
     16  C1'       25.8900   89.9300  106.8010 C.3   501  SAH501      0.3185
     17  N9        25.0170   90.9610  107.3990 N.pl3 501  SAH501     -0.1439
     18  C8        24.9910   92.2960  107.1290 C.3   501  SAH501      0.3377
     19  N7        24.0820   92.9130  107.9220 N.2   501  SAH501     -0.2095
     20  C5        23.5050   91.9540  108.7180 C.2   501  SAH501      0.2526
     21  C6        22.5070   92.0020  109.7310 C.2   501  SAH501      0.4393
     22  N6        21.9030   93.1570  110.0620 N.pl3 501  SAH501      0.2180
     23  N1        22.1460   90.8100  110.3800 N.2   501  SAH501      0.0021
     24  C2        22.7440   89.5680  110.0570 C.3   501  SAH501      0.5254
     25  N3        23.7360   89.5470  109.0780 N.2   501  SAH501     -0.0055
     26  C4        24.1060   90.7120  108.4120 C.2   501  SAH501      0.3518
@<TRIPOS>BOND
     1    15    14    1
     2    13    12    1
     3    12    14    1
     4    12    10    1
     5     5     9    1
     6     5     4    1
     7    14    16    1
     8     9    10    1
     9    10    11    1
    10     4     3    1
    11    16    11    1
    12    16    17    1
    13     8     6   ar
    14     3     2    1
    15    18    17    1
    16    18    19    1
    17    17    26    1
    18     2     6    1
    19     2     1    1
    20     6     7   ar
    21    19    20    2
    22    26    20    1
    23    26    25    2
    24    20    21    1
    25    25    24    1
    26    21    22    1
    27    21    23    2
    28    24    23    1
