@<TRIPOS>MOLECULE
2eg7_OTD_A_1.pdb
 13 13 0 0 0
SMALL
GASTEIGER

@<TRIPOS>ATOM
      1  N1        26.3330   38.8610   73.3320 N.2   410  OTD410     -0.3057
      2  N3        24.7630   40.3600   72.2640 N.2   410  OTD410     -0.3057
      3  C4        25.5910   41.4710   72.5010 C.2   410  OTD410      0.2107
      4  C5        26.7890   41.3490   73.1630 C.3   410  OTD410      0.1339
      5  C6        27.1900   39.9630   73.7130 C.2   410  OTD410      0.2107
      6  O61       28.9890   38.6480   72.8760 O.co2 410  OTD410     -0.2380
      7  C61       28.6510   39.6490   73.5420 C.2   410  OTD410      0.4141
      8  O62       29.3680   40.4210   74.1490 O.co2 410  OTD410     -0.2380
      9  C41       25.1280   42.8190   72.0260 C.2   410  OTD410      0.4141
     10  O42       25.8460   43.8340   72.2450 O.co2 410  OTD410     -0.2380
     11  O41       24.0210   42.7850   71.4300 O.co2 410  OTD410     -0.2380
     12  C2        25.1320   39.0690   72.6790 C.1   410  OTD410      0.3551
     13  O2        24.4370   38.0750   72.4690 O.2   410  OTD410     -0.1752
@<TRIPOS>BOND
     1    11     9   ar
     2     9    10   ar
     3     9     3    1
     4     2     3    2
     5     2    12    2
     6    13    12    2
     7     3     4    1
     8    12     1    2
     9     6     7   ar
    10     4     5    1
    11     1     5    2
    12     7     5    1
    13     7     8   ar
