@<TRIPOS>MOLECULE
2eg8_FOT_A_1.pdb
 12 12 0 0 0
SMALL
GASTEIGER

@<TRIPOS>ATOM
      1  C2        25.7090   39.1610   72.5410 C.1   410  FOT410      0.3653
      2  C6        27.8520   39.9840   72.0690 C.1   410  FOT410      0.2333
      3  C5        27.3000   41.3380   71.9450 C.3   410  FOT410      0.3364
      4  O2        24.9640   38.1850   72.7980 O.2   410  FOT410     -0.1745
      5  N3        25.1360   40.3720   72.4330 N.2   410  FOT410     -0.3016
      6  N1        27.0290   38.9700   72.3740 N.2   410  FOT410     -0.2339
      7  O6        29.0720   39.8380   71.9110 O.2   410  FOT410     -0.2101
      8  F5        28.0770   42.3880   71.6310 F     410  FOT410     -0.2098
      9  C4        25.8480   41.4600   72.1500 C.2   410  FOT410      0.2530
     10  C41       25.2220   42.7910   72.0010 C.2   410  FOT410      0.4176
     11  O42       25.9010   43.7520   72.3850 O.co2 410  FOT410     -0.2379
     12  O41       24.0950   42.8860   71.4440 O.co2 410  FOT410     -0.2379
@<TRIPOS>BOND
     1    12    10   ar
     2     8     3    1
     3     7     2    2
     4     3     2    1
     5     3     9    1
     6    10     9    1
     7    10    11   ar
     8     2     6    2
     9     9     5    2
    10     6     1    2
    11     5     1    2
    12     1     4    2
