@<TRIPOS>MOLECULE
2egb_SAH_A_1.pdb
 26 28 0 0 0
SMALL
GASTEIGER

@<TRIPOS>ATOM
      1  N         33.7350   92.8230   66.2440 N.3   1300  SAH1300    -0.1208
      2  CA        32.2970   92.3590   66.0220 C.3   1300  SAH1300     0.1952
      3  CB        31.6300   91.6410   67.1590 C.3   1300  SAH1300     0.0422
      4  CG        32.2670   90.3790   67.7170 C.3   1300  SAH1300     0.0597
      5  SD        31.1190   89.7080   68.9860 S.3   1300  SAH1300    -0.1375
      6  C         31.4610   93.6460   65.6130 C.2   1300  SAH1300     0.3819
      7  O         32.0470   94.7470   65.5610 O.co2 1300  SAH1300    -0.2441
      8  OXT       30.2030   93.4650   65.3510 O.co2 1300  SAH1300    -0.2441
      9  C5'       30.1960   88.6020   67.9930 C.3   1300  SAH1300     0.0899
     10  C4'       28.7140   88.4990   68.5330 C.3   1300  SAH1300     0.1630
     11  O4'       28.0760   89.7850   68.3230 O.3   1300  SAH1300    -0.3153
     12  C3'       27.8590   87.4880   67.8510 C.3   1300  SAH1300     0.2168
     13  O3'       27.9950   86.2180   68.4700 O.3   1300  SAH1300    -0.2175
     14  C2'       26.4570   88.1270   67.9770 C.3   1300  SAH1300     0.2569
     15  O2'       25.8560   87.8560   69.2430 O.3   1300  SAH1300    -0.2130
     16  C1'       26.7120   89.6190   67.7230 C.3   1300  SAH1300     0.3185
     17  N9        26.7030   89.9730   66.4200 N.pl3 1300  SAH1300    -0.1439
     18  C8        27.6780   90.2600   65.4770 C.3   1300  SAH1300     0.3377
     19  N7        27.2320   90.5730   64.3000 N.2   1300  SAH1300    -0.2095
     20  C5        25.8160   90.5020   64.4290 C.2   1300  SAH1300     0.2526
     21  C6        24.7560   90.7400   63.4800 C.2   1300  SAH1300     0.4393
     22  N6        24.9580   91.0960   62.2070 N.pl3 1300  SAH1300     0.2180
     23  N1        23.4850   90.5720   63.9780 N.2   1300  SAH1300     0.0021
     24  C2        23.2250   90.2060   65.2660 C.3   1300  SAH1300     0.5254
     25  N3        24.2070   89.9700   66.1990 N.2   1300  SAH1300    -0.0055
     26  C4        25.4750   90.1380   65.7100 C.2   1300  SAH1300     0.3518
@<TRIPOS>BOND
     1    22    21    1
     2    21    23    2
     3    21    20    1
     4    23    24    1
     5    19    20    2
     6    19    18    1
     7    20    26    1
     8    24    25    1
     9     8     6   ar
    10    18    17    1
    11     7     6   ar
    12     6     2    1
    13    26    25    2
    14    26    17    1
    15     2     1    1
    16     2     3    1
    17    17    16    1
    18     3     4    1
    19     4     5    1
    20    16    14    1
    21    16    11    1
    22    12    14    1
    23    12    13    1
    24    12    10    1
    25    14    15    1
    26     9    10    1
    27     9     5    1
    28    11    10    1
