@<TRIPOS>MOLECULE
2egh_NDP_A_1.pdb
 48 52 0 0 0
SMALL
GASTEIGER

@<TRIPOS>ATOM
      1  PA        13.6240    2.7470   70.2280 P.3   3001  NDP3001     0.2189
      2  O1A       13.9950    3.8220   70.8680 O.3   3001  NDP3001    -0.4371
      3  O2A       12.5930    2.5620   69.0510 O.2   3001  NDP3001    -0.5170
      4  O5B       14.7150    1.5220   70.3340 O.3   3001  NDP3001    -0.3112
      5  C5B       15.7980    1.5650   71.5230 C.3   3001  NDP3001     0.1813
      6  C4B       16.2840    0.0960   71.6640 C.3   3001  NDP3001     0.1820
      7  O4B       17.5270   -0.2760   72.3690 O.3   3001  NDP3001    -0.3136
      8  C3B       15.2200   -0.7700   72.4210 C.3   3001  NDP3001     0.2157
      9  O3B       15.1960   -1.9930   71.5140 O.3   3001  NDP3001    -0.2175
     10  C2B       15.7560   -1.1370   73.9240 C.3   3001  NDP3001     0.2314
     11  O2B       14.9050   -2.2030   73.5950 O.3   3001  NDP3001    -0.2630
     12  C1B       17.2400   -1.0720   73.5590 C.3   3001  NDP3001     0.3158
     13  N9A       17.8830   -0.3240   74.5660 N.pl3 3001  NDP3001    -0.1439
     14  C8A       17.6690    0.9340   75.1520 C.3   3001  NDP3001     0.3377
     15  N7A       18.5480    1.0320   76.1610 N.2   3001  NDP3001    -0.2095
     16  C5A       19.3560   -0.1010   76.1760 C.2   3001  NDP3001     0.2526
     17  C6A       20.4720   -0.6040   76.9330 C.2   3001  NDP3001     0.4393
     18  N6A       20.9940    0.0420   77.9610 N.pl3 3001  NDP3001     0.2180
     19  N1A       20.9820   -1.8860   76.6380 N.2   3001  NDP3001     0.0021
     20  C2A       20.4520   -2.5940   75.6020 C.3   3001  NDP3001     0.5254
     21  N3A       19.4230   -2.1970   74.8380 N.2   3001  NDP3001    -0.0055
     22  C4A       18.9250   -0.9650   75.1760 C.2   3001  NDP3001     0.3518
     23  O3        14.4360    3.2120   68.9760 O.3   3001  NDP3001    -0.2703
     24  PN        15.1560    3.7490   67.5670 P.3   3001  NDP3001     0.2189
     25  O1N       14.3070    3.4360   66.4820 O.2   3001  NDP3001    -0.5170
     26  O2N       15.9390    2.8320   67.4830 O.3   3001  NDP3001    -0.4371
     27  O5D       16.5510    4.5350   67.3790 O.3   3001  NDP3001    -0.3112
     28  C5D       17.2110    5.2220   68.3340 C.3   3001  NDP3001     0.1813
     29  C4D       18.4770    5.5490   67.6160 C.3   3001  NDP3001     0.1799
     30  O4D       18.6840    5.4410   66.2000 O.3   3001  NDP3001    -0.3327
     31  C3D       19.1440    6.6510   68.3240 C.3   3001  NDP3001     0.2158
     32  O3D       20.5090    6.2750   68.3720 O.3   3001  NDP3001    -0.2175
     33  C2D       18.5430    7.6290   67.1570 C.3   3001  NDP3001     0.2309
     34  O2D       18.9350    8.9500   67.2500 O.3   3001  NDP3001    -0.2158
     35  C1D       18.9950    6.8570   65.8640 C.3   3001  NDP3001     0.2263
     36  N1N       18.2530    6.9360   64.5450 N.pl3 3001  NDP3001    -0.2787
     37  C2N       16.8100    6.5940   64.5300 C.3   3001  NDP3001     0.1244
     38  C3N       16.0950    6.6130   63.3680 C.2   3001  NDP3001     0.0544
     39  C7N       14.6000    6.2570   63.2080 C.2   3001  NDP3001     0.2818
     40  O7N       14.0820    6.3000   62.1030 O.2   3001  NDP3001    -0.2670
     41  N7N       13.9600    5.8460   64.3670 N.am  3001  NDP3001    -0.0839
     42  C4N       16.7480    7.0130   61.9530 C.2   3001  NDP3001     0.0033
     43  C5N       18.2460    7.3510   62.1850 C.2   3001  NDP3001     0.0157
     44  C6N       18.8880    7.2700   63.3240 C.2   3001  NDP3001     0.0633
     45  P2B       13.7570   -2.3230   74.6680 P.3   3001  NDP3001     0.5328
     46  O1X       12.5640   -1.5290   74.0650 O.2   3001  NDP3001    -0.2224
     47  O2X       13.6130   -3.7450   74.7990 O.3   3001  NDP3001    -0.1145
     48  O3X       14.1240   -1.5690   75.9750 O.3   3001  NDP3001    -0.1145
@<TRIPOS>BOND
     1    42    43    1
     2    42    38    2
     3    40    39    2
     4    43    44    2
     5    39    38    1
     6    39    41   am
     7    44    36    1
     8    38    37    1
     9    37    36    1
    10    36    35    1
    11    35    30    1
    12    35    33    1
    13    30    29    1
    14    25    24    2
    15    33    34    1
    16    33    31    1
    17    27    24    1
    18    27    28    1
    19    26    24    1
    20    24    23    1
    21    29    31    1
    22    29    28    1
    23    31    32    1
    24    23     1    1
    25     3     1    2
    26     1     4    1
    27     1     2    1
    28     4     5    1
    29     9     8    1
    30     5     6    1
    31     6     7    1
    32     6     8    1
    33     7    12    1
    34     8    10    1
    35    12    10    1
    36    12    13    1
    37    11    10    1
    38    11    45    1
    39    46    45    2
    40    13    14    1
    41    13    22    1
    42    45    47    1
    43    45    48    1
    44    21    22    2
    45    21    20    1
    46    14    15    1
    47    22    16    1
    48    20    19    1
    49    15    16    2
    50    16    17    1
    51    19    17    2
    52    17    18    1
