@<TRIPOS>MOLECULE
2egh_FOM_A_1.pdb
 11 10 0 0 0
SMALL
GASTEIGER

@<TRIPOS>ATOM
      1  O2        16.3480   13.1080   60.2310 O.3   1001  FOM1001    -0.4192
      2  N1        15.3170   12.4610   59.7590 N.am  1001  FOM1001    -0.2750
      3  C1        15.4170   11.1470   59.4280 C.2   1001  FOM1001     0.1133
      4  O1        16.3420   10.3890   59.4850 O.2   1001  FOM1001    -0.5358
      5  C2        14.0410   13.1970   59.5950 C.3   1001  FOM1001     0.1242
      6  C3        13.5850   13.9490   60.8790 C.2   1001  FOM1001    -0.0014
      7  C4        13.4590   15.5020   60.7520 C.2   1001  FOM1001     0.0286
      8  PA1       13.9050   16.3130   59.2120 P.3   1001  FOM1001     0.1394
      9  OP1       15.4090   15.9180   58.8500 O.3   1001  FOM1001    -0.3542
     10  OP2       13.0250   15.7300   58.0140 O.2   1001  FOM1001    -0.4557
     11  OP3       13.7490   17.8820   59.1590 O.3   1001  FOM1001    -0.3542
@<TRIPOS>BOND
     1    10     8    2
     2     9     8    1
     3    11     8    1
     4     8     7    1
     5     3     4    2
     6     3     2   am
     7     5     2    1
     8     5     6    1
     9     2     1    1
    10     7     6    2
