@<TRIPOS>MOLECULE
2egl_SAH_A_1.pdb
 26 28 0 0 0
SMALL
GASTEIGER

@<TRIPOS>ATOM
      1  N         33.6990   92.4880   66.4540 N.3   1300  SAH1300    -0.1208
      2  CA        32.2560   92.0290   66.2590 C.3   1300  SAH1300     0.1952
      3  CB        31.5930   91.3360   67.4130 C.3   1300  SAH1300     0.0422
      4  CG        32.2150   90.0810   67.9920 C.3   1300  SAH1300     0.0597
      5  SD        31.0230   89.4410   69.2320 S.3   1300  SAH1300    -0.1375
      6  C         31.4180   93.3090   65.8470 C.2   1300  SAH1300     0.3819
      7  O         32.0010   94.4090   65.7690 O.co2 1300  SAH1300    -0.2441
      8  OXT       30.1550   93.1170   65.6090 O.co2 1300  SAH1300    -0.2441
      9  C5'       30.1410   88.3040   68.2450 C.3   1300  SAH1300     0.0899
     10  C4'       28.6520   88.1980   68.7640 C.3   1300  SAH1300     0.1630
     11  O4'       28.0090   89.4690   68.5090 O.3   1300  SAH1300    -0.3153
     12  C3'       27.8260   87.1630   68.0950 C.3   1300  SAH1300     0.2168
     13  O3'       27.9800   85.9070   68.7430 O.3   1300  SAH1300    -0.2175
     14  C2'       26.4090   87.7850   68.1910 C.3   1300  SAH1300     0.2569
     15  O2'       25.7940   87.5180   69.4530 O.3   1300  SAH1300    -0.2130
     16  C1'       26.6420   89.2800   67.9250 C.3   1300  SAH1300     0.3185
     17  N9        26.6170   89.6350   66.6200 N.pl3 1300  SAH1300    -0.1439
     18  C8        27.5840   89.9200   65.6680 C.3   1300  SAH1300     0.3377
     19  N7        27.1290   90.2330   64.4950 N.2   1300  SAH1300    -0.2095
     20  C5        25.7130   90.1650   64.6350 C.2   1300  SAH1300     0.2526
     21  C6        24.6470   90.4050   63.6940 C.2   1300  SAH1300     0.4393
     22  N6        24.8410   90.7610   62.4140 N.pl3 1300  SAH1300     0.2180
     23  N1        23.3800   90.2400   64.2020 N.2   1300  SAH1300     0.0021
     24  C2        23.1290   89.8760   65.4920 C.3   1300  SAH1300     0.5254
     25  N3        24.1200   89.6380   66.4160 N.2   1300  SAH1300    -0.0055
     26  C4        25.3830   89.8020   65.9190 C.2   1300  SAH1300     0.3518
@<TRIPOS>BOND
     1    22    21    1
     2    21    23    2
     3    21    20    1
     4    23    24    1
     5    19    20    2
     6    19    18    1
     7    20    26    1
     8    24    25    1
     9     8     6   ar
    10    18    17    1
    11     7     6   ar
    12     6     2    1
    13    26    25    2
    14    26    17    1
    15     2     1    1
    16     2     3    1
    17    17    16    1
    18     3     4    1
    19    16    14    1
    20    16    11    1
    21     4     5    1
    22    12    14    1
    23    12    13    1
    24    12    10    1
    25    14    15    1
    26     9    10    1
    27     9     5    1
    28    11    10    1
