@<TRIPOS>MOLECULE
2egn_III_B_1.pdb
 33 32 0 0 0
SMALL
GASTEIGER

@<TRIPOS>ATOM
      1  N         20.9610   64.7480  -46.1710 N.3   190  SER190     -0.1202
      2  CA        19.9820   65.7330  -46.5680 C.3   190  SER190      0.2020
      3  C         18.5990   65.1280  -46.6640 C.2   190  SER190      0.2619
      4  O         18.4260   63.9700  -47.0650 O.2   190  SER190     -0.2717
      5  CB        20.3240   66.3440  -47.9090 C.3   190  SER190      0.2103
      6  OG        19.3570   67.3400  -48.2050 O.3   190  SER190     -0.2182
      7  N         17.6130   65.9380  -46.2990 N.am  191  SER191     -0.1937
      8  CA        16.2240   65.5280  -46.3210 C.3   191  SER191      0.2055
      9  C         15.6220   66.0040  -47.6440 C.2   191  SER191      0.2644
     10  O         15.8840   67.1280  -48.0720 O.2   191  SER191     -0.2714
     11  CB        15.5030   66.1580  -45.1350 C.3   191  SER191      0.2130
     12  OG        14.3910   65.3760  -44.7360 O.3   191  SER191     -0.2179
     13  N         14.8420   65.1390  -48.2920 N.am  192  SER192     -0.1935
     14  CA        14.1980   65.4510  -49.5690 C.3   192  SER192      0.2055
     15  C         12.6850   65.3910  -49.4550 C.2   192  SER192      0.2644
     16  O         12.1220   64.4110  -48.9620 O.2   192  SER192     -0.2714
     17  CB        14.6360   64.4680  -50.6680 C.3   192  SER192      0.2130
     18  OG        16.0180   64.5580  -50.9340 O.3   192  SER192     -0.2179
     19  N         12.0340   66.4330  -49.9470 N.am  193  SER193     -0.1935
     20  CA        10.5830   66.5290  -49.9170 C.3   193  SER193      0.2055
     21  C         10.0240   65.8450  -51.1720 C.2   193  SER193      0.2644
     22  O         10.5940   65.9780  -52.2440 O.2   193  SER193     -0.2714
     23  CB        10.1890   68.0100  -49.8780 C.3   193  SER193      0.2130
     24  OG         8.8710   68.1870  -49.4070 O.3   193  SER193     -0.2179
     25  N          8.9230   65.1070  -51.0400 N.am  194  LEU194     -0.1941
     26  CA         8.3310   64.4160  -52.1850 C.3   194  LEU194      0.1978
     27  C          6.8130   64.5150  -52.2480 C.2   194  LEU194      0.3842
     28  O          6.2010   64.9760  -51.2640 O.co2 194  LEU194     -0.2437
     29  CB         8.7280   62.9400  -52.1730 C.3   194  LEU194      0.0333
     30  CG        10.2170   62.6090  -52.2090 C.3   194  LEU194      0.0023
     31  CD1       10.4270   61.1500  -51.8700 C.3   194  LEU194      0.0001
     32  CD2       10.7700   62.9260  -53.5850 C.3   194  LEU194      0.0001
     33  OXT        6.2480   64.1050  -53.2910 O.co2 194  LEU194     -0.2437
@<TRIPOS>BOND
     1    32    30    1
     2    33    27   ar
     3    27    26    1
     4    27    28   ar
     5    22    21    2
     6    30    29    1
     7    30    31    1
     8    26    29    1
     9    26    25    1
    10    21    25   am
    11    21    20    1
    12    18    17    1
    13    17    14    1
    14    19    20    1
    15    19    15   am
    16    20    23    1
    17    23    24    1
    18    14    15    1
    19    14    13    1
    20    15    16    2
    21    13     9   am
    22     6     5    1
    23    10     9    2
    24     5     2    1
    25     9     8    1
    26     4     3    2
    27     3     2    1
    28     3     7   am
    29     2     1    1
    30     8     7    1
    31     8    11    1
    32    11    12    1
