@<TRIPOS>MOLECULE
2egs_SAH_A_1.pdb
 26 28 0 0 0
SMALL
GASTEIGER

@<TRIPOS>ATOM
      1  N         33.8570   92.5360   66.3370 N.3   1300  SAH1300    -0.1208
      2  CA        32.4250   92.0620   66.1100 C.3   1300  SAH1300     0.1952
      3  CB        31.7590   91.3590   67.2590 C.3   1300  SAH1300     0.0422
      4  CG        32.4090   90.1120   67.8350 C.3   1300  SAH1300     0.0597
      5  SD        31.2410   89.4110   69.0740 S.3   1300  SAH1300    -0.1375
      6  C         31.5810   93.3310   65.6830 C.2   1300  SAH1300     0.3819
      7  O         32.1530   94.4400   65.6220 O.co2 1300  SAH1300    -0.2441
      8  OXT       30.3260   93.1310   65.4160 O.co2 1300  SAH1300    -0.2441
      9  C5'       30.2860   88.3730   68.0400 C.3   1300  SAH1300     0.0899
     10  C4'       28.8110   88.2440   68.5990 C.3   1300  SAH1300     0.1630
     11  O4'       28.1430   89.5150   68.3900 O.3   1300  SAH1300    -0.3153
     12  C3'       27.9680   87.2170   67.9280 C.3   1300  SAH1300     0.2168
     13  O3'       28.1400   85.9570   68.5490 O.3   1300  SAH1300    -0.2175
     14  C2'       26.5560   87.8340   68.0740 C.3   1300  SAH1300     0.2569
     15  O2'       26.0040   87.5770   69.3650 O.3   1300  SAH1300    -0.2130
     16  C1'       26.7820   89.3240   67.7950 C.3   1300  SAH1300     0.3185
     17  N9        26.7660   89.6760   66.4870 N.pl3 1300  SAH1300    -0.1439
     18  C8        27.7390   89.9710   65.5400 C.3   1300  SAH1300     0.3377
     19  N7        27.2870   90.2810   64.3630 N.2   1300  SAH1300    -0.2095
     20  C5        25.8740   90.1980   64.4960 C.2   1300  SAH1300     0.2526
     21  C6        24.8100   90.4280   63.5490 C.2   1300  SAH1300     0.4393
     22  N6        25.0040   90.7890   62.2720 N.pl3 1300  SAH1300     0.2180
     23  N1        23.5440   90.2480   64.0500 N.2   1300  SAH1300     0.0021
     24  C2        23.2910   89.8810   65.3390 C.3   1300  SAH1300     0.5254
     25  N3        24.2770   89.6540   66.2710 N.2   1300  SAH1300    -0.0055
     26  C4        25.5410   89.8300   65.7780 C.2   1300  SAH1300     0.3518
@<TRIPOS>BOND
     1    22    21    1
     2    21    23    2
     3    21    20    1
     4    23    24    1
     5    19    20    2
     6    19    18    1
     7    20    26    1
     8    24    25    1
     9     8     6   ar
    10    18    17    1
    11     7     6   ar
    12     6     2    1
    13    26    25    2
    14    26    17    1
    15     2     1    1
    16     2     3    1
    17    17    16    1
    18     3     4    1
    19    16    14    1
    20    16    11    1
    21     4     5    1
    22    12    14    1
    23    12    13    1
    24    12    10    1
    25     9    10    1
    26     9     5    1
    27    14    15    1
    28    11    10    1
