@<TRIPOS>MOLECULE
2egv_SAM_A_1.pdb
 27 29 0 0 0
SMALL
GASTEIGER

@<TRIPOS>ATOM
      1  N         23.5460   -8.3020   14.9130 N.3   1300  SAM1300    -0.1208
      2  CA        24.4030   -7.2300   15.4400 C.3   1300  SAM1300     0.1952
      3  C         23.9400   -6.8750   16.8540 C.2   1300  SAM1300     0.3819
      4  O         24.7760   -7.0120   17.7740 O.co2 1300  SAM1300    -0.2441
      5  OXT       22.7600   -6.4840   16.9830 O.co2 1300  SAM1300    -0.2441
      6  CB        24.2880   -6.0030   14.5340 C.3   1300  SAM1300     0.0414
      7  CG        24.9260   -6.2580   13.1670 C.3   1300  SAM1300     0.0503
      8  SD        26.7480   -6.4320   13.2240 S.3   1300  SAM1300    -0.1761
      9  CE        27.0960   -5.7320   14.8240 C.3   1300  SAM1300     0.0590
     10  C5'       27.5060   -5.1730   12.1330 C.3   1300  SAM1300     0.0806
     11  C4'       28.0180   -5.7180   10.7970 C.3   1300  SAM1300     0.1622
     12  O4'       29.1310   -6.6080   10.9790 O.3   1300  SAM1300    -0.3153
     13  C3'       26.9600   -6.5290   10.0520 C.3   1300  SAM1300     0.2168
     14  O3'       26.1320   -5.6300    9.3090 O.3   1300  SAM1300    -0.2175
     15  C2'       27.8610   -7.2980    9.0860 C.3   1300  SAM1300     0.2569
     16  O2'       28.2930   -6.4660    8.0060 O.3   1300  SAM1300    -0.2130
     17  C1'       29.0500   -7.6450    9.9850 C.3   1300  SAM1300     0.3185
     18  N9        28.8350   -8.9130   10.7180 N.pl3 1300  SAM1300    -0.1439
     19  C8        28.8210   -9.0670   12.0410 C.3   1300  SAM1300     0.3377
     20  N7        28.7040  -10.3590   12.3390 N.2   1300  SAM1300    -0.2095
     21  C5        28.6360  -11.0350   11.1960 C.2   1300  SAM1300     0.2526
     22  C6        28.5210  -12.3810   10.8690 C.2   1300  SAM1300     0.4393
     23  N6        28.4550  -13.3100   11.8180 N.pl3 1300  SAM1300     0.2180
     24  N1        28.4870  -12.7290    9.5750 N.2   1300  SAM1300     0.0021
     25  C2        28.5610  -11.8210    8.6170 C.3   1300  SAM1300     0.5254
     26  N3        28.6710  -10.5330    8.8890 N.2   1300  SAM1300    -0.0055
     27  C4        28.7140  -10.1130   10.1610 C.2   1300  SAM1300     0.3518
@<TRIPOS>BOND
     1    16    15    1
     2    25    26    1
     3    25    24    1
     4    26    27    2
     5    15    17    1
     6    15    13    1
     7    14    13    1
     8    24    22    2
     9    17    18    1
    10    17    12    1
    11    13    11    1
    12    27    18    1
    13    27    21    1
    14    18    19    1
    15    11    12    1
    16    11    10    1
    17    22    21    1
    18    22    23    1
    19    21    20    2
    20    19    20    1
    21    10     8    1
    22     7     8    1
    23     7     6    1
    24     8     9    1
    25     6     2    1
    26     1     2    1
    27     2     3    1
    28     3     5   ar
    29     3     4   ar
