@<TRIPOS>MOLECULE
2egw_SAH_A_1.pdb
 26 28 0 0 0
SMALL
GASTEIGER

@<TRIPOS>ATOM
      1  N         24.9840   -5.5550   39.6990 N.3   300  SAH300     -0.1208
      2  CA        24.7950   -4.1460   40.0730 C.3   300  SAH300      0.1952
      3  CB        24.0600   -3.4210   38.9440 C.3   300  SAH300      0.0422
      4  CG        24.8710   -3.4480   37.6480 C.3   300  SAH300      0.0597
      5  SD        24.0220   -2.5600   36.2930 S.3   300  SAH300     -0.1375
      6  C         23.9590   -4.0600   41.3510 C.2   300  SAH300      0.3819
      7  O         23.4400   -2.9550   41.6160 O.co2 300  SAH300     -0.2441
      8  OXT       23.8550   -5.1000   42.0370 O.co2 300  SAH300     -0.2441
      9  C5'       25.2880   -2.6420   34.9740 C.3   300  SAH300      0.0899
     10  C4'       25.5500   -1.2720   34.3460 C.3   300  SAH300      0.1630
     11  O4'       24.3280   -0.6140   33.9700 O.3   300  SAH300     -0.3153
     12  C3'       26.1550   -0.3230   35.3800 C.3   300  SAH300      0.2168
     13  O3'       27.5460   -0.6320   35.5180 O.3   300  SAH300     -0.2175
     14  C2'       25.9670    0.9830   34.6080 C.3   300  SAH300      0.2569
     15  O2'       26.8990    1.0570   33.5250 O.3   300  SAH300     -0.2130
     16  C1'       24.5530    0.8060   34.0490 C.3   300  SAH300      0.3185
     17  N9        23.5100    1.3490   34.9490 N.pl3 300  SAH300     -0.1439
     18  C8        22.5250    0.6500   35.5090 C.3   300  SAH300      0.3377
     19  N7        21.7230    1.4660   36.1900 N.2   300  SAH300     -0.2095
     20  C5        22.2030    2.7010   36.0700 C.2   300  SAH300      0.2526
     21  C6        21.8090    3.9420   36.5550 C.2   300  SAH300      0.4393
     22  N6        20.7440    4.0620   37.3430 N.pl3 300  SAH300      0.2180
     23  N1        22.5410    5.0190   36.2380 N.2   300  SAH300      0.0021
     24  C2        23.6190    4.9100   35.4810 C.3   300  SAH300      0.5254
     25  N3        24.0240    3.7460   35.0070 N.2   300  SAH300     -0.0055
     26  C4        23.3420    2.6260   35.2810 C.2   300  SAH300      0.3518
@<TRIPOS>BOND
     1    15    14    1
     2    11    16    1
     3    11    10    1
     4    16    14    1
     5    16    17    1
     6    10     9    1
     7    10    12    1
     8    14    12    1
     9    17    26    1
    10    17    18    1
    11     9     5    1
    12    25    26    2
    13    25    24    1
    14    26    20    1
    15    12    13    1
    16    24    23    1
    17    18    19    1
    18    20    19    2
    19    20    21    1
    20    23    21    2
    21     5     4    1
    22    21    22    1
    23     4     3    1
    24     3     2    1
    25     1     2    1
    26     2     6    1
    27     6     7   ar
    28     6     8   ar
