@<TRIPOS>MOLECULE
2egy_PLP_A_1.pdb
 15 15 0 0 0
SMALL
GASTEIGER

@<TRIPOS>ATOM
      1  N1        18.8100    1.5190    4.4090 N.ar  400  PLP400     -0.2452
      2  C2        19.3090    0.6500    3.4630 C.ar  400  PLP400      0.0978
      3  C2A       20.6470    0.0620    3.6510 C.3   400  PLP400      0.0555
      4  C3        18.4850    0.2700    2.3280 C.ar  400  PLP400      0.2049
      5  O3        18.9860   -0.5600    1.3560 O.3   400  PLP400     -0.2857
      6  C4        17.2010    0.7600    2.2090 C.ar  400  PLP400      0.0182
      7  C4A       16.3630    0.3060    1.0660 C.3   400  PLP400      0.0342
      8  C5        16.6800    1.6460    3.1860 C.ar  400  PLP400      0.0261
      9  C6        17.5090    2.0310    4.2950 C.ar  400  PLP400      0.0965
     10  C5A       15.1790    2.1350    3.1390 C.3   400  PLP400      0.1815
     11  O4P       15.0950    3.5410    2.8370 O.3   400  PLP400     -0.2653
     12  P         13.7840    4.1950    2.7860 P.3   400  PLP400      0.5329
     13  O1P       13.0790    3.8960    1.3640 O.2   400  PLP400     -0.2224
     14  O2P       12.8720    3.6370    3.9410 O.3   400  PLP400     -0.1145
     15  O3P       13.9650    5.7460    2.9630 O.3   400  PLP400     -0.1145
@<TRIPOS>BOND
     1     7     6    1
     2     5     4    1
     3    13    12    2
     4     6     4   ar
     5     6     8   ar
     6     4     2   ar
     7    12    11    1
     8    12    15    1
     9    12    14    1
    10    11    10    1
    11    10     8    1
    12     8     9   ar
    13     2     3    1
    14     2     1   ar
    15     9     1   ar
