@<TRIPOS>MOLECULE
2eh2_SAH_A_1.pdb
 26 28 0 0 0
SMALL
GASTEIGER

@<TRIPOS>ATOM
      1  N         34.1560   92.0550   67.2470 N.3   1301  SAH1301    -0.1208
      2  CA        32.6910   91.6530   67.1010 C.3   1301  SAH1301     0.1952
      3  CB        32.0420   91.0060   68.2960 C.3   1301  SAH1301     0.0422
      4  CG        32.6650   89.7330   68.8660 C.3   1301  SAH1301     0.0597
      5  SD        31.5090   89.0410   70.1280 S.3   1301  SAH1301    -0.1375
      6  C         31.9000   92.9640   66.6670 C.2   1301  SAH1301     0.3819
      7  O         32.5280   94.0320   66.5370 O.co2 1301  SAH1301    -0.2441
      8  OXT       30.6310   92.8350   66.4700 O.co2 1301  SAH1301    -0.2441
      9  C5'       30.5740   87.9680   69.1130 C.3   1301  SAH1301     0.0899
     10  C4'       29.0980   87.8810   69.6610 C.3   1301  SAH1301     0.1630
     11  O4'       28.4640   89.1560   69.3850 O.3   1301  SAH1301    -0.3153
     12  C3'       28.2500   86.8310   69.0340 C.3   1301  SAH1301     0.2168
     13  O3'       28.3690   85.5970   69.7440 O.3   1301  SAH1301    -0.2175
     14  C2'       26.8520   87.4860   69.0930 C.3   1301  SAH1301     0.2569
     15  O2'       26.2380   87.2840   70.3670 O.3   1301  SAH1301    -0.2130
     16  C1'       27.1180   88.9690   68.7680 C.3   1301  SAH1301     0.3185
     17  N9        27.1350   89.2840   67.4440 N.pl3 1301  SAH1301    -0.1439
     18  C8        28.1280   89.5300   66.5140 C.3   1301  SAH1301     0.3377
     19  N7        27.7070   89.8130   65.3140 N.2   1301  SAH1301    -0.2095
     20  C5        26.2920   89.7650   65.4140 C.2   1301  SAH1301     0.2526
     21  C6        25.2540   89.9890   64.4310 C.2   1301  SAH1301     0.4393
     22  N6        25.4900   90.3070   63.1530 N.pl3 1301  SAH1301     0.2180
     23  N1        23.9700   89.8530   64.9030 N.2   1301  SAH1301     0.0021
     24  C2        23.6790   89.5270   66.2000 C.3   1301  SAH1301     0.5254
     25  N3        24.6430   89.3070   67.1600 N.2   1301  SAH1301    -0.0055
     26  C4        25.9220   89.4420   66.6970 C.2   1301  SAH1301     0.3518
@<TRIPOS>BOND
     1    22    21    1
     2    21    23    2
     3    21    20    1
     4    23    24    1
     5    19    20    2
     6    19    18    1
     7    20    26    1
     8    24    25    1
     9     8     6   ar
    10    18    17    1
    11     7     6   ar
    12     6     2    1
    13    26    25    2
    14    26    17    1
    15     2     1    1
    16     2     3    1
    17    17    16    1
    18     3     4    1
    19    16    14    1
    20    16    11    1
    21     4     5    1
    22    12    14    1
    23    12    10    1
    24    12    13    1
    25    14    15    1
    26     9    10    1
    27     9     5    1
    28    11    10    1
