@<TRIPOS>MOLECULE
2eh5_SAH_A_1.pdb
 26 28 0 0 0
SMALL
GASTEIGER

@<TRIPOS>ATOM
      1  N         33.8100   93.3570   66.7230 N.3   1301  SAH1301    -0.1208
      2  CA        32.3390   92.9650   66.6790 C.3   1301  SAH1301     0.1952
      3  CB        31.7570   92.3060   67.8930 C.3   1301  SAH1301     0.0422
      4  CG        32.4010   91.0240   68.4000 C.3   1301  SAH1301     0.0597
      5  SD        31.2470   90.2610   69.6100 S.3   1301  SAH1301    -0.1375
      6  C         31.5420   94.2830   66.3110 C.2   1301  SAH1301     0.3819
      7  O         32.1880   95.3370   66.1440 O.co2 1301  SAH1301    -0.2441
      8  OXT       30.2520   94.1770   66.2010 O.co2 1301  SAH1301    -0.2441
      9  C5'       30.2240   89.3360   68.5310 C.3   1301  SAH1301     0.0899
     10  C4'       28.7770   89.2540   69.1550 C.3   1301  SAH1301     0.1630
     11  O4'       28.1520   90.5370   68.9400 O.3   1301  SAH1301    -0.3153
     12  C3'       27.8730   88.2360   68.5590 C.3   1301  SAH1301     0.2168
     13  O3'       28.0190   86.9940   69.2350 O.3   1301  SAH1301    -0.2175
     14  C2'       26.4920   88.9130   68.7360 C.3   1301  SAH1301     0.2569
     15  O2'       25.9930   88.7140   70.0660 O.3   1301  SAH1301    -0.2130
     16  C1'       26.7590   90.3840   68.4070 C.3   1301  SAH1301     0.3185
     17  N9        26.6950   90.7250   67.0970 N.pl3 1301  SAH1301    -0.1439
     18  C8        27.6350   90.9940   66.1130 C.3   1301  SAH1301     0.3377
     19  N7        27.1460   91.3060   64.9450 N.2   1301  SAH1301    -0.2095
     20  C5        25.7380   91.2590   65.1250 C.2   1301  SAH1301     0.2526
     21  C6        24.6480   91.5150   64.2110 C.2   1301  SAH1301     0.4393
     22  N6        24.8100   91.8700   62.9320 N.pl3 1301  SAH1301     0.2180
     23  N1        23.3910   91.3690   64.7530 N.2   1301  SAH1301     0.0021
     24  C2        23.1770   91.0080   66.0500 C.3   1301  SAH1301     0.5254
     25  N3        24.1920   90.7590   66.9470 N.2   1301  SAH1301    -0.0055
     26  C4        25.4390   90.9030   66.4210 C.2   1301  SAH1301     0.3518
@<TRIPOS>BOND
     1    22    21    1
     2    21    23    2
     3    21    20    1
     4    23    24    1
     5    19    20    2
     6    19    18    1
     7    20    26    1
     8    24    25    1
     9    18    17    1
    10     7     6   ar
    11     8     6   ar
    12     6     2    1
    13    26    25    2
    14    26    17    1
    15     2     1    1
    16     2     3    1
    17    17    16    1
    18     3     4    1
    19     4     5    1
    20    16    14    1
    21    16    11    1
    22     9    10    1
    23     9     5    1
    24    12    14    1
    25    12    10    1
    26    12    13    1
    27    14    15    1
    28    11    10    1
