@<TRIPOS>MOLECULE
2eh6_PLP_A_1.pdb
 15 15 0 0 0
SMALL
GASTEIGER

@<TRIPOS>ATOM
      1  N1        25.5720    8.5580   31.7920 N.ar  1001  PLP1001    -0.2452
      2  C2        24.9550    7.3620   31.7540 C.ar  1001  PLP1001     0.0978
      3  C2A       23.9470    6.9970   32.8130 C.3   1001  PLP1001     0.0555
      4  C3        25.2440    6.4430   30.7250 C.ar  1001  PLP1001     0.2049
      5  O3        24.6180    5.2280   30.6830 O.3   1001  PLP1001    -0.2857
      6  C4        26.2050    6.8070   29.7240 C.ar  1001  PLP1001     0.0182
      7  C4A       26.4990    5.8460   28.6350 C.3   1001  PLP1001     0.0342
      8  C5        26.8470    8.1080   29.8120 C.ar  1001  PLP1001     0.0261
      9  C6        26.4890    8.9500   30.8750 C.ar  1001  PLP1001     0.0965
     10  C5A       27.8790    8.5510   28.7870 C.3   1001  PLP1001     0.1815
     11  O4P       27.2190    8.8850   27.5650 O.3   1001  PLP1001    -0.2653
     12  P         28.3240    9.3450   26.4690 P.3   1001  PLP1001     0.5329
     13  O1P       27.6080    9.6820   25.2170 O.2   1001  PLP1001    -0.2224
     14  O2P       29.1480   10.6200   26.9590 O.3   1001  PLP1001    -0.1145
     15  O3P       29.3440    8.1280   26.2050 O.3   1001  PLP1001    -0.1145
@<TRIPOS>BOND
     1    13    12    2
     2    15    12    1
     3    12    14    1
     4    12    11    1
     5    11    10    1
     6     7     6    1
     7    10     8    1
     8     6     8   ar
     9     6     4   ar
    10     8     9   ar
    11     5     4    1
    12     4     2   ar
    13     9     1   ar
    14     2     1   ar
    15     2     3    1
