@<TRIPOS>MOLECULE
2eha_HEM_A_1.pdb
 43 50 0 0 0
SMALL
GASTEIGER

@<TRIPOS>ATOM
      1  CHA       -2.9780   -1.6720   -6.1520 C.2   3003  HEM3003     0.0000
      2  CHB       -0.0830   -5.5200   -6.2570 C.2   3003  HEM3003     0.0000
      3  CHC        3.2000   -3.1210   -3.5540 C.2   3003  HEM3003     0.0000
      4  CHD        0.3180    0.8030   -3.5690 C.2   3003  HEM3003     0.0000
      5  C1A       -2.4980   -2.9010   -6.4480 C.ar  3003  HEM3003     0.0000
      6  C2A       -3.1660   -3.8780   -7.2810 C.ar  3003  HEM3003     0.0000
      7  C3A       -2.3510   -4.9630   -7.3150 C.ar  3003  HEM3003     0.0000
      8  C4A       -1.1680   -4.6800   -6.5050 C.ar  3003  HEM3003     0.0000
      9  CMA       -2.6000   -6.2780   -8.0700 C.3   3003  HEM3003     0.0000
     10  CAA       -4.5620   -3.6950   -7.9920 C.3   3003  HEM3003     0.0000
     11  CBA       -4.4460   -2.6020   -9.0860 C.3   3003  HEM3003     0.0000
     12  CGA       -5.7420   -2.3590   -9.8680 C.2   3003  HEM3003     0.0000
     13  O1A       -6.5470   -3.3080  -10.0790 O.co2 3003  HEM3003     0.0000
     14  O2A       -5.9750   -1.2060  -10.3000 O.co2 3003  HEM3003     0.0000
     15  C1B        1.0580   -5.2330   -5.5060 C.2   3003  HEM3003     0.0000
     16  C2B        2.1620   -6.1360   -5.2170 C.2   3003  HEM3003     0.0000
     17  C3B        3.0710   -5.4610   -4.4680 C.2   3003  HEM3003     0.0000
     18  C4B        2.5320   -4.1390   -4.2280 C.2   3003  HEM3003     0.0000
     19  CMB        2.2940   -7.5900   -5.7270 C.3   3003  HEM3003     0.0000
     20  CAB        4.4260   -5.9650   -3.8560 C.2   3003  HEM3003     0.0000
     21  CBB        5.1510   -6.9520   -4.4100 C.2   3003  HEM3003     0.0000
     22  C1C        2.7230   -1.8420   -3.3050 C.ar  3003  HEM3003     0.0000
     23  C2C        3.4470   -0.7840   -2.6090 C.ar  3003  HEM3003     0.0000
     24  C3C        2.6460    0.3320   -2.6250 C.ar  3003  HEM3003     0.0000
     25  C4C        1.4190   -0.0340   -3.3310 C.ar  3003  HEM3003     0.0000
     26  CMC        4.8750   -0.9960   -2.0070 C.3   3003  HEM3003     0.0000
     27  CAC        2.8530    1.7660   -2.0310 C.2   3003  HEM3003     0.0000
     28  CBC        3.9210    2.2260   -1.3730 C.2   3003  HEM3003     0.0000
     29  C1D       -0.8700    0.4850   -4.1980 C.2   3003  HEM3003     0.0000
     30  C2D       -2.0810    1.3010   -4.2060 C.2   3003  HEM3003     0.0000
     31  C3D       -3.1000    0.5020   -4.9890 C.2   3003  HEM3003     0.0000
     32  C4D       -2.4120   -0.6910   -5.3980 C.2   3003  HEM3003     0.0000
     33  CMD       -2.3290    2.6630   -3.5730 C.3   3003  HEM3003     0.0000
     34  CAD       -4.5570    0.8760   -5.2900 C.3   3003  HEM3003     0.0000
     35  CBD       -5.3270    0.7000   -3.9570 C.3   3003  HEM3003     0.0000
     36  CGD       -6.7790    1.0150   -4.1320 C.2   3003  HEM3003     0.0000
     37  O1D       -7.1640    2.2310   -4.2240 O.co2 3003  HEM3003     0.0000
     38  O2D       -7.5640    0.0330   -4.1760 O.co2 3003  HEM3003     0.0000
     39  NA        -1.2980   -3.4170   -6.0010 N.ar  3003  HEM3003     0.0000
     40  NB         1.3400   -4.0380   -4.9000 N.2   3003  HEM3003     0.0000
     41  NC         1.5160   -1.3520   -3.7460 N.ar  3003  HEM3003     0.0000
     42  ND        -1.1210   -0.6740   -4.9190 N.2   3003  HEM3003     0.0000
     43 FE          0.2210   -2.2850   -5.2000 Fe    3003  HEM3003     0.0000
@<TRIPOS>BOND
     1    14    12   ar
     2    13    12   ar
     3    12    11    1
     4    11    10    1
     5     9     7    1
     6    10     6    1
     7     7     6   ar
     8     7     8   ar
     9     6     5   ar
    10     8     2    2
    11     8    39   ar
    12     5     1    2
    13     5    39   ar
    14     2    15    1
    15     1    32    1
    16    39    43    1
    17    19    16    1
    18    15    16    1
    19    15    40    2
    20    32    31    1
    21    32    42    2
    22    34    31    1
    23    34    35    1
    24    16    17    2
    25    43    42    1
    26    43    40    1
    27    43    41    1
    28    31    30    2
    29    42    29    1
    30    40    18    1
    31    17    18    1
    32    17    20    1
    33    21    20    2
    34    18     3    2
    35    37    36   ar
    36    30    29    1
    37    30    33    1
    38    29     4    2
    39    38    36   ar
    40    36    35    1
    41    41    25   ar
    42    41    22   ar
    43     4    25    1
    44     3    22    1
    45    25    24   ar
    46    22    23   ar
    47    24    23   ar
    48    24    27    1
    49    23    26    1
    50    27    28    2
