@<TRIPOS>MOLECULE
2ehc_SAH_A_1.pdb
 26 28 0 0 0
SMALL
GASTEIGER

@<TRIPOS>ATOM
      1  N         33.5630   92.7820   66.0640 N.3   1300  SAH1300    -0.1208
      2  CA        32.1260   92.3290   65.8480 C.3   1300  SAH1300     0.1952
      3  CB        31.4670   91.6170   66.9950 C.3   1300  SAH1300     0.0422
      4  CG        32.1160   90.3560   67.5310 C.3   1300  SAH1300     0.0597
      5  SD        30.9890   89.6570   68.7950 S.3   1300  SAH1300    -0.1375
      6  C         31.2970   93.6190   65.4490 C.2   1300  SAH1300     0.3819
      7  O         31.8860   94.7190   65.3980 O.co2 1300  SAH1300    -0.2441
      8  OXT       30.0380   93.4410   65.1910 O.co2 1300  SAH1300    -0.2441
      9  C5'       30.0660   88.5760   67.7740 C.3   1300  SAH1300     0.0899
     10  C4'       28.5810   88.4520   68.2960 C.3   1300  SAH1300     0.1630
     11  O4'       27.9290   89.7220   68.0500 O.3   1300  SAH1300    -0.3153
     12  C3'       27.7560   87.4220   67.6090 C.3   1300  SAH1300     0.2168
     13  O3'       27.9100   86.1510   68.2320 O.3   1300  SAH1300    -0.2175
     14  C2'       26.3410   88.0410   67.7140 C.3   1300  SAH1300     0.2569
     15  O2'       25.7450   87.7780   68.9840 O.3   1300  SAH1300    -0.2130
     16  C1'       26.5710   89.5330   67.4520 C.3   1300  SAH1300     0.3185
     17  N9        26.5590   89.9030   66.1470 N.pl3 1300  SAH1300    -0.1439
     18  C8        27.5330   90.2080   65.2110 C.3   1300  SAH1300     0.3377
     19  N7        27.0860   90.5380   64.0330 N.2   1300  SAH1300    -0.2095
     20  C5        25.6760   90.4590   64.1560 C.2   1300  SAH1300     0.2526
     21  C6        24.6190   90.7100   63.2080 C.2   1300  SAH1300     0.4393
     22  N6        24.8270   91.0880   61.9410 N.pl3 1300  SAH1300     0.2180
     23  N1        23.3450   90.5290   63.6990 N.2   1300  SAH1300     0.0021
     24  C2        23.0840   90.1410   64.9800 C.3   1300  SAH1300     0.5254
     25  N3        24.0650   89.8940   65.9110 N.2   1300  SAH1300    -0.0055
     26  C4        25.3330   90.0730   65.4330 C.2   1300  SAH1300     0.3518
@<TRIPOS>BOND
     1    22    21    1
     2    21    23    2
     3    21    20    1
     4    23    24    1
     5    19    20    2
     6    19    18    1
     7    20    26    1
     8    24    25    1
     9     8     6   ar
    10    18    17    1
    11     7     6   ar
    12    26    25    2
    13    26    17    1
    14     6     2    1
    15     2     1    1
    16     2     3    1
    17    17    16    1
    18     3     4    1
    19    16    14    1
    20    16    11    1
    21     4     5    1
    22    12    14    1
    23    12    13    1
    24    12    10    1
    25    14    15    1
    26     9    10    1
    27     9     5    1
    28    11    10    1
