@<TRIPOS>MOLECULE
2ehl_SAH_A_1.pdb
 26 28 0 0 0
SMALL
GASTEIGER

@<TRIPOS>ATOM
      1  N         34.2020   92.3950   68.5390 N.3   1300  SAH1300    -0.1208
      2  CA        32.7560   91.9620   68.3550 C.3   1300  SAH1300     0.1952
      3  CB        32.0840   91.3570   69.5530 C.3   1300  SAH1300     0.0422
      4  CG        32.7180   90.1280   70.1780 C.3   1300  SAH1300     0.0597
      5  SD        31.5510   89.4770   71.4380 S.3   1300  SAH1300    -0.1375
      6  C         31.9590   93.2350   67.8470 C.2   1300  SAH1300     0.3819
      7  O         32.5740   94.3080   67.7090 O.co2 1300  SAH1300    -0.2441
      8  OXT       30.7000   93.0670   67.6030 O.co2 1300  SAH1300    -0.2441
      9  C5'       30.6440   88.3550   70.4470 C.3   1300  SAH1300     0.0899
     10  C4'       29.1420   88.2620   70.9420 C.3   1300  SAH1300     0.1630
     11  O4'       28.4960   89.5120   70.5900 O.3   1300  SAH1300    -0.3153
     12  C3'       28.3350   87.1830   70.3110 C.3   1300  SAH1300     0.2168
     13  O3'       28.4690   85.9620   71.0280 O.3   1300  SAH1300    -0.2175
     14  C2'       26.9150   87.8080   70.3300 C.3   1300  SAH1300     0.2569
     15  O2'       26.2700   87.6350   71.5980 O.3   1300  SAH1300    -0.2130
     16  C1'       27.1610   89.2790   69.9760 C.3   1300  SAH1300     0.3185
     17  N9        27.1910   89.5810   68.6550 N.pl3 1300  SAH1300    -0.1439
     18  C8        28.2000   89.8080   67.7400 C.3   1300  SAH1300     0.3377
     19  N7        27.8020   90.0900   66.5380 N.2   1300  SAH1300    -0.2095
     20  C5        26.3870   90.0610   66.6200 C.2   1300  SAH1300     0.2526
     21  C6        25.3740   90.2980   65.6260 C.2   1300  SAH1300     0.4393
     22  N6        25.6400   90.6110   64.3490 N.pl3 1300  SAH1300     0.2180
     23  N1        24.0810   90.1810   66.0780 N.2   1300  SAH1300     0.0021
     24  C2        23.7610   89.8650   67.3670 C.3   1300  SAH1300     0.5254
     25  N3        24.7060   89.6350   68.3430 N.2   1300  SAH1300    -0.0055
     26  C4        25.9920   89.7500   67.8990 C.2   1300  SAH1300     0.3518
@<TRIPOS>BOND
     1    22    21    1
     2    21    23    2
     3    21    20    1
     4    23    24    1
     5    19    20    2
     6    19    18    1
     7    20    26    1
     8    24    25    1
     9     8     6   ar
    10     7     6   ar
    11    18    17    1
    12     6     2    1
    13    26    25    2
    14    26    17    1
    15     2     1    1
    16     2     3    1
    17    17    16    1
    18     3     4    1
    19    16    14    1
    20    16    11    1
    21     4     5    1
    22    12    14    1
    23    12    10    1
    24    12    13    1
    25    14    15    1
    26     9    10    1
    27     9     5    1
    28    11    10    1
