@<TRIPOS>MOLECULE
2ehq_NAP_A_1.pdb
 48 52 0 0 0
SMALL
GASTEIGER

@<TRIPOS>ATOM
      1  PA        10.3780   33.7700   92.1100 P.3   1518  NAP1518     0.2189
      2  O1A        9.1500   34.0870   91.3760 O.2   1518  NAP1518    -0.5170
      3  O2A       10.4170   34.3400   93.4730 O.3   1518  NAP1518    -0.4371
      4  O5B       10.5950   32.1960   92.1060 O.3   1518  NAP1518    -0.3112
      5  C5B       11.7530   31.6470   92.6940 C.3   1518  NAP1518     0.1813
      6  C4B       11.4220   30.2080   93.0730 C.3   1518  NAP1518     0.1820
      7  O4B       10.4580   30.1780   94.1130 O.3   1518  NAP1518    -0.3136
      8  C3B       10.8310   29.4040   91.9250 C.3   1518  NAP1518     0.2157
      9  O3B       11.3070   28.0790   92.0400 O.3   1518  NAP1518    -0.2175
     10  C2B        9.3410   29.4570   92.2110 C.3   1518  NAP1518     0.2314
     11  O2B        8.5980   28.3870   91.6820 O.3   1518  NAP1518    -0.2630
     12  C1B        9.3540   29.3650   93.7170 C.3   1518  NAP1518     0.3158
     13  N9A        8.1450   29.9070   94.3300 N.pl3 1518  NAP1518    -0.1439
     14  C8A        7.2210   30.8010   93.8330 C.3   1518  NAP1518     0.3377
     15  N7A        6.2920   31.0440   94.7910 N.2   1518  NAP1518    -0.2095
     16  C5A        6.6210   30.3110   95.8930 C.2   1518  NAP1518     0.2526
     17  C6A        6.0550   30.1690   97.1610 C.2   1518  NAP1518     0.4393
     18  N6A        4.9800   30.8650   97.5400 N.pl3 1518  NAP1518     0.2180
     19  N1A        6.6640   29.3350   98.0670 N.2   1518  NAP1518     0.0021
     20  C2A        7.8080   28.6350   97.7450 C.3   1518  NAP1518     0.5254
     21  N3A        8.3750   28.7770   96.5030 N.2   1518  NAP1518    -0.0055
     22  C4A        7.7940   29.6060   95.6090 C.2   1518  NAP1518     0.3518
     23  O3        11.7290   34.3190   91.4190 O.3   1518  NAP1518    -0.2703
     24  PN        12.1980   34.0530   89.9030 P.3   1518  NAP1518     0.2189
     25  O1N       12.4350   32.6160   89.6580 O.3   1518  NAP1518    -0.4371
     26  O2N       11.3240   34.8540   89.0110 O.2   1518  NAP1518    -0.5170
     27  O5D       13.6630   34.7160   89.8980 O.3   1518  NAP1518    -0.3112
     28  C5D       13.8370   36.1050   89.7290 C.3   1518  NAP1518     0.1813
     29  C4D       14.0070   36.7940   91.0790 C.3   1518  NAP1518     0.1799
     30  O4D       15.0510   36.1530   91.8010 O.3   1518  NAP1518    -0.3327
     31  C3D       14.4350   38.2480   90.9340 C.3   1518  NAP1518     0.2158
     32  O3D       13.7520   39.0450   91.8790 O.3   1518  NAP1518    -0.2175
     33  C2D       15.9220   38.2000   91.2340 C.3   1518  NAP1518     0.2309
     34  O2D       16.4550   39.4020   91.7410 O.3   1518  NAP1518    -0.2158
     35  C1D       15.9880   37.0990   92.2670 C.3   1518  NAP1518     0.2263
     36  N1N       17.3370   36.5360   92.3480 N.pl3 1518  NAP1518    -0.2787
     37  C2N       18.1030   36.8410   93.4430 C.3   1518  NAP1518     0.1244
     38  C3N       19.3930   36.3250   93.5280 C.2   1518  NAP1518     0.0544
     39  C7N       20.2890   36.6650   94.6810 C.2   1518  NAP1518     0.2818
     40  O7N       21.5150   36.0230   94.7560 O.2   1518  NAP1518    -0.2670
     41  N7N       19.9160   37.5620   95.5880 N.am  1518  NAP1518    -0.0839
     42  C4N       19.8850   35.5120   92.5000 C.2   1518  NAP1518     0.0033
     43  C5N       19.0890   35.2090   91.3960 C.2   1518  NAP1518     0.0157
     44  C6N       17.8080   35.7370   91.3290 C.2   1518  NAP1518     0.0633
     45  P2B        7.8790   28.6300   90.2630 P.3   1518  NAP1518     0.5328
     46  O1X        8.9540   28.7500   89.2240 O.2   1518  NAP1518    -0.2224
     47  O2X        7.0260   27.3830   90.1520 O.3   1518  NAP1518    -0.1145
     48  O3X        7.0490   29.8830   90.3950 O.3   1518  NAP1518    -0.1145
@<TRIPOS>BOND
     1    26    24    2
     2    46    45    2
     3    25    24    1
     4    28    27    1
     5    28    29    1
     6    27    24    1
     7    24    23    1
     8    47    45    1
     9    45    48    1
    10    45    11    1
    11    31    29    1
    12    31    33    1
    13    31    32    1
    14    29    30    1
    15    33    34    1
    16    33    35    1
    17    44    43    2
    18    44    36    1
    19     2     1    2
    20    43    42    1
    21    23     1    1
    22    11    10    1
    23    30    35    1
    24     8     9    1
    25     8    10    1
    26     8     6    1
    27     4     1    1
    28     4     5    1
    29     1     3    1
    30    10    12    1
    31    35    36    1
    32    36    37    1
    33    42    38    2
    34     5     6    1
    35     6     7    1
    36    37    38    1
    37    38    39    1
    38    12     7    1
    39    12    13    1
    40    14    13    1
    41    14    15    1
    42    13    22    1
    43    39    40    2
    44    39    41   am
    45    15    16    2
    46    22    16    1
    47    22    21    2
    48    16    17    1
    49    21    20    1
    50    17    18    1
    51    17    19    2
    52    20    19    1
