@<TRIPOS>MOLECULE
2ehu_NAD_A_1.pdb
 44 48 0 0 0
SMALL
GASTEIGER

@<TRIPOS>ATOM
      1  PA        10.4800   33.8090   92.5220 P.3   1518  NAD1518     0.2189
      2  O1A        9.2360   34.1060   91.8170 O.2   1518  NAD1518    -0.5170
      3  O2A       10.4940   34.3260   93.9090 O.3   1518  NAD1518    -0.4371
      4  O5B       10.6800   32.2220   92.5550 O.3   1518  NAD1518    -0.3112
      5  C5B       11.8450   31.6610   93.1280 C.3   1518  NAD1518     0.1813
      6  C4B       11.5440   30.2160   93.5050 C.3   1518  NAD1518     0.1821
      7  O4B       10.5630   30.1980   94.5220 O.3   1518  NAD1518    -0.3135
      8  C3B       10.9540   29.3830   92.3570 C.3   1518  NAD1518     0.2184
      9  O3B       11.4600   28.0790   92.5030 O.3   1518  NAD1518    -0.2174
     10  C2B        9.4520   29.3470   92.6120 C.3   1518  NAD1518     0.2570
     11  O2B        8.7940   28.2030   92.0890 O.3   1518  NAD1518    -0.2130
     12  C1B        9.4850   29.3620   94.1370 C.3   1518  NAD1518     0.3186
     13  N9A        8.2830   29.9210   94.7540 N.pl3 1518  NAD1518    -0.1439
     14  C8A        7.3810   30.8290   94.2340 C.3   1518  NAD1518     0.3377
     15  N7A        6.4360   31.0560   95.1850 N.2   1518  NAD1518    -0.2095
     16  C5A        6.7380   30.3140   96.2890 C.2   1518  NAD1518     0.2526
     17  C6A        6.1530   30.1610   97.5530 C.2   1518  NAD1518     0.4393
     18  N6A        5.1230   30.9150   97.9590 N.pl3 1518  NAD1518     0.2180
     19  N1A        6.7430   29.3130   98.4590 N.2   1518  NAD1518     0.0021
     20  C2A        7.8940   28.6030   98.1640 C.3   1518  NAD1518     0.5254
     21  N3A        8.4700   28.7750   96.9360 N.2   1518  NAD1518    -0.0055
     22  C4A        7.9100   29.6070   96.0210 C.2   1518  NAD1518     0.3518
     23  O3        11.7670   34.4440   91.8100 O.3   1518  NAD1518    -0.2703
     24  PN        12.3520   34.1240   90.3370 P.3   1518  NAD1518     0.2189
     25  O1N       12.5820   32.6660   90.1200 O.3   1518  NAD1518    -0.4371
     26  O2N       11.5080   34.9460   89.4210 O.2   1518  NAD1518    -0.5170
     27  O5D       13.8060   34.8310   90.3980 O.3   1518  NAD1518    -0.3112
     28  C5D       13.9240   36.2350   90.2360 C.3   1518  NAD1518     0.1813
     29  C4D       14.1580   36.9030   91.5860 C.3   1518  NAD1518     0.1799
     30  O4D       15.2400   36.2510   92.2380 O.3   1518  NAD1518    -0.3327
     31  C3D       14.5530   38.3670   91.4820 C.3   1518  NAD1518     0.2158
     32  O3D       13.8690   39.0960   92.4700 O.3   1518  NAD1518    -0.2175
     33  C2D       16.0320   38.3340   91.8160 C.3   1518  NAD1518     0.2309
     34  O2D       16.5600   39.5520   92.3050 O.3   1518  NAD1518    -0.2158
     35  C1D       16.1140   37.1870   92.8070 C.3   1518  NAD1518     0.2263
     36  N1N       17.4790   36.6670   92.8640 N.pl3 1518  NAD1518    -0.2787
     37  C2N       18.2490   37.0130   93.9380 C.3   1518  NAD1518     0.1244
     38  C3N       19.5630   36.5750   93.9950 C.2   1518  NAD1518     0.0544
     39  C7N       20.4010   36.7820   95.2240 C.2   1518  NAD1518     0.2818
     40  O7N       21.5770   36.0350   95.2890 O.2   1518  NAD1518    -0.2670
     41  N7N       20.0460   37.6260   96.1950 N.am  1518  NAD1518    -0.0839
     42  C4N       20.0670   35.7810   92.9560 C.2   1518  NAD1518     0.0033
     43  C5N       19.2660   35.4380   91.8630 C.2   1518  NAD1518     0.0157
     44  C6N       17.9590   35.8960   91.8260 C.2   1518  NAD1518     0.0633
@<TRIPOS>BOND
     1    26    24    2
     2    25    24    1
     3    28    27    1
     4    28    29    1
     5    24    27    1
     6    24    23    1
     7    31    29    1
     8    31    33    1
     9    31    32    1
    10    29    30    1
    11    23     1    1
    12    33    34    1
    13    33    35    1
    14     2     1    2
    15    44    43    2
    16    44    36    1
    17    43    42    1
    18    11    10    1
    19    30    35    1
    20     8     9    1
    21     8    10    1
    22     8     6    1
    23     1     4    1
    24     1     3    1
    25     4     5    1
    26    10    12    1
    27    35    36    1
    28    36    37    1
    29    42    38    2
    30     5     6    1
    31     6     7    1
    32    37    38    1
    33    38    39    1
    34    12     7    1
    35    12    13    1
    36    14    13    1
    37    14    15    1
    38    13    22    1
    39    15    16    2
    40    39    40    2
    41    39    41   am
    42    22    16    1
    43    22    21    2
    44    16    17    1
    45    21    20    1
    46    17    18    1
    47    17    19    2
    48    20    19    1
