@<TRIPOS>MOLECULE
2ei0_BP7_A_1.pdb
 14 15 0 0 0
SMALL
GASTEIGER

@<TRIPOS>ATOM
      1  CA1       23.7700   20.6120   16.6430 C.ar  400  BP7400      0.0034
      2  CA2       23.2630   21.8980   16.7010 C.ar  400  BP7400      0.0454
      3  CA3       21.9150   22.1350   16.5080 C.ar  400  BP7400      0.2343
      4  OA3       21.4850   23.4340   16.5740 O.3   400  BP7400     -0.2831
      5  CA4       21.0420   21.0860   16.2380 C.ar  400  BP7400      0.2343
      6  OA4       19.7140   21.3780   16.0430 O.3   400  BP7400     -0.2831
      7  CA5       21.5280   19.7660   16.1680 C.ar  400  BP7400      0.0454
      8  CA6       22.9000   19.5350   16.3670 C.ar  400  BP7400      0.0035
      9  CB1       25.2450   20.4680   16.8140 C.ar  400  BP7400      0.0001
     10  CB2       25.9740   21.3330   17.6220 C.ar  400  BP7400      0.0000
     11  CB3       27.3620   21.2100   17.7120 C.ar  400  BP7400      0.0000
     12  CB4       28.0390   20.2350   16.9780 C.ar  400  BP7400      0.0000
     13  CB5       27.3220   19.3840   16.1370 C.ar  400  BP7400      0.0000
     14  CB6       25.9320   19.5200   16.0440 C.ar  400  BP7400      0.0000
@<TRIPOS>BOND
     1     6     5    1
     2    14    13   ar
     3    14     9   ar
     4    13    12   ar
     5     7     5   ar
     6     7     8   ar
     7     5     3   ar
     8     8     1   ar
     9     3     4    1
    10     3     2   ar
    11     1     2   ar
    12     1     9    1
    13     9    10   ar
    14    12    11   ar
    15    10    11   ar
