@<TRIPOS>MOLECULE
2ei1_D1N_A_1.pdb
 12 13 0 0 0
SMALL
GASTEIGER

@<TRIPOS>ATOM
      1  O2        19.5260   21.4580   15.6590 O.3   1637  D1N1637    -0.2831
      2  C2        20.8410   21.0440   16.0270 C.ar  1637  D1N1637     0.2343
      3  C3        21.2430   19.7000   15.9470 C.ar  1637  D1N1637     0.0454
      4  C4        22.5530   19.3760   16.3130 C.ar  1637  D1N1637     0.0035
      5  C5        23.4360   20.3710   16.7730 C.ar  1637  D1N1637     0.0033
      6  C10       23.0210   21.7030   16.8590 C.ar  1637  D1N1637     0.0422
      7  C1        21.7170   22.0250   16.4800 C.ar  1637  D1N1637     0.2342
      8  O1        21.2250   23.3600   16.5160 O.3   1637  D1N1637    -0.2831
      9  C9        23.8980   22.7180   17.3000 C.ar  1637  D1N1637     0.0033
     10  C8        25.2000   22.3490   17.6560 C.ar  1637  D1N1637     0.0001
     11  C7        25.6140   21.0140   17.5800 C.ar  1637  D1N1637     0.0000
     12  C6        24.7360   20.0260   17.1290 C.ar  1637  D1N1637     0.0001
@<TRIPOS>BOND
     1     1     2    1
     2     3     2   ar
     3     3     4   ar
     4     2     7   ar
     5     4     5   ar
     6     7     8    1
     7     7     6   ar
     8     5     6   ar
     9     5    12   ar
    10     6     9   ar
    11    12    11   ar
    12     9    10   ar
    13    11    10   ar
