@<TRIPOS>MOLECULE
2ei3_BPY_A_1.pdb
 14 15 0 0 0
SMALL
GASTEIGER

@<TRIPOS>ATOM
      1  CK1       23.5810   20.1720   16.9460 C.ar  350  BPY350      0.0034
      2  CK2       23.1570   21.4950   17.0420 C.ar  350  BPY350      0.0422
      3  CK3       21.8610   21.8310   16.6880 C.ar  350  BPY350      0.2342
      4  CK4       20.9820   20.8600   16.2350 C.ar  350  BPY350      0.2343
      5  CK5       21.4010   19.5350   16.1260 C.ar  350  BPY350      0.0454
      6  CK6       22.7060   19.1920   16.4890 C.ar  350  BPY350      0.0035
      7  CK7       24.0990   22.5420   17.5360 C.ar  350  BPY350      0.0032
      8  CK8       25.0820   23.0680   16.7060 C.ar  350  BPY350      0.0001
      9  CK9       25.9620   24.0370   17.1890 C.ar  350  BPY350      0.0000
     10  CKA       25.8640   24.4630   18.5090 C.ar  350  BPY350      0.0000
     11  CKB       24.8960   23.9410   19.3510 C.ar  350  BPY350      0.0000
     12  CKC       24.0100   22.9760   18.8590 C.ar  350  BPY350      0.0001
     13  OK1       19.7170   21.2170   15.8780 O.3   350  BPY350     -0.2831
     14  OK2       21.4520   23.1230   16.7800 O.3   350  BPY350     -0.2831
@<TRIPOS>BOND
     1    13     4    1
     2     5     4   ar
     3     5     6   ar
     4     4     3   ar
     5     6     1   ar
     6     3    14    1
     7     3     2   ar
     8     8     9   ar
     9     8     7   ar
    10     1     2   ar
    11     2     7    1
    12     9    10   ar
    13     7    12   ar
    14    10    11   ar
    15    12    11   ar
