@<TRIPOS>MOLECULE
2ei4_RET_A_1.pdb
 20 20 0 0 0
SMALL
GASTEIGER

@<TRIPOS>ATOM
      1  C1        46.3200   10.5670   24.0750 C.3   260  RET260      0.0183
      2  C2        47.3070   10.3570   22.8390 C.3   260  RET260      0.0044
      3  C3        48.5890    9.6520   22.9810 C.3   260  RET260      0.0047
      4  C4        48.7360    8.6350   24.1280 C.3   260  RET260      0.0217
      5  C5        47.8300    8.7810   25.3760 C.2   260  RET260     -0.0479
      6  C6        46.6520    9.7010   25.3890 C.2   260  RET260     -0.0307
      7  C7        45.7770    9.7620   26.7280 C.2   260  RET260     -0.0052
      8  C8        44.6530   10.5390   26.9510 C.2   260  RET260     -0.0046
      9  C9        43.8510   10.5590   28.1570 C.2   260  RET260     -0.0219
     10  C10       42.7960   11.4140   28.0930 C.2   260  RET260     -0.0043
     11  C11       41.8080   11.6430   29.1030 C.2   260  RET260     -0.0007
     12  C12       40.8670   12.5490   28.8070 C.2   260  RET260     -0.0046
     13  C13       39.7460   12.9450   29.6690 C.2   260  RET260     -0.0261
     14  C14       38.9190   13.9240   29.1330 C.2   260  RET260     -0.0300
     15  C15       37.7390   14.5280   29.7520 C.3   260  RET260      0.0304
     16  C16       46.4130   12.1160   24.2530 C.3   260  RET260      0.0043
     17  C17       44.9740   10.2290   23.3930 C.3   260  RET260      0.0043
     18  C18       48.2120    7.9150   26.6150 C.3   260  RET260      0.0260
     19  C19       44.1700    9.6710   29.3820 C.3   260  RET260      0.0310
     20  C20       39.5220   12.3370   31.0400 C.3   260  RET260      0.0307
@<TRIPOS>BOND
     1     2     3    1
     2     2     1    1
     3     3     4    1
     4    17     1    1
     5     1    16    1
     6     1     6    1
     7     4     5    1
     8     5     6    2
     9     5    18    1
    10     6     7    1
    11     7     8    2
    12     8     9    1
    13    10     9    2
    14    10    11    1
    15     9    19    1
    16    12    11    2
    17    12    13    1
    18    14    13    2
    19    14    15    1
    20    13    20    1
