@<TRIPOS>MOLECULE
2ei6_D92_A_1.pdb
 32 36 0 0 0
SMALL
GASTEIGER

@<TRIPOS>ATOM
      1 CL1        14.0770    7.7180   26.5680 Cl    700  D92700     -0.0822
      2  C16       12.3270    7.8370   26.5040 C.ar  700  D92700      0.0578
      3  C17       11.6240    7.5030   27.6670 C.ar  700  D92700      0.0140
      4  C18       10.2400    7.5420   27.7080 C.ar  700  D92700      0.0329
      5  C12        9.5830    7.9160   26.5340 C.ar  700  D92700      0.1317
      6  N11        8.2360    8.0270   26.3520 N.2   700  D92700     -0.3972
      7  C15       11.7000    8.2250   25.3240 C.ar  700  D92700      0.0140
      8  C13       10.2930    8.2640   25.3350 C.ar  700  D92700      0.0331
      9  C14        9.3760    8.5820   24.3380 C.2   700  D92700      0.0394
     10  C10        8.1160    8.4280   24.9900 C.2   700  D92700      0.1862
     11  C9         6.7270    8.7670   24.4790 C.2   700  D92700      0.2945
     12  O19        5.7740    8.6560   25.2400 O.2   700  D92700     -0.2656
     13  N7         6.5760    9.1670   23.2220 N.am  700  D92700     -0.1995
     14  C1         5.2150    9.1900   22.6150 C.3   700  D92700      0.1156
     15  C6         5.3070    9.8700   21.2070 C.3   700  D92700      0.0234
     16  C5         4.2090    9.4060   20.2050 C.3   700  D92700      0.0019
     17  C4         2.9310    8.9470   20.9560 C.3   700  D92700      0.0019
     18  C3         3.1650    7.7310   21.9360 C.3   700  D92700      0.0234
     19  C2         4.6070    7.7120   22.5180 C.3   700  D92700      0.1156
     20  N8         5.3980    6.7500   21.7000 N.am  700  D92700     -0.1990
     21  C20        5.4950    5.4190   21.8810 C.2   700  D92700      0.3005
     22  O31        4.9370    4.8300   22.7780 O.2   700  D92700     -0.2650
     23  C21        6.3900    4.6510   20.9340 C.2   700  D92700      0.2113
     24  S25        6.5400    2.9290   21.0340 S.3   700  D92700     -0.0705
     25  C24        7.6460    3.0170   19.7250 C.3   700  D92700      0.1182
     26  C26        8.3200    1.7890   19.1180 C.3   700  D92700      0.0903
     27  N27        8.9010    2.0930   17.7690 N.3   700  D92700     -0.2700
     28  C30        9.7450    1.0050   17.2170 C.3   700  D92700      0.0897
     29  C28        9.5740    3.4330   17.5840 C.3   700  D92700      0.0793
     30  C29        8.8020    4.6480   18.1630 C.3   700  D92700      0.0727
     31  C23        7.8530    4.3070   19.3040 C.2   700  D92700      0.1003
     32  N22        7.1460    5.2510   19.9800 N.2   700  D92700     -0.3986
@<TRIPOS>BOND
     1    28    27    1
     2    29    27    1
     3    29    30    1
     4    27    26    1
     5    30    31    1
     6    26    25    1
     7    31    25    1
     8    31    32    2
     9    25    24    1
    10    32    23    2
    11    16    17    1
    12    16    15    1
    13    23    24    1
    14    23    21    1
    15    17    18    1
    16    15    14    1
    17    20    21   am
    18    20    19    1
    19    21    22    2
    20    18    19    1
    21    19    14    1
    22    14    13    1
    23    13    11   am
    24     9    10    1
    25     9     8    2
    26    11    10    1
    27    11    12    2
    28    10     6    2
    29     7     8   ar
    30     7     2   ar
    31     8     5   ar
    32     6     5    2
    33     2     1    1
    34     2     3   ar
    35     5     4   ar
    36     3     4   ar
