@<TRIPOS>MOLECULE
2ei8_DT8_A_1.pdb
 37 41 0 0 0
SMALL
GASTEIGER

@<TRIPOS>ATOM
      1  O34        1.1840    9.2400   20.1880 O.2   700  DT8700     -0.2749
      2  C21        1.7890    8.2380   19.8070 C.2   700  DT8700      0.2253
      3  N35        1.2300    7.3480   18.9140 N.am  700  DT8700     -0.2760
      4  C37        1.9250    6.1050   18.4480 C.3   700  DT8700      0.1149
      5  C36       -0.1490    7.6250   18.4040 C.3   700  DT8700      0.1149
      6  C17        3.2140    8.0740   20.4280 C.3   700  DT8700      0.0785
      7  C18        3.9370    9.4520   20.4230 C.3   700  DT8700      0.0110
      8  C19        5.2360    9.4360   21.2470 C.3   700  DT8700      0.0239
      9  C13        5.0960    8.7960   22.6500 C.3   700  DT8700      0.1156
     10  N12        6.4790    8.7920   23.1560 N.am  700  DT8700     -0.1995
     11  C11        6.6620    8.7880   24.4430 C.2   700  DT8700      0.2945
     12  O14        5.6940    8.8710   25.2010 O.2   700  DT8700     -0.2656
     13  C8         8.0910    8.5500   24.9200 C.2   700  DT8700      0.1862
     14  N7         8.2380    7.9270   26.2080 N.2   700  DT8700     -0.3972
     15  C5         9.5920    7.7800   26.3580 C.ar  700  DT8700      0.1317
     16  C4        10.2290    7.2740   27.4940 C.ar  700  DT8700      0.0329
     17  C3        11.6050    7.2300   27.4720 C.ar  700  DT8700      0.0140
     18  C2        12.3150    7.7010   26.3360 C.ar  700  DT8700      0.0578
     19 CL1        14.0690    7.5380   26.3930 Cl    700  DT8700     -0.0822
     20  C9         9.2510    8.7760   24.2370 C.2   700  DT8700      0.0394
     21  C6        10.2740    8.3080   25.2340 C.ar  700  DT8700      0.0331
     22  C1        11.6830    8.2530   25.2140 C.ar  700  DT8700      0.0140
     23  C16        3.1210    7.4120   21.8490 C.3   700  DT8700      0.0325
     24  C15        4.5220    7.3560   22.5210 C.3   700  DT8700      0.1161
     25  N20        5.4470    6.4690   21.8120 N.am  700  DT8700     -0.1990
     26  C22        5.3380    5.1670   21.7470 C.2   700  DT8700      0.3005
     27  O32        4.6080    4.5320   22.4680 O.2   700  DT8700     -0.2650
     28  C23        6.2310    4.4750   20.7780 C.2   700  DT8700      0.2113
     29  S27        6.3040    2.7870   20.9220 S.3   700  DT8700     -0.0705
     30  C26        7.4290    2.7750   19.6450 C.3   700  DT8700      0.1182
     31  C28        8.0500    1.4870   19.0890 C.3   700  DT8700      0.0903
     32  N29        8.7540    1.7640   17.7840 N.3   700  DT8700     -0.2700
     33  C33        9.5500    0.6390   17.1870 C.3   700  DT8700      0.0897
     34  C30        9.5210    3.0660   17.7540 C.3   700  DT8700      0.0793
     35  C31        8.6850    4.3160   18.0880 C.3   700  DT8700      0.0727
     36  C25        7.7140    4.0620   19.2190 C.2   700  DT8700      0.1003
     37  N24        7.0450    5.0550   19.8700 N.2   700  DT8700     -0.3986
@<TRIPOS>BOND
     1    33    32    1
     2    34    32    1
     3    34    35    1
     4    32    31    1
     5    35    36    1
     6     5     3    1
     7     4     3    1
     8     3     2   am
     9    31    30    1
    10    36    30    1
    11    36    37    2
    12    30    29    1
    13     2     1    2
    14     2     6    1
    15    37    28    2
    16     7     6    1
    17     7     8    1
    18     6    23    1
    19    28    29    1
    20    28    26    1
    21     8     9    1
    22    26    25   am
    23    26    27    2
    24    25    24    1
    25    23    24    1
    26    24     9    1
    27     9    10    1
    28    10    11   am
    29    20    13    1
    30    20    21    2
    31    11    13    1
    32    11    12    2
    33    13    14    2
    34    22    21   ar
    35    22    18   ar
    36    21    15   ar
    37    14    15    2
    38    18    19    1
    39    18    17   ar
    40    15    16   ar
    41    17    16   ar
