@<TRIPOS>MOLECULE
2eii_NAD_A_1.pdb
 44 48 0 0 0
SMALL
GASTEIGER

@<TRIPOS>ATOM
      1  PA        10.3720   33.7520   92.5330 P.3   1518  NAD1518     0.2189
      2  O1A        9.1850   34.0730   91.7410 O.2   1518  NAD1518    -0.5170
      3  O2A       10.3180   34.2570   93.9230 O.3   1518  NAD1518    -0.4371
      4  O5B       10.5310   32.1560   92.5960 O.3   1518  NAD1518    -0.3112
      5  C5B       11.7270   31.5680   93.0580 C.3   1518  NAD1518     0.1813
      6  C4B       11.4360   30.1230   93.4590 C.3   1518  NAD1518     0.1821
      7  O4B       10.4360   30.1220   94.4670 O.3   1518  NAD1518    -0.3135
      8  C3B       10.8610   29.2970   92.3020 C.3   1518  NAD1518     0.2184
      9  O3B       11.3630   27.9900   92.4610 O.3   1518  NAD1518    -0.2174
     10  C2B        9.3520   29.2800   92.5540 C.3   1518  NAD1518     0.2570
     11  O2B        8.6610   28.1510   92.0420 O.3   1518  NAD1518    -0.2130
     12  C1B        9.3500   29.2880   94.0790 C.3   1518  NAD1518     0.3186
     13  N9A        8.1510   29.8600   94.7060 N.pl3 1518  NAD1518    -0.1439
     14  C8A        7.2540   30.7890   94.1920 C.3   1518  NAD1518     0.3377
     15  N7A        6.3210   31.0350   95.1490 N.2   1518  NAD1518    -0.2095
     16  C5A        6.6100   30.2860   96.2490 C.2   1518  NAD1518     0.2526
     17  C6A        6.0130   30.1460   97.5090 C.2   1518  NAD1518     0.4393
     18  N6A        4.9550   30.8790   97.8800 N.pl3 1518  NAD1518     0.2180
     19  N1A        6.5670   29.2860   98.4200 N.2   1518  NAD1518     0.0021
     20  C2A        7.7070   28.5470   98.1350 C.3   1518  NAD1518     0.5254
     21  N3A        8.3020   28.6990   96.9010 N.2   1518  NAD1518    -0.0055
     22  C4A        7.7670   29.5490   95.9790 C.2   1518  NAD1518     0.3518
     23  O3        11.7100   34.3230   91.8590 O.3   1518  NAD1518    -0.2703
     24  PN        12.2270   34.0400   90.3480 P.3   1518  NAD1518     0.2189
     25  O1N       12.5050   32.6040   90.1320 O.3   1518  NAD1518    -0.4371
     26  O2N       11.3170   34.7970   89.4520 O.2   1518  NAD1518    -0.5170
     27  O5D       13.6510   34.7850   90.3900 O.3   1518  NAD1518    -0.3112
     28  C5D       13.7420   36.1810   90.2020 C.3   1518  NAD1518     0.1813
     29  C4D       14.0610   36.8220   91.5400 C.3   1518  NAD1518     0.1799
     30  O4D       15.1660   36.1360   92.1150 O.3   1518  NAD1518    -0.3327
     31  C3D       14.4730   38.2790   91.4270 C.3   1518  NAD1518     0.2158
     32  O3D       13.7930   39.0480   92.3800 O.3   1518  NAD1518    -0.2175
     33  C2D       15.9390   38.2360   91.7920 C.3   1518  NAD1518     0.2309
     34  O2D       16.4280   39.4380   92.3500 O.3   1518  NAD1518    -0.2158
     35  C1D       16.0070   37.0650   92.7470 C.3   1518  NAD1518     0.2263
     36  N1N       17.3810   36.5990   92.8170 N.pl3 1518  NAD1518    -0.2787
     37  C2N       18.1280   36.9840   93.8910 C.3   1518  NAD1518     0.1244
     38  C3N       19.4560   36.5860   93.9580 C.2   1518  NAD1518     0.0544
     39  C7N       20.2410   36.7590   95.2210 C.2   1518  NAD1518     0.2818
     40  O7N       21.3930   35.9940   95.3370 O.2   1518  NAD1518    -0.2670
     41  N7N       19.8690   37.6110   96.1780 N.am  1518  NAD1518    -0.0839
     42  C4N       20.0000   35.8060   92.9280 C.2   1518  NAD1518     0.0033
     43  C5N       19.2140   35.4160   91.8390 C.2   1518  NAD1518     0.0157
     44  C6N       17.8920   35.8290   91.7920 C.2   1518  NAD1518     0.0633
@<TRIPOS>BOND
     1    26    24    2
     2    25    24    1
     3    28    27    1
     4    28    29    1
     5    24    27    1
     6    24    23    1
     7    31    29    1
     8    31    33    1
     9    31    32    1
    10    29    30    1
    11     2     1    2
    12    44    43    2
    13    44    36    1
    14    33    34    1
    15    33    35    1
    16    43    42    1
    17    23     1    1
    18    11    10    1
    19    30    35    1
    20     8     9    1
    21     8    10    1
    22     8     6    1
    23     1     4    1
    24     1     3    1
    25    10    12    1
    26     4     5    1
    27    35    36    1
    28    36    37    1
    29    42    38    2
    30     5     6    1
    31     6     7    1
    32    37    38    1
    33    38    39    1
    34    12     7    1
    35    12    13    1
    36    14    13    1
    37    14    15    1
    38    13    22    1
    39    15    16    2
    40    39    40    2
    41    39    41   am
    42    22    16    1
    43    22    21    2
    44    16    17    1
    45    21    20    1
    46    17    18    1
    47    17    19    2
    48    20    19    1
