@<TRIPOS>MOLECULE
2eij_DMU_C_1.pdb
 33 34 0 0 0
SMALL
GASTEIGER

@<TRIPOS>ATOM
      1  C1        73.8590  344.4290  190.6650 C.2   272  DMU272      0.3077
      2  C2        73.7990  345.5950  189.6350 C.2   272  DMU272      0.2738
      3  C3        72.7210  345.9930  188.5830 C.2   272  DMU272      0.2035
      4  C4        71.6220  344.8420  188.7070 C.3   272  DMU272      0.2609
      5  O5        71.6920  343.8320  189.5540 O.2   272  DMU272     -0.4389
      6  C6        72.5900  343.4990  190.4550 C.2   272  DMU272      0.3364
      7  O7        72.6050  347.1920  188.1270 O.2   272  DMU272     -0.4478
      8  O16       72.3440  342.4770  191.2200 O.2   272  DMU272     -0.4458
      9  C18       72.8340  341.3070  191.1610 C.3   272  DMU272      0.2087
     10  C19       72.7690  340.6560  192.5550 C.3   272  DMU272      0.0475
     11  C22       73.0620  339.1490  192.5420 C.3   272  DMU272      0.0038
     12  C25       72.3300  338.4530  193.7010 C.3   272  DMU272      0.0001
     13  C28       72.7490  336.9980  193.8780 C.3   272  DMU272      0.0000
     14  C31       71.5760  336.1460  194.3770 C.3   272  DMU272      0.0000
     15  C34       71.9290  335.3150  195.6210 C.3   272  DMU272      0.0000
     16  C37       73.1490  334.3980  195.3930 C.3   272  DMU272      0.0000
     17  C40       73.5110  333.5860  196.6510 C.3   272  DMU272      0.0000
     18  C43       72.9140  332.1910  196.5870 C.3   272  DMU272      0.0000
     19  O49       73.9840  344.9030  192.0180 O.2   272  DMU272     -0.2762
     20  O55       74.9750  346.4330  189.6320 O.2   272  DMU272     -0.2799
     21  C57       70.5860  344.8750  187.5440 C.3   272  DMU272      0.2334
     22  O61       69.2640  345.2740  187.9270 O.3   272  DMU272     -0.2159
     23  C5        73.7990  348.5390  186.3480 C.3   272  DMU272      0.2541
     24  C7        73.2310  349.6150  185.3430 C.3   272  DMU272      0.2211
     25  C8        71.7670  349.4290  184.8040 C.3   272  DMU272      0.2145
     26  C9        71.0440  348.1930  185.4430 C.3   272  DMU272      0.1846
     27  O1        71.7350  347.2970  186.0570 O.3   272  DMU272     -0.3157
     28  C10       72.6920  347.5560  186.8910 C.3   272  DMU272      0.3217
     29  O2        70.9900  350.6320  184.9080 O.3   272  DMU272     -0.2176
     30  O3        74.9440  347.8420  185.8250 O.3   272  DMU272     -0.2135
     31  O4        74.1620  349.9720  184.3090 O.3   272  DMU272     -0.2173
     32  C11       69.4980  348.2780  185.3560 C.3   272  DMU272      0.2142
     33  O6        69.0180  348.2470  184.0140 O.3   272  DMU272     -0.2176
@<TRIPOS>BOND
     1    33    32    1
     2    31    24    1
     3    25    29    1
     4    25    24    1
     5    25    26    1
     6    24    23    1
     7    32    26    1
     8    26    27    1
     9    30    23    1
    10    27    28    1
    11    23    28    1
    12    28     7    1
    13    21    22    1
    14    21     4    1
    15     7     3    1
    16     3     4    1
    17     3     2    2
    18     4     5    1
    19     5     6    1
    20    20     2    1
    21     2     1    1
    22     6     1    2
    23     6     8    1
    24     1    19    1
    25     9     8    1
    26     9    10    1
    27    11    10    1
    28    11    12    1
    29    12    13    1
    30    13    14    1
    31    14    15    1
    32    16    15    1
    33    16    17    1
    34    18    17    1
