@<TRIPOS>MOLECULE
2eik_DMU_C_1.pdb
 33 34 0 0 0
SMALL
GASTEIGER

@<TRIPOS>ATOM
      1  C1        73.9110  344.3150  190.2100 C.2   272  DMU272      0.3077
      2  C2        73.8760  345.4460  189.1320 C.2   272  DMU272      0.2738
      3  C3        72.7880  345.8030  188.0500 C.2   272  DMU272      0.2035
      4  C4        71.6860  344.6680  188.2570 C.3   272  DMU272      0.2609
      5  O5        71.8130  343.6200  189.0350 O.2   272  DMU272     -0.4389
      6  C6        72.6210  343.3910  190.0380 C.2   272  DMU272      0.3364
      7  O7        72.5870  346.9990  187.6400 O.2   272  DMU272     -0.4478
      8  O16       72.2830  342.4050  190.8050 O.2   272  DMU272     -0.4458
      9  C18       72.7550  341.2370  190.7180 C.3   272  DMU272      0.2087
     10  C19       72.5440  340.5890  192.0840 C.3   272  DMU272      0.0475
     11  C22       73.0070  339.1410  192.1340 C.3   272  DMU272      0.0038
     12  C25       72.2690  338.4080  193.2460 C.3   272  DMU272      0.0001
     13  C28       72.7670  336.9890  193.4050 C.3   272  DMU272      0.0000
     14  C31       71.6100  336.0580  193.7710 C.3   272  DMU272      0.0000
     15  C34       71.9120  335.2450  195.0300 C.3   272  DMU272      0.0000
     16  C37       73.2340  334.4640  194.8870 C.3   272  DMU272      0.0000
     17  C40       73.5130  333.5740  196.1080 C.3   272  DMU272      0.0000
     18  C43       72.8320  332.2210  195.9610 C.3   272  DMU272      0.0000
     19  O49       74.0840  344.8240  191.5520 O.2   272  DMU272     -0.2762
     20  O55       74.9440  346.4140  189.2630 O.2   272  DMU272     -0.2799
     21  C57       70.5540  344.7400  187.2190 C.3   272  DMU272      0.2334
     22  O61       69.3600  345.2340  187.8030 O.3   272  DMU272     -0.2159
     23  C5        73.8000  348.3830  185.9340 C.3   272  DMU272      0.2541
     24  C7        73.1840  349.5130  185.0250 C.3   272  DMU272      0.2211
     25  C8        71.7130  349.3840  184.4900 C.3   272  DMU272      0.2145
     26  C9        71.0000  348.0890  184.9980 C.3   272  DMU272      0.1846
     27  O1        71.7090  347.1730  185.5680 O.3   272  DMU272     -0.3157
     28  C10       72.6660  347.4030  186.4210 C.3   272  DMU272      0.3217
     29  O2        70.9360  350.5660  184.7330 O.3   272  DMU272     -0.2176
     30  O3        74.8900  347.6840  185.2970 O.3   272  DMU272     -0.2135
     31  O4        74.0950  349.9960  184.0240 O.3   272  DMU272     -0.2173
     32  C11       69.4560  348.1720  184.8900 C.3   272  DMU272      0.2142
     33  O6        68.9910  348.1230  183.5430 O.3   272  DMU272     -0.2176
@<TRIPOS>BOND
     1    33    32    1
     2    31    24    1
     3    25    29    1
     4    25    26    1
     5    25    24    1
     6    32    26    1
     7    26    27    1
     8    24    23    1
     9    30    23    1
    10    27    28    1
    11    23    28    1
    12    28     7    1
    13    21    22    1
    14    21     4    1
    15     7     3    1
    16     3     4    1
    17     3     2    2
    18     4     5    1
    19     5     6    1
    20     2    20    1
    21     2     1    1
    22     6     1    2
    23     6     8    1
    24     1    19    1
    25     9     8    1
    26     9    10    1
    27    10    11    1
    28    11    12    1
    29    12    13    1
    30    13    14    1
    31    14    15    1
    32    16    15    1
    33    16    17    1
    34    18    17    1
