@<TRIPOS>MOLECULE
2eil_DMU_C_1.pdb
 33 34 0 0 0
SMALL
GASTEIGER

@<TRIPOS>ATOM
      1  C1        74.0160  343.4100  190.5770 C.2   272  DMU272      0.3077
      2  C2        73.9800  344.5500  189.5120 C.2   272  DMU272      0.2738
      3  C3        72.9050  344.9210  188.4480 C.2   272  DMU272      0.2035
      4  C4        71.8770  343.6960  188.5850 C.3   272  DMU272      0.2609
      5  O5        71.9470  342.6420  189.3590 O.2   272  DMU272     -0.4389
      6  C6        72.7340  342.4540  190.3810 C.2   272  DMU272      0.3364
      7  O7        72.6450  346.1310  188.0560 O.2   272  DMU272     -0.4478
      8  O16       72.3850  341.4760  191.1600 O.2   272  DMU272     -0.4458
      9  C18       72.8740  340.3200  191.0940 C.3   272  DMU272      0.2087
     10  C19       72.6280  339.6860  192.4560 C.3   272  DMU272      0.0475
     11  C22       73.0720  338.2360  192.5050 C.3   272  DMU272      0.0038
     12  C25       72.2750  337.4960  193.5640 C.3   272  DMU272      0.0001
     13  C28       72.7750  336.0900  193.7450 C.3   272  DMU272      0.0000
     14  C31       71.6170  335.1970  194.1640 C.3   272  DMU272      0.0000
     15  C34       71.9510  334.3760  195.4130 C.3   272  DMU272      0.0000
     16  C37       73.2440  333.5490  195.2250 C.3   272  DMU272      0.0000
     17  C40       73.5160  332.6310  196.4360 C.3   272  DMU272      0.0000
     18  C43       72.8300  331.2670  196.2670 C.3   272  DMU272      0.0000
     19  O49       74.1440  343.9310  191.9130 O.2   272  DMU272     -0.2762
     20  O55       75.0190  345.5390  189.6770 O.2   272  DMU272     -0.2799
     21  C57       70.6340  343.8380  187.6720 C.3   272  DMU272      0.2334
     22  O61       69.4230  344.2480  188.2780 O.3   272  DMU272     -0.2159
     23  C5        73.8850  347.4590  186.2950 C.3   272  DMU272      0.2541
     24  C7        73.3270  348.6580  185.4170 C.3   272  DMU272      0.2211
     25  C8        71.8400  348.5230  184.9200 C.3   272  DMU272      0.2145
     26  C9        71.0890  347.2330  185.4080 C.3   272  DMU272      0.1846
     27  O1        71.7640  346.2660  185.9790 O.3   272  DMU272     -0.3157
     28  C10       72.7350  346.5060  186.8170 C.3   272  DMU272      0.3217
     29  O2        71.0620  349.7170  185.1300 O.3   272  DMU272     -0.2176
     30  O3        74.9450  346.7320  185.6460 O.3   272  DMU272     -0.2135
     31  O4        74.2230  349.0550  184.3690 O.3   272  DMU272     -0.2173
     32  C11       69.5370  347.3780  185.3000 C.3   272  DMU272      0.2142
     33  O6        69.0430  347.2230  183.9580 O.3   272  DMU272     -0.2176
@<TRIPOS>BOND
     1    33    32    1
     2    31    24    1
     3    25    29    1
     4    25    26    1
     5    25    24    1
     6    32    26    1
     7    26    27    1
     8    24    23    1
     9    30    23    1
    10    27    28    1
    11    23    28    1
    12    28     7    1
    13    21    22    1
    14    21     4    1
    15     7     3    1
    16     3     4    1
    17     3     2    2
    18     4     5    1
    19     5     6    1
    20     2    20    1
    21     2     1    1
    22     6     1    2
    23     6     8    1
    24     1    19    1
    25     9     8    1
    26     9    10    1
    27    10    11    1
    28    11    12    1
    29    12    13    1
    30    13    14    1
    31    14    15    1
    32    16    15    1
    33    16    17    1
    34    18    17    1
