@<TRIPOS>MOLECULE
2eim_DMU_C_1.pdb
 33 34 0 0 0
SMALL
GASTEIGER

@<TRIPOS>ATOM
      1  C1        74.1400  344.5400  190.4990 C.2   272  DMU272      0.3077
      2  C2        74.1070  345.6930  189.4260 C.2   272  DMU272      0.2738
      3  C3        72.9720  346.0950  188.4060 C.2   272  DMU272      0.2035
      4  C4        71.8450  344.9390  188.5310 C.3   272  DMU272      0.2609
      5  O5        71.9340  343.8680  189.3060 O.2   272  DMU272     -0.4389
      6  C6        72.7960  343.6290  190.3020 C.2   272  DMU272      0.3364
      7  O7        72.8370  347.3220  187.9620 O.2   272  DMU272     -0.4478
      8  O16       72.4380  342.6340  191.0820 O.2   272  DMU272     -0.4458
      9  C18       72.9370  341.4720  191.0150 C.3   272  DMU272      0.2087
     10  C19       72.7590  340.8350  192.3920 C.3   272  DMU272      0.0475
     11  C22       73.2360  339.3830  192.4420 C.3   272  DMU272      0.0038
     12  C25       72.5150  338.6560  193.5770 C.3   272  DMU272      0.0001
     13  C28       72.9360  337.2130  193.7080 C.3   272  DMU272      0.0000
     14  C31       71.7400  336.3530  194.1060 C.3   272  DMU272      0.0000
     15  C34       72.0370  335.5320  195.3600 C.3   272  DMU272      0.0000
     16  C37       73.3630  334.7430  195.2340 C.3   272  DMU272      0.0000
     17  C40       73.6510  333.8720  196.4860 C.3   272  DMU272      0.0000
     18  C43       72.8950  332.5060  196.4280 C.3   272  DMU272      0.0000
     19  O49       74.3190  345.0420  191.8530 O.2   272  DMU272     -0.2762
     20  O55       75.2000  346.6480  189.5290 O.2   272  DMU272     -0.2799
     21  C57       70.7800  344.9890  187.3880 C.3   272  DMU272      0.2334
     22  O61       69.5010  345.5120  187.7750 O.3   272  DMU272     -0.2159
     23  C5        74.0720  348.6650  186.1870 C.3   272  DMU272      0.2541
     24  C7        73.4420  349.7820  185.2390 C.3   272  DMU272      0.2211
     25  C8        71.9170  349.7040  184.7960 C.3   272  DMU272      0.2145
     26  C9        71.2000  348.3920  185.3160 C.3   272  DMU272      0.1846
     27  O1        71.9380  347.4340  185.8420 O.3   272  DMU272     -0.3157
     28  C10       72.9260  347.6800  186.6950 C.3   272  DMU272      0.3217
     29  O2        71.1780  350.9020  185.1130 O.3   272  DMU272     -0.2176
     30  O3        75.1770  347.9590  185.5800 O.3   272  DMU272     -0.2135
     31  O4        74.3150  350.1760  184.1620 O.3   272  DMU272     -0.2173
     32  C11       69.6460  348.4680  185.2240 C.3   272  DMU272      0.2142
     33  O6        69.1460  348.3480  183.8900 O.3   272  DMU272     -0.2176
@<TRIPOS>BOND
     1    33    32    1
     2    31    24    1
     3    25    29    1
     4    25    24    1
     5    25    26    1
     6    32    26    1
     7    24    23    1
     8    26    27    1
     9    30    23    1
    10    27    28    1
    11    23    28    1
    12    28     7    1
    13    21    22    1
    14    21     4    1
    15     7     3    1
    16     3     4    1
    17     3     2    2
    18     4     5    1
    19     5     6    1
    20     2    20    1
    21     2     1    1
    22     6     1    2
    23     6     8    1
    24     1    19    1
    25     9     8    1
    26     9    10    1
    27    10    11    1
    28    11    12    1
    29    12    13    1
    30    13    14    1
    31    14    15    1
    32    16    15    1
    33    16    17    1
    34    18    17    1
