@<TRIPOS>MOLECULE
2ein_DMU_C_1.pdb
 33 34 0 0 0
SMALL
GASTEIGER

@<TRIPOS>ATOM
      1  C1        75.4920  339.5010  190.0190 C.2   272  DMU272      0.3077
      2  C2        75.4190  340.7220  188.9870 C.2   272  DMU272      0.2738
      3  C3        74.2150  341.1660  187.9930 C.2   272  DMU272      0.2035
      4  C4        73.0700  339.9780  188.0980 C.3   272  DMU272      0.2609
      5  O5        73.1430  338.8980  188.8900 O.2   272  DMU272     -0.4389
      6  C6        74.0870  338.6330  189.8600 C.2   272  DMU272      0.3364
      7  O7        74.0650  342.4070  187.5050 O.2   272  DMU272     -0.4478
      8  O16       73.7410  337.6570  190.7020 O.2   272  DMU272     -0.4458
      9  C18       74.2140  336.4790  190.7170 C.3   272  DMU272      0.2087
     10  C19       73.9430  335.8910  192.0990 C.3   272  DMU272      0.0475
     11  C22       74.3200  334.4250  192.1550 C.3   272  DMU272      0.0038
     12  C25       73.5710  333.7320  193.2790 C.3   272  DMU272      0.0001
     13  C28       74.0580  332.3070  193.4630 C.3   272  DMU272      0.0000
     14  C31       72.8950  331.3700  193.7900 C.3   272  DMU272      0.0000
     15  C34       73.2110  330.5160  195.0070 C.3   272  DMU272      0.0000
     16  C37       74.5020  329.7020  194.7960 C.3   272  DMU272      0.0000
     17  C40       74.7690  328.7660  195.9870 C.3   272  DMU272      0.0000
     18  C43       73.9620  327.4410  195.8620 C.3   272  DMU272      0.0000
     19  O49       75.7640  339.9310  191.3840 O.2   272  DMU272     -0.2762
     20  O55       76.5680  341.6290  189.0300 O.2   272  DMU272     -0.2799
     21  C57       71.9960  340.0230  186.9580 C.3   272  DMU272      0.2334
     22  O61       70.7000  340.4870  187.3740 O.3   272  DMU272     -0.2159
     23  C5        75.3840  343.6390  185.6170 C.3   272  DMU272      0.2541
     24  C7        74.7840  344.8180  184.6690 C.3   272  DMU272      0.2211
     25  C8        73.2110  344.7940  184.2620 C.3   272  DMU272      0.2145
     26  C9        72.4570  343.4450  184.7740 C.3   272  DMU272      0.1846
     27  O1        73.1630  342.4390  185.3340 O.3   272  DMU272     -0.3157
     28  C10       74.1920  342.6920  186.1930 C.3   272  DMU272      0.3217
     29  O2        72.5030  346.0180  184.6060 O.3   272  DMU272     -0.2176
     30  O3        76.4780  342.8890  185.0120 O.3   272  DMU272     -0.2135
     31  O4        75.6600  345.1980  183.5770 O.3   272  DMU272     -0.2173
     32  C11       70.8930  343.5310  184.7100 C.3   272  DMU272      0.2142
     33  O6        70.3410  343.0840  183.4610 O.3   272  DMU272     -0.2176
@<TRIPOS>BOND
     1    33    32    1
     2    31    24    1
     3    25    29    1
     4    25    24    1
     5    25    26    1
     6    24    23    1
     7    32    26    1
     8    26    27    1
     9    30    23    1
    10    27    28    1
    11    23    28    1
    12    28     7    1
    13    21    22    1
    14    21     4    1
    15     7     3    1
    16     3     4    1
    17     3     2    2
    18     4     5    1
    19     5     6    1
    20     2    20    1
    21     2     1    1
    22     6     1    2
    23     6     8    1
    24     1    19    1
    25     8     9    1
    26     9    10    1
    27    10    11    1
    28    11    12    1
    29    12    13    1
    30    13    14    1
    31    14    15    1
    32    16    15    1
    33    16    17    1
    34    18    17    1
