@<TRIPOS>MOLECULE
2eis_COA_A_1.pdb
 48 50 0 0 0
SMALL
GASTEIGER

@<TRIPOS>ATOM
      1  N1A        7.9850  -12.5810   27.3690 N.2   201  COA201      0.0021
      2  C2A        8.8210  -13.4850   26.8150 C.3   201  COA201      0.5254
      3  N3A        8.5930  -14.3250   25.7940 N.2   201  COA201     -0.0055
      4  C4A        7.3190  -14.2200   25.3590 C.2   201  COA201      0.3518
      5  C5A        6.3510  -13.3340   25.8150 C.2   201  COA201      0.2526
      6  C6A        6.7450  -12.4280   26.8290 C.2   201  COA201      0.4393
      7  N6A        6.0100  -11.3720   27.2020 N.pl3 201  COA201      0.2180
      8  N7A        5.1600  -13.5120   25.1260 N.2   201  COA201     -0.2095
      9  C8A        5.4380  -14.4470   24.2510 C.3   201  COA201      0.3377
     10  N9A        6.7080  -14.9630   24.3800 N.pl3 201  COA201     -0.1439
     11  C1B        7.3230  -16.0280   23.5910 C.3   201  COA201      0.3185
     12  C2B        6.8050  -17.4180   23.9530 C.3   201  COA201      0.2543
     13  O2B        7.5120  -17.9400   25.0610 O.3   201  COA201     -0.2131
     14  C3B        7.0780  -18.1690   22.6590 C.3   201  COA201      0.1928
     15  O3B        8.4500  -18.5100   22.5980 O.3   201  COA201     -0.2673
     16  P3B        8.8790  -19.9680   22.1030 P.3   201  COA201      0.5327
     17  O7A       10.3560  -20.0200   21.9660 O.3   201  COA201     -0.1145
     18  O8A        8.1970  -20.3200   20.8380 O.2   201  COA201     -0.2224
     19  O9A        8.4590  -20.9830   23.1090 O.3   201  COA201     -0.1145
     20  C4B        6.7710  -17.1230   21.5920 C.3   201  COA201      0.1795
     21  O4B        6.9700  -15.8350   22.2350 O.3   201  COA201     -0.3136
     22  C5B        5.3880  -17.1810   20.9870 C.3   201  COA201      0.1812
     23  O5B        4.4070  -17.3210   22.0150 O.3   201  COA201     -0.3112
     24  P1A        2.8800  -17.6000   21.6620 P.3   201  COA201      0.2189
     25  O1A        2.1560  -17.8140   22.9450 O.3   201  COA201     -0.4371
     26  O2A        2.8310  -18.6500   20.6090 O.2   201  COA201     -0.5170
     27  O3A        2.3860  -16.2410   20.9930 O.3   201  COA201     -0.2703
     28  P2A        1.6850  -15.0850   21.8400 P.3   201  COA201      0.2188
     29  O4A        0.2330  -15.3820   21.9150 O.2   201  COA201     -0.5170
     30  O5A        2.4500  -14.8560   23.0900 O.3   201  COA201     -0.4371
     31  O6A        1.8740  -13.8060   20.9130 O.3   201  COA201     -0.3138
     32  CBP        3.0840  -12.1700   19.5920 C.3   201  COA201      0.0645
     33  CCP        3.1700  -13.4440   20.4320 C.3   201  COA201      0.1519
     34  CDP        4.5010  -11.6540   19.3280 C.3   201  COA201      0.0056
     35  CEP        2.3960  -12.5160   18.2740 C.3   201  COA201      0.0056
     36  CAP        2.2650  -11.1060   20.3510 C.3   201  COA201      0.2312
     37  OAP        2.7550  -10.9940   21.6900 O.3   201  COA201     -0.2131
     38  C9P        2.3760   -9.7600   19.6390 C.2   201  COA201      0.2719
     39  O9P        1.8970   -9.6040   18.5230 O.2   201  COA201     -0.2706
     40  N8P        2.9600   -8.7780   20.3180 N.am  201  COA201     -0.2028
     41  C7P        3.2090   -7.4420   19.7740 C.3   201  COA201      0.1248
     42  C6P        4.5420   -7.3590   19.0210 C.3   201  COA201      0.1102
     43  C5P        4.8840   -5.9420   18.5890 C.2   201  COA201      0.2432
     44  O5P        4.0240   -5.2160   18.0860 O.2   201  COA201     -0.2733
     45  N4P        6.0910   -5.4930   18.9150 N.am  201  COA201     -0.2044
     46  C3P        6.5210   -4.1130   18.7040 C.3   201  COA201      0.1276
     47  C2P        6.7950   -3.8490   17.2360 C.3   201  COA201      0.0920
     48  S1P        8.3990   -4.5040   16.6760 S.3   201  COA201     -0.0802
@<TRIPOS>BOND
     1    48    47    1
     2    47    46    1
     3    44    43    2
     4    35    32    1
     5    39    38    2
     6    43    45   am
     7    43    42    1
     8    46    45    1
     9    42    41    1
    10    34    32    1
    11    32    36    1
    12    32    33    1
    13    38    40   am
    14    38    36    1
    15    41    40    1
    16    36    37    1
    17    33    31    1
    18    26    24    2
    19    18    16    2
    20    31    28    1
    21    22    20    1
    22    22    23    1
    23    27    24    1
    24    27    28    1
    25    20    21    1
    26    20    14    1
    27    24    23    1
    28    24    25    1
    29    28    29    2
    30    28    30    1
    31    17    16    1
    32    16    15    1
    33    16    19    1
    34    21    11    1
    35    15    14    1
    36    14    12    1
    37    11    12    1
    38    11    10    1
    39    12    13    1
    40     9    10    1
    41     9     8    1
    42    10     4    1
    43     8     5    2
    44     4     3    2
    45     4     5    1
    46     3     2    1
    47     5     6    1
    48     2     1    1
    49     6     7    1
    50     6     1    2
