@<TRIPOS>MOLECULE
2eit_NAD_A_1.pdb
 44 48 0 0 0
SMALL
GASTEIGER

@<TRIPOS>ATOM
      1  PA        10.2000   33.5410   92.3720 P.3   1518  NAD1518     0.2189
      2  O1A        9.0310   33.9030   91.5390 O.2   1518  NAD1518    -0.5170
      3  O2A       10.0410   34.0510   93.7450 O.3   1518  NAD1518    -0.4371
      4  O5B       10.4030   31.9280   92.3830 O.3   1518  NAD1518    -0.3112
      5  C5B       11.5670   31.3640   92.9710 C.3   1518  NAD1518     0.1813
      6  C4B       11.2610   29.9100   93.3330 C.3   1518  NAD1518     0.1821
      7  O4B       10.2670   29.8890   94.3480 O.3   1518  NAD1518    -0.3135
      8  C3B       10.7130   29.0470   92.1980 C.3   1518  NAD1518     0.2184
      9  O3B       11.2410   27.7340   92.3540 O.3   1518  NAD1518    -0.2174
     10  C2B        9.2080   29.0410   92.4490 C.3   1518  NAD1518     0.2570
     11  O2B        8.5410   27.9120   91.9530 O.3   1518  NAD1518    -0.2130
     12  C1B        9.1590   29.0780   93.9660 C.3   1518  NAD1518     0.3186
     13  N9A        7.9370   29.6250   94.5880 N.pl3 1518  NAD1518    -0.1439
     14  C8A        7.0330   30.5300   94.0840 C.3   1518  NAD1518     0.3377
     15  N7A        6.0850   30.7510   95.0320 N.2   1518  NAD1518    -0.2095
     16  C5A        6.3730   30.0170   96.1360 C.2   1518  NAD1518     0.2526
     17  C6A        5.7540   29.8690   97.3910 C.2   1518  NAD1518     0.4393
     18  N6A        4.7690   30.6850   97.7850 N.pl3 1518  NAD1518     0.2180
     19  N1A        6.3230   29.0310   98.3350 N.2   1518  NAD1518     0.0021
     20  C2A        7.4760   28.3260   98.0400 C.3   1518  NAD1518     0.5254
     21  N3A        8.0810   28.4800   96.8030 N.2   1518  NAD1518    -0.0055
     22  C4A        7.5450   29.3090   95.8680 C.2   1518  NAD1518     0.3518
     23  O3        11.5450   34.1680   91.7390 O.3   1518  NAD1518    -0.2703
     24  PN        12.0220   33.8870   90.2240 P.3   1518  NAD1518     0.2189
     25  O1N       12.4560   32.4670   90.1360 O.3   1518  NAD1518    -0.4371
     26  O2N       10.9900   34.4180   89.2930 O.2   1518  NAD1518    -0.5170
     27  O5D       13.3400   34.8070   90.1030 O.3   1518  NAD1518    -0.3112
     28  C5D       13.2430   36.2160   90.0640 C.3   1518  NAD1518     0.1813
     29  C4D       13.6590   36.7380   91.4280 C.3   1518  NAD1518     0.1799
     30  O4D       14.7750   35.9950   91.8840 O.3   1518  NAD1518    -0.3327
     31  C3D       14.0720   38.2000   91.4170 C.3   1518  NAD1518     0.2158
     32  O3D       13.3970   38.8970   92.4290 O.3   1518  NAD1518    -0.2175
     33  C2D       15.5340   38.1700   91.7880 C.3   1518  NAD1518     0.2309
     34  O2D       15.8710   39.2730   92.5850 O.3   1518  NAD1518    -0.2158
     35  C1D       15.6460   36.8730   92.5600 C.3   1518  NAD1518     0.2263
     36  N1N       17.0280   36.3890   92.6140 N.pl3 1518  NAD1518    -0.2787
     37  C2N       17.7580   36.7480   93.7090 C.3   1518  NAD1518     0.1244
     38  C3N       19.0770   36.3330   93.8120 C.2   1518  NAD1518     0.0544
     39  C7N       19.8210   36.5300   95.0980 C.2   1518  NAD1518     0.2818
     40  O7N       20.8900   35.6720   95.3430 O.2   1518  NAD1518    -0.2670
     41  N7N       19.4670   37.4850   95.9590 N.am  1518  NAD1518    -0.0839
     42  C4N       19.6390   35.5520   92.7970 C.2   1518  NAD1518     0.0033
     43  C5N       18.8780   35.1830   91.6880 C.2   1518  NAD1518     0.0157
     44  C6N       17.5570   35.6150   91.6090 C.2   1518  NAD1518     0.0633
@<TRIPOS>BOND
     1    26    24    2
     2    28    27    1
     3    28    29    1
     4    27    24    1
     5    25    24    1
     6    24    23    1
     7    31    29    1
     8    31    33    1
     9    31    32    1
    10    29    30    1
    11     2     1    2
    12    44    43    2
    13    44    36    1
    14    43    42    1
    15    23     1    1
    16    33    35    1
    17    33    34    1
    18    30    35    1
    19    11    10    1
    20     8     9    1
    21     8    10    1
    22     8     6    1
    23     1     4    1
    24     1     3    1
    25     4     5    1
    26    10    12    1
    27    35    36    1
    28    36    37    1
    29    42    38    2
    30     5     6    1
    31     6     7    1
    32    37    38    1
    33    38    39    1
    34    12     7    1
    35    12    13    1
    36    14    13    1
    37    14    15    1
    38    13    22    1
    39    15    16    2
    40    39    40    2
    41    39    41   am
    42    22    16    1
    43    22    21    2
    44    16    17    1
    45    21    20    1
    46    17    18    1
    47    17    19    2
    48    20    19    1
