@<TRIPOS>MOLECULE
2eiy_PLP_A_1.pdb
 15 15 0 0 0
SMALL
GASTEIGER

@<TRIPOS>ATOM
      1  N1        33.1490   83.0950   17.2850 N.ar  413  PLP413     -0.2452
      2  C2        32.9330   84.2150   16.5540 C.ar  413  PLP413      0.0978
      3  C2A       34.0520   85.2640   16.4690 C.3   413  PLP413      0.0555
      4  C3        31.7280   84.3820   15.9110 C.ar  413  PLP413      0.2049
      5  O3        31.4940   85.5070   15.1550 O.3   413  PLP413     -0.2857
      6  C4        30.7410   83.4170   16.0100 C.ar  413  PLP413      0.0182
      7  C4A       29.3950   83.6880   15.3040 C.3   413  PLP413      0.0342
      8  C5        30.9920   82.2650   16.7780 C.ar  413  PLP413      0.0261
      9  C6        32.1950   82.1310   17.3960 C.ar  413  PLP413      0.0965
     10  C5A       30.0010   81.1030   16.9620 C.3   413  PLP413      0.1815
     11  O4P       28.8280   81.4720   17.6430 O.3   413  PLP413     -0.2653
     12  P         27.4920   80.6380   17.3590 P.3   413  PLP413      0.5329
     13  O1P       27.1960   80.6530   15.9040 O.2   413  PLP413     -0.2224
     14  O2P       26.4190   81.4690   18.1380 O.3   413  PLP413     -0.1145
     15  O3P       27.6700   79.3140   17.9960 O.3   413  PLP413     -0.1145
@<TRIPOS>BOND
     1     5     4    1
     2     7     6    1
     3    13    12    2
     4     4     6   ar
     5     4     2   ar
     6     6     8   ar
     7     3     2    1
     8     2     1   ar
     9     8    10    1
    10     8     9   ar
    11    10    11    1
    12     1     9   ar
    13    12    11    1
    14    12    15    1
    15    12    14    1
