@<TRIPOS>MOLECULE
2ej0_PMP_A_1.pdb
 16 16 0 0 0
SMALL
GASTEIGER

@<TRIPOS>ATOM
      1  N1         2.5170   23.7630   33.1810 N.ar  3413  PMP3413    -0.2452
      2  C2         1.4590   22.9140   33.1070 C.ar  3413  PMP3413     0.0978
      3  C2A        1.4090   21.7600   34.0830 C.3   3413  PMP3413     0.0555
      4  C3         0.4650   23.1070   32.1580 C.ar  3413  PMP3413     0.2063
      5  O3        -0.5760   22.2090   32.0500 O.3   3413  PMP3413    -0.2856
      6  C4         0.5490   24.1800   31.2880 C.ar  3413  PMP3413     0.0369
      7  C4A       -0.6710   24.4930   30.3230 C.3   3413  PMP3413     0.1386
      8  N4A       -1.6900   25.1870   30.9420 N.3   3413  PMP3413    -0.1261
      9  C5         1.6660   25.0280   31.3770 C.ar  3413  PMP3413     0.0275
     10  C6         2.6230   24.8090   32.3230 C.ar  3413  PMP3413     0.0965
     11  C5A        1.9330   26.1590   30.3830 C.3   3413  PMP3413     0.1816
     12  O4P        2.3520   25.5910   29.1370 O.3   3413  PMP3413    -0.2653
     13  P          1.9930   26.3960   27.7880 P.3   3413  PMP3413     0.5329
     14  O1P        0.5130   26.3620   27.6330 O.3   3413  PMP3413    -0.1145
     15  O2P        2.6840   25.4930   26.6840 O.2   3413  PMP3413    -0.2224
     16  O3P        2.6570   27.7160   27.8540 O.3   3413  PMP3413    -0.1145
@<TRIPOS>BOND
     1    15    13    2
     2    14    13    1
     3    13    16    1
     4    13    12    1
     5    12    11    1
     6     7     8    1
     7     7     6    1
     8    11     9    1
     9     6     9   ar
    10     6     4   ar
    11     9    10   ar
    12     5     4    1
    13     4     2   ar
    14    10     1   ar
    15     2     1   ar
    16     2     3    1
