@<TRIPOS>MOLECULE
2ej2_PPE_A_1.pdb
 25 25 0 0 0
SMALL
GASTEIGER

@<TRIPOS>ATOM
      1  N1         2.6210   23.9430   33.4690 N.ar  3413  PPE3413    -0.2452
      2  C2         1.4770   23.1050   33.4030 C.ar  3413  PPE3413     0.0978
      3  C2A        1.5200   22.0800   34.5420 C.3   3413  PPE3413     0.0555
      4  C3         0.5050   23.3560   32.3090 C.ar  3413  PPE3413     0.2062
      5  O3        -0.5470   22.5070   32.3300 O.3   3413  PPE3413    -0.2856
      6  C4         0.6650   24.3730   31.3510 C.ar  3413  PPE3413     0.0353
      7  C4A       -0.3910   24.5420   30.2710 C.3   3413  PPE3413     0.1186
      8  C5         1.8890   25.1680   31.5290 C.ar  3413  PPE3413     0.0275
      9  C6         2.8590   24.9800   32.5520 C.ar  3413  PPE3413     0.0965
     10  C5A        2.2470   26.3070   30.5900 C.3   3413  PPE3413     0.1816
     11  OP4        2.5880   25.8730   29.3400 O.3   3413  PPE3413    -0.2653
     12  P          2.2300   26.6150   27.9690 P.3   3413  PPE3413     0.5329
     13  OP1        2.8630   27.9080   27.8900 O.3   3413  PPE3413    -0.1145
     14  OP2        0.7070   26.5630   27.9250 O.3   3413  PPE3413    -0.1145
     15  OP3        2.8520   25.7210   26.9230 O.2   3413  PPE3413    -0.2224
     16  NA        -1.6790   24.8220   31.0120 N.3   3413  PPE3413    -0.2034
     17  CAA       -2.8600   24.4240   30.1510 C.3   3413  PPE3413     0.1766
     18  CBA       -4.1170   24.0180   30.9850 C.3   3413  PPE3413     0.0407
     19  CGA       -4.8360   25.1370   31.7750 C.3   3413  PPE3413     0.1161
     20  CDA       -6.3720   25.0690   31.6200 C.2   3413  PPE3413     0.3649
     21  OE1       -6.8900   25.9130   30.8990 O.co2 3413  PPE3413    -0.2457
     22  OE2       -6.9030   24.1390   32.2680 O.co2 3413  PPE3413    -0.2457
     23  CA        -3.1630   25.5940   29.2020 C.2   3413  PPE3413     0.3803
     24  OA        -3.7080   25.1190   28.0420 O.co2 3413  PPE3413    -0.2441
     25  OXT       -2.9070   26.8710   29.4780 O.co2 3413  PPE3413    -0.2441
@<TRIPOS>BOND
     1    15    12    2
     2    13    12    1
     3    14    12    1
     4    12    11    1
     5    24    23   ar
     6    23    25   ar
     7    23    17    1
     8    11    10    1
     9    17    18    1
    10    17    16    1
    11     7    16    1
    12     7     6    1
    13    10     8    1
    14    21    20   ar
    15    18    19    1
    16     6     8   ar
    17     6     4   ar
    18     8     9   ar
    19    20    19    1
    20    20    22   ar
    21     4     5    1
    22     4     2   ar
    23     9     1   ar
    24     2     1   ar
    25     2     3    1
