@<TRIPOS>MOLECULE
2ej3_GBN_A_1.pdb
 12 12 0 0 0
SMALL
GASTEIGER

@<TRIPOS>ATOM
      1  N1        33.4320   79.7880   10.8350 N.3   2414  GBN2414    -0.1314
      2  C2        32.3970   80.7730   10.6300 C.3   2414  GBN2414     0.1098
      3  C3        30.9950   81.1700   12.2430 C.3   2414  GBN2414     0.1155
      4  C1R       31.5790   82.0360   11.0520 C.3   2414  GBN2414     0.0284
      5  C2R       30.3830   82.6720   10.2200 C.3   2414  GBN2414     0.0020
      6  C3R       31.0100   83.5400    9.0520 C.3   2414  GBN2414     0.0001
      7  C4R       31.8720   84.7160    9.6590 C.3   2414  GBN2414     0.0000
      8  C5R       33.0610   84.1010   10.4760 C.3   2414  GBN2414     0.0001
      9  C6R       32.4750   83.2180   11.6170 C.3   2414  GBN2414     0.0020
     10  C         30.1390   80.0680   12.1930 C.2   2414  GBN2414     0.3649
     11  OA        30.7510   78.9890   12.4530 O.co2 2414  GBN2414    -0.2457
     12  OB        28.9110   80.1230   11.9400 O.co2 2414  GBN2414    -0.2457
@<TRIPOS>BOND
     1     6     7    1
     2     6     5    1
     3     7     8    1
     4     5     4    1
     5     8     9    1
     6     2     1    1
     7     2     4    1
     8     4     9    1
     9     4     3    1
    10    12    10   ar
    11    10     3    1
    12    10    11   ar
