@<TRIPOS>MOLECULE
2ej3_PLP_A_1.pdb
 15 15 0 0 0
SMALL
GASTEIGER

@<TRIPOS>ATOM
      1  N1        33.0990   83.2170   17.0050 N.ar  413  PLP413     -0.2452
      2  C2        32.9230   84.3350   16.2420 C.ar  413  PLP413      0.0978
      3  C2A       34.0300   85.3770   16.2150 C.3   413  PLP413      0.0555
      4  C3        31.7550   84.4950   15.5140 C.ar  413  PLP413      0.2049
      5  O3        31.5680   85.6150   14.7370 O.3   413  PLP413     -0.2857
      6  C4        30.7600   83.5190   15.5610 C.ar  413  PLP413      0.0182
      7  C4A       29.4360   83.7550   14.7630 C.3   413  PLP413      0.0342
      8  C5        30.9710   82.3770   16.3610 C.ar  413  PLP413      0.0261
      9  C6        32.1290   82.2490   17.0590 C.ar  413  PLP413      0.0965
     10  C5A       29.9650   81.2400   16.4850 C.3   413  PLP413      0.1815
     11  O4P       28.8070   81.5580   17.2730 O.3   413  PLP413     -0.2653
     12  P         27.4950   80.6980   17.0290 P.3   413  PLP413      0.5329
     13  O1P       27.1910   80.7390   15.5750 O.2   413  PLP413     -0.2224
     14  O2P       26.4130   81.5080   17.8310 O.3   413  PLP413     -0.1145
     15  O3P       27.6580   79.3930   17.7190 O.3   413  PLP413     -0.1145
@<TRIPOS>BOND
     1     5     4    1
     2     7     6    1
     3     4     6   ar
     4     4     2   ar
     5     6     8   ar
     6    13    12    2
     7     3     2    1
     8     2     1   ar
     9     8    10    1
    10     8     9   ar
    11    10    11    1
    12     1     9   ar
    13    12    11    1
    14    12    15    1
    15    12    14    1
