@<TRIPOS>MOLECULE
2ej9_BTN_A_1.pdb
 16 17 0 0 0
SMALL
GASTEIGER

@<TRIPOS>ATOM
      1  C11       34.7140   56.2310    4.4370 C.2   1301  BTN1301     0.3649
      2  O11       34.3190   55.4670    3.5280 O.co2 1301  BTN1301    -0.2457
      3  O12       35.4260   55.8020    5.4050 O.co2 1301  BTN1301    -0.2457
      4  C10       34.3600   57.6940    4.4270 C.3   1301  BTN1301     0.1141
      5  C9        33.3250   58.1020    5.4510 C.3   1301  BTN1301     0.0118
      6  C8        33.0510   59.6000    5.4630 C.3   1301  BTN1301     0.0015
      7  C7        32.0040   59.9840    6.5000 C.3   1301  BTN1301     0.0129
      8  C2        31.6670   61.4770    6.5970 C.3   1301  BTN1301     0.0729
      9  S1        30.4200   61.8450    7.8120 S.3   1301  BTN1301    -0.1369
     10  C6        30.5250   63.5810    7.3200 C.3   1301  BTN1301     0.0848
     11  C5        30.4290   63.4630    5.7920 C.3   1301  BTN1301     0.1509
     12  N1        29.0430   63.3130    5.3480 N.2   1301  BTN1301    -0.1859
     13  C3        28.8670   62.1420    4.7140 C.1   1301  BTN1301     0.2386
     14  O3        27.7820   61.7440    4.2350 O.2   1301  BTN1301    -0.2023
     15  N2        30.0440   61.4300    4.6630 N.2   1301  BTN1301    -0.1860
     16  C4        31.1220   62.1560    5.3080 C.3   1301  BTN1301     0.1500
@<TRIPOS>BOND
     1     2     1   ar
     2    14    13    2
     3     4     1    1
     4     4     5    1
     5     1     3   ar
     6    15    13    2
     7    15    16    1
     8    13    12    2
     9    16    11    1
    10    16     8    1
    11    12    11    1
    12     5     6    1
    13     6     7    1
    14    11    10    1
    15     7     8    1
    16     8     9    1
    17    10     9    1
