@<TRIPOS>MOLECULE
2ejf_BTN_A_1.pdb
 16 17 0 0 0
SMALL
GASTEIGER

@<TRIPOS>ATOM
      1  C11       -5.0990   -2.7070   12.0820 C.2   1401  BTN1401     0.3649
      2  O11       -5.8600   -1.7280   12.0700 O.co2 1401  BTN1401    -0.2457
      3  O12       -5.4920   -3.8420   12.5050 O.co2 1401  BTN1401    -0.2457
      4  C10       -3.6670   -2.5970   11.5880 C.3   1401  BTN1401     0.1141
      5  C9        -3.5280   -2.7840   10.0940 C.3   1401  BTN1401     0.0118
      6  C8        -2.0880   -2.5900    9.6150 C.3   1401  BTN1401     0.0015
      7  C7        -2.0050   -2.7700    8.1020 C.3   1401  BTN1401     0.0129
      8  C2        -0.6250   -2.5920    7.4380 C.3   1401  BTN1401     0.0729
      9  S1        -0.6800   -2.8010    5.6680 S.3   1401  BTN1401    -0.1369
     10  C6         1.1400   -2.5330    5.6390 C.3   1401  BTN1401     0.0848
     11  C5         1.6120   -3.4870    6.7770 C.3   1401  BTN1401     0.1509
     12  N1         1.8000   -4.8830    6.3220 N.2   1401  BTN1401    -0.1859
     13  C3         0.9830   -5.7030    7.0340 C.1   1401  BTN1401     0.2386
     14  O3         0.9010   -6.9620    6.8810 O.2   1401  BTN1401    -0.2023
     15  N2         0.2400   -4.9870    7.9540 N.2   1401  BTN1401    -0.1860
     16  C4         0.5460   -3.5560    7.9030 C.3   1401  BTN1401     0.1500
@<TRIPOS>BOND
     1    10     9    1
     2    10    11    1
     3     9     8    1
     4    12    11    1
     5    12    13    2
     6    11    16    1
     7    14    13    2
     8    13    15    2
     9     8    16    1
    10     8     7    1
    11    16    15    1
    12     7     6    1
    13     6     5    1
    14     5     4    1
    15     4     1    1
    16     2     1   ar
    17     1     3   ar
