@<TRIPOS>MOLECULE
2ejf_ADN_A_1.pdb
 19 21 0 0 0
SMALL
GASTEIGER

@<TRIPOS>ATOM
      1  O5'       -9.8110   -8.3930   10.4790 O.3   2001  ADN2001    -0.2176
      2  C5'      -10.9800   -8.0610    9.7400 C.3   2001  ADN2001     0.2143
      3  C4'      -11.5410   -6.7380   10.2540 C.3   2001  ADN2001     0.1851
      4  O4'      -10.5650   -5.6680   10.0520 O.3   2001  ADN2001    -0.3134
      5  C3'      -12.8400   -6.3730    9.5170 C.3   2001  ADN2001     0.2186
      6  O3'      -13.9690   -6.3770   10.3980 O.3   2001  ADN2001    -0.2174
      7  C2'      -12.5840   -5.0070    8.8590 C.3   2001  ADN2001     0.2570
      8  O2'      -13.5360   -4.0140    9.2590 O.3   2001  ADN2001    -0.2130
      9  C1'      -11.1430   -4.6110    9.2330 C.3   2001  ADN2001     0.3186
     10  N9       -10.3720   -4.3960    7.9870 N.pl3 2001  ADN2001    -0.1439
     11  C8        -9.6450   -5.3210    7.2940 C.3   2001  ADN2001     0.3377
     12  N7        -9.0550   -4.6570    6.1190 N.2   2001  ADN2001    -0.2095
     13  C5        -9.4460   -3.3730    6.1500 C.2   2001  ADN2001     0.2526
     14  C6        -9.2300   -2.2320    5.3250 C.2   2001  ADN2001     0.4393
     15  N6        -8.4540   -2.3200    4.1850 N.pl3 2001  ADN2001     0.2180
     16  N1        -9.8030   -1.0350    5.6720 N.2   2001  ADN2001     0.0021
     17  C2       -10.5710   -0.8930    6.7760 C.3   2001  ADN2001     0.5254
     18  N3       -10.8070   -1.9400    7.5840 N.2   2001  ADN2001    -0.0055
     19  C4       -10.2770   -3.1840    7.3280 C.2   2001  ADN2001     0.3518
@<TRIPOS>BOND
     1    15    14    1
     2    14    16    2
     3    14    13    1
     4    16    17    1
     5    12    13    2
     6    12    11    1
     7    13    19    1
     8    17    18    1
     9    11    10    1
    10    19    18    2
    11    19    10    1
    12    10     9    1
    13     7     9    1
    14     7     8    1
    15     7     5    1
    16     9     4    1
    17     5     3    1
    18     5     6    1
    19     2     3    1
    20     2     1    1
    21     4     3    1
