@<TRIPOS>MOLECULE
2ejg_ADN_A_1.pdb
 19 21 0 0 0
SMALL
GASTEIGER

@<TRIPOS>ATOM
      1  O5'       -8.5290   -3.5590   12.8050 O.3   1501  ADN1501    -0.2176
      2  C5'       -9.2470   -4.7410   12.4290 C.3   1501  ADN1501     0.2143
      3  C4'      -10.5640   -4.3650   11.7280 C.3   1501  ADN1501     0.1851
      4  O4'      -10.2830   -3.6090   10.5210 O.3   1501  ADN1501    -0.3134
      5  C3'      -11.3600   -5.6190   11.3230 C.3   1501  ADN1501     0.2186
      6  O3'      -12.4600   -5.8570   12.2180 O.3   1501  ADN1501    -0.2174
      7  C2'      -11.7860   -5.3830    9.8510 C.3   1501  ADN1501     0.2570
      8  O2'      -13.2070   -5.4540    9.6500 O.3   1501  ADN1501    -0.2130
      9  C1'      -11.2150   -4.0020    9.4760 C.3   1501  ADN1501     0.3186
     10  N9       -10.5020   -4.0340    8.1740 N.pl3 1501  ADN1501    -0.1439
     11  C8        -9.7900   -5.0690    7.6150 C.3   1501  ADN1501     0.3377
     12  N7        -9.2740   -4.6190    6.3470 N.2   1501  ADN1501    -0.2095
     13  C5        -9.6580   -3.3630    6.1490 C.2   1501  ADN1501     0.2526
     14  C6        -9.4750   -2.3900    5.1230 C.2   1501  ADN1501     0.4393
     15  N6        -8.7380   -2.6890    3.9970 N.pl3 1501  ADN1501     0.2180
     16  N1       -10.0400   -1.1460    5.2670 N.2   1501  ADN1501     0.0021
     17  C2       -10.7710   -0.8030    6.3620 C.3   1501  ADN1501     0.5254
     18  N3       -10.9750   -1.6820    7.3560 N.2   1501  ADN1501    -0.0055
     19  C4       -10.4480   -2.9580    7.3040 C.2   1501  ADN1501     0.3518
@<TRIPOS>BOND
     1    15    14    1
     2    14    16    2
     3    14    13    1
     4    16    17    1
     5    13    12    2
     6    13    19    1
     7    12    11    1
     8    17    18    1
     9    19    18    2
    10    19    10    1
    11    11    10    1
    12    10     9    1
    13     9     7    1
    14     9     4    1
    15     8     7    1
    16     7     5    1
    17     4     3    1
    18     5     3    1
    19     5     6    1
    20     3     2    1
    21     2     1    1
