@<TRIPOS>MOLECULE
2ejg_BTN_A_1.pdb
 16 17 0 0 0
SMALL
GASTEIGER

@<TRIPOS>ATOM
      1  C11       -5.2980   -2.4980   12.0620 C.2   1401  BTN1401     0.3649
      2  O11       -6.0590   -1.5270   11.9380 O.co2 1401  BTN1401    -0.2457
      3  O12       -5.6870   -3.5840   12.5970 O.co2 1401  BTN1401    -0.2457
      4  C10       -3.8760   -2.4320   11.5810 C.3   1401  BTN1401     0.1141
      5  C9        -3.7300   -2.6040   10.1040 C.3   1401  BTN1401     0.0118
      6  C8        -2.3200   -2.4190    9.5900 C.3   1401  BTN1401     0.0015
      7  C7        -2.2550   -2.6140    8.0780 C.3   1401  BTN1401     0.0129
      8  C2        -0.8770   -2.4520    7.4290 C.3   1401  BTN1401     0.0729
      9  S1        -0.8620   -2.6850    5.6410 S.3   1401  BTN1401    -0.1369
     10  C6         0.9290   -2.4040    5.6870 C.3   1401  BTN1401     0.0848
     11  C5         1.3520   -3.3520    6.8430 C.3   1401  BTN1401     0.1509
     12  N1         1.5320   -4.7360    6.4200 N.2   1401  BTN1401    -0.1859
     13  C3         0.7160   -5.5590    7.1070 C.1   1401  BTN1401     0.2386
     14  O3         0.6560   -6.8170    6.9540 O.2   1401  BTN1401    -0.2023
     15  N2        -0.0550   -4.8350    8.0120 N.2   1401  BTN1401    -0.1860
     16  C4         0.2610   -3.4080    7.9440 C.3   1401  BTN1401     0.1500
@<TRIPOS>BOND
     1     9    10    1
     2     9     8    1
     3    10    11    1
     4    12    11    1
     5    12    13    2
     6    11    16    1
     7    14    13    2
     8    13    15    2
     9     8    16    1
    10     8     7    1
    11    16    15    1
    12     7     6    1
    13     6     5    1
    14     5     4    1
    15     4     1    1
    16     2     1   ar
    17     1     3   ar
