@<TRIPOS>MOLECULE
2ejj_SAH_A_1.pdb
 26 28 0 0 0
SMALL
GASTEIGER

@<TRIPOS>ATOM
      1  N         34.4110   93.1740   67.8390 N.3   1301  SAH1301    -0.1208
      2  CA        32.9570   92.7330   67.6940 C.3   1301  SAH1301     0.1952
      3  CB        32.2930   92.1020   68.8830 C.3   1301  SAH1301     0.0422
      4  CG        32.9150   90.8620   69.5150 C.3   1301  SAH1301     0.0597
      5  SD        31.6790   90.1610   70.6960 S.3   1301  SAH1301    -0.1375
      6  C         32.1370   94.0020   67.2200 C.2   1301  SAH1301     0.3819
      7  O         32.7320   95.0750   67.0620 O.co2 1301  SAH1301    -0.2441
      8  OXT       30.8760   93.8320   67.0200 O.co2 1301  SAH1301    -0.2441
      9  C5'       30.7290   89.1910   69.5890 C.3   1301  SAH1301     0.0899
     10  C4'       29.2400   89.1110   70.1040 C.3   1301  SAH1301     0.1630
     11  O4'       28.6340   90.4040   69.8510 O.3   1301  SAH1301    -0.3153
     12  C3'       28.3810   88.1000   69.4220 C.3   1301  SAH1301     0.2168
     13  O3'       28.4810   86.8340   70.0550 O.3   1301  SAH1301    -0.2175
     14  C2'       26.9880   88.7730   69.5090 C.3   1301  SAH1301     0.2569
     15  O2'       26.3620   88.5570   70.7750 O.3   1301  SAH1301    -0.2130
     16  C1'       27.2850   90.2490   69.2040 C.3   1301  SAH1301     0.3185
     17  N9        27.3380   90.5430   67.8850 N.pl3 1301  SAH1301    -0.1439
     18  C8        28.3610   90.7760   66.9810 C.3   1301  SAH1301     0.3377
     19  N7        27.9760   91.0360   65.7730 N.2   1301  SAH1301    -0.2095
     20  C5        26.5540   90.9830   65.8290 C.2   1301  SAH1301     0.2526
     21  C6        25.5480   91.1830   64.8150 C.2   1301  SAH1301     0.4393
     22  N6        25.8220   91.4730   63.5380 N.pl3 1301  SAH1301     0.2180
     23  N1        24.2440   91.0490   65.2530 N.2   1301  SAH1301     0.0021
     24  C2        23.9170   90.7480   66.5420 C.3   1301  SAH1301     0.5254
     25  N3        24.8520   90.5510   67.5340 N.2   1301  SAH1301    -0.0055
     26  C4        26.1460   90.6830   67.1050 C.2   1301  SAH1301     0.3518
@<TRIPOS>BOND
     1    22    21    1
     2    21    23    2
     3    21    20    1
     4    23    24    1
     5    19    20    2
     6    19    18    1
     7    20    26    1
     8    24    25    1
     9    18    17    1
    10     8     6   ar
    11     7     6   ar
    12    26    25    2
    13    26    17    1
    14     6     2    1
    15     2     1    1
    16     2     3    1
    17    17    16    1
    18     3     4    1
    19    16    14    1
    20    16    11    1
    21    12    14    1
    22    12    13    1
    23    12    10    1
    24    14    15    1
    25     4     5    1
    26     9    10    1
    27     9     5    1
    28    11    10    1
