@<TRIPOS>MOLECULE
2ejk_SAH_A_1.pdb
 26 28 0 0 0
SMALL
GASTEIGER

@<TRIPOS>ATOM
      1  N         33.6990   93.2270   66.4120 N.3   1301  SAH1301    -0.1208
      2  CA        32.2950   92.6950   66.1260 C.3   1301  SAH1301     0.1952
      3  CB        31.6210   91.8640   67.1840 C.3   1301  SAH1301     0.0422
      4  CG        32.2950   90.5990   67.6920 C.3   1301  SAH1301     0.0597
      5  SD        31.1520   89.8310   68.9200 S.3   1301  SAH1301    -0.1375
      6  C         31.4100   93.9600   65.7600 C.2   1301  SAH1301     0.3819
      7  O         31.9420   95.0830   65.7720 O.co2 1301  SAH1301    -0.2441
      8  OXT       30.1650   93.7290   65.4610 O.co2 1301  SAH1301    -0.2441
      9  C5'       30.2670   88.7250   67.9010 C.3   1301  SAH1301     0.0899
     10  C4'       28.7770   88.6010   68.4270 C.3   1301  SAH1301     0.1630
     11  O4'       28.1360   89.8810   68.2110 O.3   1301  SAH1301    -0.3153
     12  C3'       27.9430   87.5770   67.7360 C.3   1301  SAH1301     0.2168
     13  O3'       28.0620   86.3140   68.3780 O.3   1301  SAH1301    -0.2175
     14  C2'       26.5240   88.2120   67.7980 C.3   1301  SAH1301     0.2569
     15  O2'       25.8320   87.8990   69.0080 O.3   1301  SAH1301    -0.2130
     16  C1'       26.7770   89.7140   67.5980 C.3   1301  SAH1301     0.3185
     17  N9        26.7640   90.1130   66.3050 N.pl3 1301  SAH1301    -0.1439
     18  C8        27.7350   90.4260   65.3620 C.3   1301  SAH1301     0.3377
     19  N7        27.2810   90.7830   64.1960 N.2   1301  SAH1301    -0.2095
     20  C5        25.8610   90.7170   64.3320 C.2   1301  SAH1301     0.2526
     21  C6        24.7860   90.9930   63.3970 C.2   1301  SAH1301     0.4393
     22  N6        24.9730   91.3940   62.1300 N.pl3 1301  SAH1301     0.2180
     23  N1        23.5150   90.8110   63.9060 N.2   1301  SAH1301     0.0021
     24  C2        23.2660   90.4040   65.1830 C.3   1301  SAH1301     0.5254
     25  N3        24.2590   90.1320   66.0990 N.2   1301  SAH1301    -0.0055
     26  C4        25.5280   90.3090   65.6060 C.2   1301  SAH1301     0.3518
@<TRIPOS>BOND
     1    22    21    1
     2    21    23    2
     3    21    20    1
     4    23    24    1
     5    19    20    2
     6    19    18    1
     7    20    26    1
     8    24    25    1
     9    18    17    1
    10     8     6   ar
    11    26    25    2
    12    26    17    1
    13     6     7   ar
    14     6     2    1
    15     2     1    1
    16     2     3    1
    17    17    16    1
    18     3     4    1
    19    16    14    1
    20    16    11    1
    21     4     5    1
    22    12    14    1
    23    12    13    1
    24    12    10    1
    25    14    15    1
    26     9    10    1
    27     9     5    1
    28    11    10    1
