@<TRIPOS>MOLECULE
2ejt_SAM_A_1.pdb
 27 29 0 0 0
SMALL
GASTEIGER

@<TRIPOS>ATOM
      1  N         14.9650   24.0480   36.5770 N.pl3 501  SAM501     -0.1127
      2  CA        15.4860   23.9140   37.8190 C.2   501  SAM501      0.2033
      3  C         16.7880   23.9010   38.3930 C.2   501  SAM501      0.4114
      4  O         16.7570   24.5650   39.5200 O.co2 501  SAM501     -0.2383
      5  OXT       17.7470   23.3130   37.8280 O.co2 501  SAM501     -0.2383
      6  CB        14.1540   23.7370   38.6150 C.1   501  SAM501     -0.0707
      7  CG        12.6570   23.6350   38.7810 C.2   501  SAM501      0.0648
      8  SD        11.4730   23.4230   40.0200 S.3   501  SAM501     -0.1447
      9  CE        11.8360   21.9040   40.8770 C.3   501  SAM501      0.0642
     10  C5'       10.0380   23.4440   39.0950 C.3   501  SAM501      0.0997
     11  C4'        9.1840   24.7460   39.3590 C.3   501  SAM501      0.2176
     12  O4'        8.2990   24.6900   38.2380 O.2   501  SAM501     -0.4438
     13  C3'        8.9620   26.0840   40.0530 C.3   501  SAM501      0.2603
     14  O3'        9.8640   27.2420   40.1120 O.3   501  SAM501     -0.2105
     15  C2'        7.5810   26.5290   39.5550 C.2   501  SAM501      0.2803
     16  O2'        6.8170   27.4980   40.0030 O.2   501  SAM501     -0.2813
     17  C1'        7.2170   25.5960   38.4180 C.2   501  SAM501      0.3290
     18  N9         5.9630   25.4130   37.4550 N.pl3 501  SAM501     -0.1135
     19  C8         4.9050   24.6710   37.7520 C.3   501  SAM501      0.3431
     20  N7         4.0480   24.7090   36.7670 N.2   501  SAM501     -0.2092
     21  C5         4.5280   25.4740   35.8140 C.2   501  SAM501      0.2530
     22  C6         4.0620   25.8670   34.5490 C.2   501  SAM501      0.4393
     23  N6         2.8830   25.4370   34.1080 N.pl3 501  SAM501      0.2180
     24  N1         4.8340   26.7070   33.7650 N.2   501  SAM501      0.0021
     25  C2         6.0450   27.1630   34.1980 C.3   501  SAM501      0.5254
     26  N3         6.5170   26.7920   35.4180 N.2   501  SAM501     -0.0051
     27  C4         5.7830   25.9520   36.2490 C.2   501  SAM501      0.3567
@<TRIPOS>BOND
     1    24    25    1
     2    24    22    2
     3    23    22    1
     4    25    26    1
     5    22    21    1
     6    26    27    2
     7    21    27    1
     8    21    20    2
     9    27    18    1
    10     1     2    1
    11    20    19    1
    12    18    19    1
    13    18    17    1
    14     2     3    1
    15     2     6    2
    16     5     3   ar
    17    12    17    1
    18    12    11    1
    19     3     4   ar
    20    17    15    2
    21     6     7    2
    22     7     8    1
    23    10    11    1
    24    10     8    1
    25    11    13    1
    26    15    16    1
    27    15    13    1
    28     8     9    1
    29    13    14    1
