@<TRIPOS>MOLECULE
2eju_SAH_A_1.pdb
 26 28 0 0 0
SMALL
GASTEIGER

@<TRIPOS>ATOM
      1  N         14.7370   78.7440   36.7490 N.pl3 501  SAH501     -0.1214
      2  CA        15.3610   78.8300   37.9410 C.2   501  SAH501      0.1651
      3  CB        14.1000   78.7410   38.8290 C.2   501  SAH501      0.0104
      4  CG        12.6350   78.6240   39.0380 C.3   501  SAH501      0.0852
      5  SD        11.4860   78.5300   40.2910 S.3   501  SAH501     -0.1315
      6  C         16.7020   78.9500   38.3920 C.2   501  SAH501      0.4039
      7  O         16.7400   79.6630   39.4950 O.co2 501  SAH501     -0.2390
      8  OXT       17.6400   78.4170   37.7550 O.co2 501  SAH501     -0.2390
      9  C5'       10.0700   78.4390   39.3450 C.3   501  SAH501      0.1046
     10  C4'        9.2300   79.7420   39.5470 C.3   501  SAH501      0.2181
     11  O4'        8.3510   79.6660   38.4170 O.2   501  SAH501     -0.4438
     12  C3'        9.0370   81.0980   40.1830 C.3   501  SAH501      0.2603
     13  O3'        9.9720   82.2170   40.1750 O.3   501  SAH501     -0.2105
     14  C2'        7.6750   81.5570   39.6640 C.2   501  SAH501      0.2803
     15  O2'        6.9300   82.5600   40.0730 O.2   501  SAH501     -0.2813
     16  C1'        7.3030   80.6080   38.5610 C.2   501  SAH501      0.3290
     17  N9         6.0620   80.4460   37.6080 N.pl3 501  SAH501     -0.1135
     18  C8         5.0060   79.7330   37.9620 C.3   501  SAH501      0.3431
     19  N7         4.1210   79.7460   37.0140 N.2   501  SAH501     -0.2092
     20  C5         4.5800   80.4600   36.0180 C.2   501  SAH501      0.2530
     21  C6         4.0670   80.8140   34.7560 C.2   501  SAH501      0.4393
     22  N6         2.8730   80.3730   34.3930 N.pl3 501  SAH501      0.2180
     23  N1         4.8250   81.6190   33.8920 N.2   501  SAH501      0.0021
     24  C2         6.0730   82.0900   34.2510 C.3   501  SAH501      0.5254
     25  N3         6.5890   81.7550   35.4820 N.2   501  SAH501     -0.0051
     26  C4         5.8650   80.9450   36.3870 C.2   501  SAH501      0.3567
@<TRIPOS>BOND
     1    23    24    1
     2    23    21    2
     3    24    25    1
     4    22    21    1
     5    21    20    1
     6    25    26    2
     7    20    26    1
     8    20    19    2
     9    26    17    1
    10     1     2    1
    11    19    18    1
    12    17    18    1
    13    17    16    1
    14     8     6   ar
    15     2     6    1
    16     2     3    2
    17     6     7   ar
    18    11    16    1
    19    11    10    1
    20    16    14    2
    21     3     4    1
    22     4     5    1
    23     9    10    1
    24     9     5    1
    25    10    12    1
    26    14    15    1
    27    14    12    1
    28    13    12    1
