@<TRIPOS>MOLECULE
2ejv_NAD_A_1.pdb
 44 48 0 0 0
SMALL
GASTEIGER

@<TRIPOS>ATOM
      1  PA        68.9210   13.4810   37.8690 P.3   1350  NAD1350     0.2189
      2  O1A       70.0650   14.2430   37.3110 O.3   1350  NAD1350    -0.4371
      3  O2A       67.5870   13.5520   37.2200 O.2   1350  NAD1350    -0.5170
      4  O5B       69.3010   11.9170   37.9720 O.3   1350  NAD1350    -0.3112
      5  C5B       68.2980   10.9330   38.0290 C.3   1350  NAD1350     0.1813
      6  C4B       68.9900    9.7530   37.3890 C.3   1350  NAD1350     0.1821
      7  O4B       68.0590    8.6760   37.3960 O.3   1350  NAD1350    -0.3135
      8  C3B       69.3620    9.9730   35.9250 C.3   1350  NAD1350     0.2184
      9  O3B       70.7840   10.1460   35.7720 O.3   1350  NAD1350    -0.2174
     10  C2B       68.8170    8.7480   35.2340 C.3   1350  NAD1350     0.2570
     11  O2B       69.7480    8.1850   34.3080 O.3   1350  NAD1350    -0.2130
     12  C1B       68.4940    7.8000   36.3690 C.3   1350  NAD1350     0.3186
     13  N9A       67.4540    6.7680   36.0520 N.pl3 1350  NAD1350    -0.1439
     14  C8A       66.3190    6.8900   35.3330 C.3   1350  NAD1350     0.3377
     15  N7A       65.6520    5.7130   35.2550 N.2   1350  NAD1350    -0.2095
     16  C5A       66.4150    4.8930   35.9430 C.2   1350  NAD1350     0.2526
     17  C6A       66.1310    3.5310   36.1350 C.2   1350  NAD1350     0.4393
     18  N6A       65.0450    2.9680   35.6180 N.pl3 1350  NAD1350     0.2180
     19  N1A       67.0420    2.8510   36.8800 N.2   1350  NAD1350     0.0021
     20  C2A       68.1380    3.4340   37.3940 C.3   1350  NAD1350     0.5254
     21  N3A       68.4130    4.7450   37.2010 N.2   1350  NAD1350    -0.0055
     22  C4A       67.5480    5.4930   36.4680 C.2   1350  NAD1350     0.3518
     23  O3        68.7620   13.9130   39.4150 O.3   1350  NAD1350    -0.2703
     24  PN        69.7500   14.2000   40.6440 P.3   1350  NAD1350     0.2189
     25  O1N       70.2470   15.5810   40.5480 O.2   1350  NAD1350    -0.5170
     26  O2N       70.7570   13.0870   40.6960 O.3   1350  NAD1350    -0.4371
     27  O5D       68.7240   14.1220   41.8870 O.3   1350  NAD1350    -0.3112
     28  C5D       68.0980   12.8560   42.1790 C.3   1350  NAD1350     0.1813
     29  C4D       66.6040   13.0020   42.4350 C.3   1350  NAD1350     0.1799
     30  O4D       66.3860   13.6460   43.6900 O.3   1350  NAD1350    -0.3327
     31  C3D       65.8520   13.8430   41.4200 C.3   1350  NAD1350     0.2158
     32  O3D       64.5770   13.2510   41.1570 O.3   1350  NAD1350    -0.2175
     33  C2D       65.7010   15.1910   42.0950 C.3   1350  NAD1350     0.2309
     34  O2D       64.5630   15.9180   41.5910 O.3   1350  NAD1350    -0.2158
     35  C1D       65.5420   14.7920   43.5390 C.3   1350  NAD1350     0.2263
     36  N1N       65.9100   15.7800   44.6070 N.pl3 1350  NAD1350    -0.2787
     37  C2N       65.2030   15.6220   45.8240 C.3   1350  NAD1350     0.1244
     38  C3N       65.4370   16.4660   46.9130 C.2   1350  NAD1350     0.0544
     39  C7N       64.6530   16.2670   48.2320 C.2   1350  NAD1350     0.2818
     40  O7N       64.7030   17.1790   49.0630 O.2   1350  NAD1350    -0.2670
     41  N7N       63.9690   15.1170   48.3980 N.am  1350  NAD1350    -0.0839
     42  C4N       66.4120   17.5070   46.7810 C.2   1350  NAD1350     0.0033
     43  C5N       67.1370   17.6860   45.5600 C.2   1350  NAD1350     0.0157
     44  C6N       66.8900   16.8170   44.4530 C.2   1350  NAD1350     0.0633
@<TRIPOS>BOND
     1    11    10    1
     2    10     8    1
     3    10    12    1
     4    15    14    1
     5    15    16    2
     6    14    13    1
     7    18    17    1
     8     9     8    1
     9     8     6    1
    10    16    17    1
    11    16    22    1
    12    13    12    1
    13    13    22    1
    14    17    19    2
    15    12     7    1
    16    22    21    2
    17    19    20    1
    18    21    20    1
    19     3     1    2
    20     2     1    1
    21     6     7    1
    22     6     5    1
    23     1     4    1
    24     1    23    1
    25     4     5    1
    26    23    24    1
    27    25    24    2
    28    24    26    1
    29    24    27    1
    30    32    31    1
    31    31    33    1
    32    31    29    1
    33    34    33    1
    34    27    28    1
    35    33    35    1
    36    28    29    1
    37    29    30    1
    38    35    30    1
    39    35    36    1
    40    44    36    1
    41    44    43    2
    42    36    37    1
    43    43    42    1
    44    37    38    1
    45    42    38    2
    46    38    39    1
    47    39    41   am
    48    39    40    2
