@<TRIPOS>MOLECULE
2ejz_SAH_A_1.pdb
 26 28 0 0 0
SMALL
GASTEIGER

@<TRIPOS>ATOM
      1  N         33.8130   93.0700   67.5930 N.3   1301  SAH1301    -0.1208
      2  CA        32.3610   92.6500   67.4320 C.3   1301  SAH1301     0.1952
      3  CB        31.7080   91.9760   68.6150 C.3   1301  SAH1301     0.0422
      4  CG        32.3460   90.7050   69.1680 C.3   1301  SAH1301     0.0597
      5  SD        31.2000   89.9710   70.4190 S.3   1301  SAH1301    -0.1375
      6  C         31.5620   93.9540   67.0050 C.2   1301  SAH1301     0.3819
      7  O         32.1820   95.0330   66.8920 O.co2 1301  SAH1301    -0.2441
      8  OXT       30.2970   93.8090   66.7930 O.co2 1301  SAH1301    -0.2441
      9  C5'       30.2420   88.9280   69.3890 C.3   1301  SAH1301     0.0899
     10  C4'       28.7620   88.8500   69.9420 C.3   1301  SAH1301     0.1630
     11  O4'       28.1490   90.1460   69.7210 O.3   1301  SAH1301    -0.3153
     12  C3'       27.8820   87.8490   69.2780 C.3   1301  SAH1301     0.2168
     13  O3'       27.9960   86.5840   69.9090 O.3   1301  SAH1301    -0.2175
     14  C2'       26.4970   88.5290   69.4070 C.3   1301  SAH1301     0.2569
     15  O2'       25.9050   88.3070   70.6950 O.3   1301  SAH1301    -0.2130
     16  C1'       26.7930   90.0090   69.1160 C.3   1301  SAH1301     0.3185
     17  N9        26.8030   90.3400   67.7950 N.pl3 1301  SAH1301    -0.1439
     18  C8        27.7890   90.6000   66.8620 C.3   1301  SAH1301     0.3377
     19  N7        27.3580   90.8920   65.6660 N.2   1301  SAH1301    -0.2095
     20  C5        25.9480   90.8340   65.7760 C.2   1301  SAH1301     0.2526
     21  C6        24.9000   91.0580   64.8100 C.2   1301  SAH1301     0.4393
     22  N6        25.1160   91.3830   63.5240 N.pl3 1301  SAH1301     0.2180
     23  N1        23.6270   90.9080   65.2980 N.2   1301  SAH1301     0.0021
     24  C2        23.3520   90.5730   66.5930 C.3   1301  SAH1301     0.5254
     25  N3        24.3220   90.3510   67.5420 N.2   1301  SAH1301    -0.0055
     26  C4        25.5910   90.4990   67.0680 C.2   1301  SAH1301     0.3518
@<TRIPOS>BOND
     1    22    21    1
     2    21    23    2
     3    21    20    1
     4    23    24    1
     5    19    20    2
     6    19    18    1
     7    20    26    1
     8    24    25    1
     9     8     6   ar
    10    18    17    1
    11     7     6   ar
    12     6     2    1
    13    26    25    2
    14    26    17    1
    15     2     1    1
    16     2     3    1
    17    17    16    1
    18     3     4    1
    19    16    14    1
    20    16    11    1
    21     4     5    1
    22    12    14    1
    23    12    13    1
    24    12    10    1
    25     9    10    1
    26     9     5    1
    27    14    15    1
    28    11    10    1
