@<TRIPOS>MOLECULE
2ek2_SAH_A_1.pdb
 26 28 0 0 0
SMALL
GASTEIGER

@<TRIPOS>ATOM
      1  N         34.4080   93.0690   68.3320 N.3   1301  SAH1301    -0.1208
      2  CA        32.9500   92.6630   68.2280 C.3   1301  SAH1301     0.1952
      3  CB        32.3120   92.0550   69.4420 C.3   1301  SAH1301     0.0422
      4  CG        33.0650   91.2470   70.5270 C.3   1301  SAH1301     0.0597
      5  SD        31.9050   90.2630   71.5990 S.3   1301  SAH1301    -0.1375
      6  C         32.1570   93.9810   67.7610 C.2   1301  SAH1301     0.3819
      7  O         30.9570   93.8930   67.4290 O.co2 1301  SAH1301    -0.2441
      8  OXT       32.8200   95.0880   67.7830 O.co2 1301  SAH1301    -0.2441
      9  C5'       31.0360   89.2840   70.4420 C.3   1301  SAH1301     0.0899
     10  C4'       29.5260   89.1850   70.9160 C.3   1301  SAH1301     0.1630
     11  O4'       28.9030   90.4640   70.6430 O.3   1301  SAH1301    -0.3153
     12  C3'       28.6900   88.1590   70.2300 C.3   1301  SAH1301     0.2168
     13  O3'       28.8050   86.9050   70.8810 O.3   1301  SAH1301    -0.2175
     14  C2'       27.2830   88.8120   70.3050 C.3   1301  SAH1301     0.2569
     15  O2'       26.6450   88.5920   71.5640 O.3   1301  SAH1301    -0.2130
     16  C1'       27.5530   90.2890   70.0050 C.3   1301  SAH1301     0.3185
     17  N9        27.5700   90.5940   68.6830 N.pl3 1301  SAH1301    -0.1439
     18  C8        28.5620   90.7740   67.7320 C.3   1301  SAH1301     0.3377
     19  N7        28.1360   91.0210   66.5330 N.2   1301  SAH1301    -0.2095
     20  C5        26.7180   90.9830   66.6420 C.2   1301  SAH1301     0.2526
     21  C6        25.6800   91.1720   65.6600 C.2   1301  SAH1301     0.4393
     22  N6        25.9140   91.4540   64.3730 N.pl3 1301  SAH1301     0.2180
     23  N1        24.3940   91.0440   66.1440 N.2   1301  SAH1301     0.0021
     24  C2        24.1090   90.7570   67.4430 C.3   1301  SAH1301     0.5254
     25  N3        25.0780   90.5670   68.4030 N.2   1301  SAH1301    -0.0055
     26  C4        26.3540   90.7030   67.9330 C.2   1301  SAH1301     0.3518
@<TRIPOS>BOND
     1    22    21    1
     2    21    23    2
     3    21    20    1
     4    23    24    1
     5    19    20    2
     6    19    18    1
     7    20    26    1
     8     7     6   ar
     9    24    25    1
    10    18    17    1
    11     6     8   ar
    12     6     2    1
    13    26    25    2
    14    26    17    1
    15     2     1    1
    16     2     3    1
    17    17    16    1
    18     3     4    1
    19    16    14    1
    20    16    11    1
    21    12    14    1
    22    12    13    1
    23    12    10    1
    24    14    15    1
    25     9    10    1
    26     9     5    1
    27     4     5    1
    28    11    10    1
