@<TRIPOS>MOLECULE
2ek3_SAH_A_1.pdb
 26 28 0 0 0
SMALL
GASTEIGER

@<TRIPOS>ATOM
      1  N         33.7780   92.5610   67.2530 N.3   301  SAH301     -0.1208
      2  CA        32.3170   92.1250   67.2250 C.3   301  SAH301      0.1952
      3  CB        31.7330   91.5560   68.4830 C.3   301  SAH301      0.0422
      4  CG        32.3850   90.3380   69.1100 C.3   301  SAH301      0.0597
      5  SD        31.1520   89.5720   70.2340 S.3   301  SAH301     -0.1375
      6  C         31.4940   93.3860   66.7460 C.2   301  SAH301      0.3819
      7  O         32.1100   94.4400   66.5010 O.co2 301  SAH301     -0.2441
      8  OXT       30.2080   93.2260   66.6370 O.co2 301  SAH301     -0.2441
      9  C5'       30.2740   88.5240   69.1430 C.3   301  SAH301      0.0899
     10  C4'       28.7940   88.3910   69.6850 C.3   301  SAH301      0.1630
     11  O4'       28.1930   89.6920   69.5280 O.3   301  SAH301     -0.3153
     12  C3'       27.9090   87.4310   68.9710 C.3   301  SAH301      0.2168
     13  O3'       28.0010   86.1290   69.5390 O.3   301  SAH301     -0.2175
     14  C2'       26.5360   88.1230   69.1360 C.3   301  SAH301      0.2569
     15  O2'       25.9600   87.8710   70.4240 O.3   301  SAH301     -0.2130
     16  C1'       26.8520   89.5970   68.8910 C.3   301  SAH301      0.3185
     17  N9        26.8890   89.9810   67.5920 N.pl3 301  SAH301     -0.1439
     18  C8        27.8910   90.3170   66.6970 C.3   301  SAH301      0.3377
     19  N7        27.4850   90.6460   65.5050 N.2   301  SAH301     -0.2095
     20  C5        26.0680   90.5330   65.5750 C.2   301  SAH301      0.2526
     21  C6        25.0350   90.7670   64.5920 C.2   301  SAH301      0.4393
     22  N6        25.2690   91.1640   63.3360 N.pl3 301  SAH301      0.2180
     23  N1        23.7540   90.5500   65.0410 N.2   301  SAH301      0.0021
     24  C2        23.4600   90.1470   66.3050 C.3   301  SAH301      0.5254
     25  N3        24.4120   89.9160   67.2650 N.2   301  SAH301     -0.0055
     26  C4        25.6880   90.1290   66.8330 C.2   301  SAH301      0.3518
@<TRIPOS>BOND
     1    22    21    1
     2    21    23    2
     3    21    20    1
     4    23    24    1
     5    19    20    2
     6    19    18    1
     7    20    26    1
     8    24    25    1
     9     7     6   ar
    10     8     6   ar
    11    18    17    1
    12     6     2    1
    13    26    25    2
    14    26    17    1
    15     2     1    1
    16     2     3    1
    17    17    16    1
    18     3     4    1
    19    16    14    1
    20    16    11    1
    21    12    14    1
    22    12    13    1
    23    12    10    1
    24     4     5    1
    25    14    15    1
    26     9    10    1
    27     9     5    1
    28    11    10    1
