@<TRIPOS>MOLECULE
2ek4_SAH_A_1.pdb
 26 28 0 0 0
SMALL
GASTEIGER

@<TRIPOS>ATOM
      1  N         33.7170   92.6180   66.7270 N.3   301  SAH301     -0.1208
      2  CA        32.2740   92.1790   66.6020 C.3   301  SAH301      0.1952
      3  CB        31.6460   91.5000   67.7820 C.3   301  SAH301      0.0422
      4  CG        32.2840   90.2390   68.3410 C.3   301  SAH301      0.0597
      5  SD        31.0920   89.5240   69.5370 S.3   301  SAH301     -0.1375
      6  C         31.4600   93.4720   66.1850 C.2   301  SAH301      0.3819
      7  O         32.0770   94.5510   66.0460 O.co2 301  SAH301     -0.2441
      8  OXT       30.1830   93.3190   66.0100 O.co2 301  SAH301     -0.2441
      9  C5'       30.1630   88.4930   68.4700 C.3   301  SAH301      0.0899
     10  C4'       28.6910   88.3720   69.0290 C.3   301  SAH301      0.1630
     11  O4'       28.0420   89.6420   68.8040 O.3   301  SAH301     -0.3153
     12  C3'       27.8440   87.3350   68.3790 C.3   301  SAH301      0.2168
     13  O3'       27.9860   86.0890   69.0480 O.3   301  SAH301     -0.2175
     14  C2'       26.4400   87.9650   68.4840 C.3   301  SAH301      0.2569
     15  O2'       25.8420   87.7080   69.7560 O.3   301  SAH301     -0.2130
     16  C1'       26.6820   89.4530   68.2080 C.3   301  SAH301      0.3185
     17  N9        26.6650   89.8090   66.8990 N.pl3 301  SAH301     -0.1439
     18  C8        27.6340   90.0890   65.9500 C.3   301  SAH301      0.3377
     19  N7        27.1860   90.4120   64.7750 N.2   301  SAH301     -0.2095
     20  C5        25.7760   90.3560   64.9130 C.2   301  SAH301      0.2526
     21  C6        24.7180   90.6160   63.9710 C.2   301  SAH301      0.4393
     22  N6        24.9280   90.9820   62.7010 N.pl3 301  SAH301      0.2180
     23  N1        23.4440   90.4600   64.4730 N.2   301  SAH301      0.0021
     24  C2        23.1860   90.0870   65.7580 C.3   301  SAH301      0.5254
     25  N3        24.1670   89.8340   66.6880 N.2   301  SAH301     -0.0055
     26  C4        25.4370   89.9880   66.1940 C.2   301  SAH301      0.3518
@<TRIPOS>BOND
     1    22    21    1
     2    21    23    2
     3    21    20    1
     4    23    24    1
     5    19    20    2
     6    19    18    1
     7    20    26    1
     8    24    25    1
     9    18    17    1
    10     8     6   ar
    11     7     6   ar
    12     6     2    1
    13    26    25    2
    14    26    17    1
    15     2     1    1
    16     2     3    1
    17    17    16    1
    18     3     4    1
    19    16    14    1
    20    16    11    1
    21     4     5    1
    22    12    14    1
    23    12    10    1
    24    12    13    1
    25     9    10    1
    26     9     5    1
    27    14    15    1
    28    11    10    1
