@<TRIPOS>MOLECULE
2ek7_SAH_A_1.pdb
 26 28 0 0 0
SMALL
GASTEIGER

@<TRIPOS>ATOM
      1  N         33.5400   92.2220   66.5700 N.3   301  SAH301     -0.1208
      2  CA        32.0860   91.7900   66.4370 C.3   301  SAH301      0.1952
      3  CB        31.4560   91.1480   67.6340 C.3   301  SAH301      0.0422
      4  CG        32.1100   89.9000   68.2130 C.3   301  SAH301      0.0597
      5  SD        30.9550   89.1820   69.4490 S.3   301  SAH301     -0.1375
      6  C         31.2740   93.0750   65.9850 C.2   301  SAH301      0.3819
      7  O         31.8840   94.1460   65.8370 O.co2 301  SAH301     -0.2441
      8  OXT       30.0090   92.9210   65.7940 O.co2 301  SAH301     -0.2441
      9  C5'       30.0000   88.1470   68.4060 C.3   301  SAH301      0.0899
     10  C4'       28.5320   88.0500   68.9700 C.3   301  SAH301      0.1630
     11  O4'       27.8970   89.3260   68.7330 O.3   301  SAH301     -0.3153
     12  C3'       27.6720   87.0170   68.3280 C.3   301  SAH301      0.2168
     13  O3'       27.8140   85.7660   68.9870 O.3   301  SAH301     -0.2175
     14  C2'       26.2710   87.6630   68.4420 C.3   301  SAH301      0.2569
     15  O2'       25.6590   87.4230   69.7170 O.3   301  SAH301     -0.2130
     16  C1'       26.5360   89.1470   68.1510 C.3   301  SAH301      0.3185
     17  N9        26.5130   89.4850   66.8370 N.pl3 301  SAH301     -0.1439
     18  C8        27.4770   89.7410   65.8730 C.3   301  SAH301      0.3377
     19  N7        27.0120   90.0510   64.6970 N.2   301  SAH301     -0.2095
     20  C5        25.5980   90.0100   64.8520 C.2   301  SAH301      0.2526
     21  C6        24.5210   90.2630   63.9200 C.2   301  SAH301      0.4393
     22  N6        24.7020   90.6080   62.6380 N.pl3 301  SAH301      0.2180
     23  N1        23.2590   90.1200   64.4470 N.2   301  SAH301      0.0021
     24  C2        23.0210   89.7700   65.7440 C.3   301  SAH301      0.5254
     25  N3        24.0180   89.5260   66.6570 N.2   301  SAH301     -0.0055
     26  C4        25.2760   89.6650   66.1450 C.2   301  SAH301      0.3518
@<TRIPOS>BOND
     1    22    21    1
     2    21    23    2
     3    21    20    1
     4    23    24    1
     5    19    20    2
     6    19    18    1
     7    20    26    1
     8    24    25    1
     9     8     6   ar
    10     7     6   ar
    11    18    17    1
    12     6     2    1
    13    26    25    2
    14    26    17    1
    15     2     1    1
    16     2     3    1
    17    17    16    1
    18     3     4    1
    19    16    14    1
    20    16    11    1
    21     4     5    1
    22    12    14    1
    23    12    10    1
    24    12    13    1
    25     9    10    1
    26     9     5    1
    27    14    15    1
    28    11    10    1
