@<TRIPOS>MOLECULE
2ek9_BES_A_1.pdb
 22 22 0 0 0
SMALL
GASTEIGER

@<TRIPOS>ATOM
      1  N2        17.2260   18.8920   15.8430 N.3   2001  BES2001    -0.1293
      2  C1        15.8210   19.2390   15.9280 C.3   2001  BES2001     0.1355
      3  C6        15.1750   18.4670   17.0730 C.3   2001  BES2001     0.0485
      4  C7        15.6310   17.0270   17.0290 C.ar  2001  BES2001    -0.0206
      5  C8        16.8450   16.6650   17.6020 C.ar  2001  BES2001    -0.0042
      6  C12       14.8370   16.0640   16.4180 C.ar  2001  BES2001    -0.0042
      7  C9        17.2650   15.3400   17.5620 C.ar  2001  BES2001    -0.0003
      8  C11       15.2570   14.7400   16.3780 C.ar  2001  BES2001    -0.0003
      9  C10       16.4710   14.3780   16.9500 C.ar  2001  BES2001    -0.0000
     10  C2        15.6800   20.7420   16.1350 C.3   2001  BES2001     0.2467
     11  O2        16.8560   21.4030   15.6540 O.3   2001  BES2001    -0.2116
     12  C3        15.5060   21.0310   17.5970 C.2   2001  BES2001     0.2738
     13  O3        16.4490   21.4160   18.2680 O.2   2001  BES2001    -0.2705
     14  N1        14.2880   20.8440   18.0980 N.am  2001  BES2001    -0.1934
     15  C4        14.0100   21.0940   19.5040 C.3   2001  BES2001     0.1978
     16  C13       12.5070   20.8930   19.6500 C.3   2001  BES2001     0.0333
     17  C14       11.7530   22.1870   19.3670 C.3   2001  BES2001     0.0023
     18  C15       10.3390   22.1300   19.9330 C.3   2001  BES2001     0.0001
     19  C16       12.5110   23.3920   19.9130 C.3   2001  BES2001     0.0001
     20  C5        14.7330   20.1240   20.3910 C.2   2001  BES2001     0.3842
     21  O1        15.0430   19.0060   19.9240 O.co2 2001  BES2001    -0.2437
     22  O4        14.9970   20.4690   21.5630 O.co2 2001  BES2001    -0.2437
@<TRIPOS>BOND
     1    11    10    1
     2     1     2    1
     3     2    10    1
     4     2     3    1
     5    10    12    1
     6     8     6   ar
     7     8     9   ar
     8     6     4   ar
     9     9     7   ar
    10     4     3    1
    11     4     5   ar
    12     7     5   ar
    13    12    14   am
    14    12    13    2
    15    14    15    1
    16    17    16    1
    17    17    19    1
    18    17    18    1
    19    15    16    1
    20    15    20    1
    21    21    20   ar
    22    20    22   ar
