@<TRIPOS>MOLECULE
2eka_SAH_A_1.pdb
 26 28 0 0 0
SMALL
GASTEIGER

@<TRIPOS>ATOM
      1  N         33.9540   93.4730   67.4320 N.3   301  SAH301     -0.1208
      2  CA        32.5010   93.0500   67.3220 C.3   301  SAH301      0.1952
      3  CB        31.8680   92.4000   68.5260 C.3   301  SAH301      0.0422
      4  CG        32.5040   91.1360   69.0880 C.3   301  SAH301      0.0597
      5  SD        31.3480   90.3900   70.3120 S.3   301  SAH301     -0.1375
      6  C         31.7110   94.3440   66.8910 C.2   301  SAH301      0.3819
      7  O         32.3490   95.4070   66.7420 O.co2 301  SAH301     -0.2441
      8  OXT       30.4380   94.2120   66.7160 O.co2 301  SAH301     -0.2441
      9  C5'       30.4070   89.3310   69.2900 C.3   301  SAH301      0.0899
     10  C4'       28.9350   89.2840   69.8580 C.3   301  SAH301      0.1630
     11  O4'       28.3550   90.5810   69.6120 O.3   301  SAH301     -0.3153
     12  C3'       28.0150   88.2870   69.2300 C.3   301  SAH301      0.2168
     13  O3'       28.1090   87.0400   69.8930 O.3   301  SAH301     -0.2175
     14  C2'       26.6560   88.9870   69.3880 C.3   301  SAH301      0.2569
     15  O2'       26.1300   88.7870   70.7070 O.3   301  SAH301     -0.2130
     16  C1'       26.9650   90.4560   69.0640 C.3   301  SAH301      0.3185
     17  N9        26.9280   90.7950   67.7510 N.pl3 301  SAH301     -0.1439
     18  C8        27.8890   91.0520   66.7860 C.3   301  SAH301      0.3377
     19  N7        27.4230   91.3650   65.6120 N.2   301  SAH301     -0.2095
     20  C5        26.0100   91.3290   65.7660 C.2   301  SAH301      0.2526
     21  C6        24.9390   91.5930   64.8350 C.2   301  SAH301      0.4393
     22  N6        25.1270   91.9450   63.5530 N.pl3 301  SAH301      0.2180
     23  N1        23.6710   91.4580   65.3570 N.2   301  SAH301      0.0021
     24  C2        23.4300   91.1040   66.6450 C.3   301  SAH301      0.5254
     25  N3        24.4260   90.8490   67.5580 N.2   301  SAH301     -0.0055
     26  C4        25.6860   90.9810   67.0530 C.2   301  SAH301      0.3518
@<TRIPOS>BOND
     1    22    21    1
     2    21    23    2
     3    21    20    1
     4    23    24    1
     5    19    20    2
     6    19    18    1
     7    20    26    1
     8    24    25    1
     9     8     6   ar
    10     7     6   ar
    11    18    17    1
    12     6     2    1
    13    26    25    2
    14    26    17    1
    15     2     1    1
    16     2     3    1
    17    17    16    1
    18     3     4    1
    19    16    14    1
    20    16    11    1
    21     4     5    1
    22    12    14    1
    23    12    10    1
    24    12    13    1
    25     9    10    1
    26     9     5    1
    27    14    15    1
    28    11    10    1
