@<TRIPOS>MOLECULE
2ekl_NAD_A_1.pdb
 44 48 0 0 0
SMALL
GASTEIGER

@<TRIPOS>ATOM
      1  PA        16.8350   36.9970   10.7210 P.3   1300  NAD1300     0.2189
      2  O1A       15.8030   35.9850   11.0090 O.2   1300  NAD1300    -0.5170
      3  O2A       18.0730   36.9730   11.6020 O.3   1300  NAD1300    -0.4371
      4  O5B       17.2240   36.8340    9.1750 O.3   1300  NAD1300    -0.3112
      5  C5B       18.2390   37.6560    8.6200 C.3   1300  NAD1300     0.1813
      6  C4B       18.8580   36.7430    7.3980 C.3   1300  NAD1300     0.1821
      7  O4B       19.6190   37.5530    6.4870 O.3   1300  NAD1300    -0.3135
      8  C3B       19.6790   35.5420    7.9760 C.3   1300  NAD1300     0.2184
      9  O3B       19.2360   34.2950    7.4440 O.3   1300  NAD1300    -0.2174
     10  C2B       21.1200   35.9550    7.6520 C.3   1300  NAD1300     0.2570
     11  O2B       22.0860   34.9380    7.5390 O.3   1300  NAD1300    -0.2130
     12  C1B       20.8460   36.7530    6.4310 C.3   1300  NAD1300     0.3186
     13  N9A       22.0010   37.5970    5.9880 N.pl3 1300  NAD1300    -0.1439
     14  C8A       22.8860   38.3790    6.7160 C.3   1300  NAD1300     0.3377
     15  N7A       23.7740   38.9610    5.8760 N.2   1300  NAD1300    -0.2095
     16  C5A       23.4760   38.5690    4.6160 C.2   1300  NAD1300     0.2526
     17  C6A       24.0250   38.8280    3.2980 C.2   1300  NAD1300     0.4393
     18  N6A       25.0730   39.6200    3.1390 N.pl3 1300  NAD1300     0.2180
     19  N1A       23.4310   38.2200    2.1410 N.2   1300  NAD1300     0.0021
     20  C2A       22.2960   37.3520    2.2480 C.3   1300  NAD1300     0.5254
     21  N3A       21.7580   37.0960    3.5310 N.2   1300  NAD1300    -0.0055
     22  C4A       22.3420   37.6960    4.6790 C.2   1300  NAD1300     0.3518
     23  O3        16.2030   38.4700   10.8810 O.3   1300  NAD1300    -0.2703
     24  PN        14.6970   38.9880   10.6210 P.3   1300  NAD1300     0.2189
     25  O1N       14.0910   38.2300    9.5160 O.2   1300  NAD1300    -0.5170
     26  O2N       14.0250   38.8610   11.9470 O.3   1300  NAD1300    -0.4371
     27  O5D       15.0360   40.4970   10.3170 O.3   1300  NAD1300    -0.3112
     28  C5D       15.4950   40.8630    9.0330 C.3   1300  NAD1300     0.1813
     29  C4D       15.7960   42.3450    8.9530 C.3   1300  NAD1300     0.1799
     30  O4D       14.6340   43.1330    9.1370 O.3   1300  NAD1300    -0.3327
     31  C3D       16.8170   42.9010    9.9870 C.3   1300  NAD1300     0.2158
     32  O3D       17.7250   43.8260    9.3690 O.3   1300  NAD1300    -0.2175
     33  C2D       15.9530   43.4940   11.0400 C.3   1300  NAD1300     0.2309
     34  O2D       16.6690   44.3300   11.9280 O.3   1300  NAD1300    -0.2158
     35  C1D       14.9150   44.0980   10.1360 C.3   1300  NAD1300     0.2263
     36  N1N       13.6080   44.4900   10.7360 N.pl3 1300  NAD1300    -0.2787
     37  C2N       13.0660   45.7660   10.3850 C.3   1300  NAD1300     0.1244
     38  C3N       11.8160   46.1620   10.9470 C.2   1300  NAD1300     0.0544
     39  C7N       11.2450   47.4800   10.5840 C.2   1300  NAD1300     0.2818
     40  O7N       10.5630   48.1340   11.5390 O.2   1300  NAD1300    -0.2670
     41  N7N       11.3660   48.0460    9.3920 N.am  1300  NAD1300    -0.0839
     42  C4N       11.1350   45.2220   11.8780 C.2   1300  NAD1300     0.0033
     43  C5N       11.6980   43.9300   12.2260 C.2   1300  NAD1300     0.0157
     44  C6N       12.9530   43.5680   11.6410 C.2   1300  NAD1300     0.0633
@<TRIPOS>BOND
     1    19    20    1
     2    19    17    2
     3    20    21    1
     4    18    17    1
     5    17    16    1
     6    21    22    2
     7    16    22    1
     8    16    15    2
     9    22    13    1
    10    15    14    1
    11    13    12    1
    12    13    14    1
    13    12     7    1
    14    12    10    1
    15     7     6    1
    16     6     8    1
    17     6     5    1
    18     9     8    1
    19    11    10    1
    20    10     8    1
    21     5     4    1
    22    29    28    1
    23    29    30    1
    24    29    31    1
    25    28    27    1
    26    30    35    1
    27     4     1    1
    28    32    31    1
    29    41    39   am
    30    25    24    2
    31    31    33    1
    32    35    36    1
    33    35    33    1
    34    27    24    1
    35    37    36    1
    36    37    38    1
    37    39    38    1
    38    39    40    2
    39    24    23    1
    40    24    26    1
    41     1    23    1
    42     1     2    2
    43     1     3    1
    44    36    44    1
    45    38    42    2
    46    33    34    1
    47    44    43    2
    48    42    43    1
