@<TRIPOS>MOLECULE
2ekp_NAD_A_1.pdb
 44 48 0 0 0
SMALL
GASTEIGER

@<TRIPOS>ATOM
      1  PA        46.9180   17.6940   75.6730 P.3   1300  NAD1300     0.2189
      2  O1A       47.5410   16.8090   74.6690 O.2   1300  NAD1300    -0.5170
      3  O2A       47.8620   18.6310   76.3930 O.3   1300  NAD1300    -0.4371
      4  O5B       45.7480   18.5210   74.9400 O.3   1300  NAD1300    -0.3112
      5  C5B       45.0360   19.4470   75.7420 C.3   1300  NAD1300     0.1813
      6  C4B       43.8950   20.1920   74.8030 C.3   1300  NAD1300     0.1821
      7  O4B       43.2060   21.0710   75.7030 O.3   1300  NAD1300    -0.3135
      8  C3B       44.6180   20.9540   73.6590 C.3   1300  NAD1300     0.2184
      9  O3B       43.8770   20.8700   72.4390 O.3   1300  NAD1300    -0.2174
     10  C2B       44.7330   22.3560   74.2440 C.3   1300  NAD1300     0.2570
     11  O2B       44.9090   23.4250   73.3480 O.3   1300  NAD1300    -0.2130
     12  C1B       43.4730   22.3550   75.0520 C.3   1300  NAD1300     0.3186
     13  N9A       43.3880   23.4650   76.0320 N.pl3 1300  NAD1300    -0.1439
     14  C8A       44.2310   23.7670   77.0820 C.3   1300  NAD1300     0.3377
     15  N7A       43.7910   24.8720   77.7140 N.2   1300  NAD1300    -0.2095
     16  C5A       42.6670   25.2880   77.0940 C.2   1300  NAD1300     0.2526
     17  C6A       41.7630   26.3830   77.2790 C.2   1300  NAD1300     0.4393
     18  N6A       41.9510   27.2620   78.2550 N.pl3 1300  NAD1300     0.2180
     19  N1A       40.6430   26.5270   76.4130 N.2   1300  NAD1300     0.0021
     20  C2A       40.4060   25.6110   75.3530 C.3   1300  NAD1300     0.5254
     21  N3A       41.2950   24.5400   75.1580 N.2   1300  NAD1300    -0.0055
     22  C4A       42.3980   24.3920   76.0150 C.2   1300  NAD1300     0.3518
     23  O3        46.1770   16.8350   76.8120 O.3   1300  NAD1300    -0.2703
     24  PN        45.5790   15.3460   76.7640 P.3   1300  NAD1300     0.2189
     25  O1N       45.2570   14.9710   75.3700 O.2   1300  NAD1300    -0.5170
     26  O2N       46.5840   14.5080   77.4630 O.3   1300  NAD1300    -0.4371
     27  O5D       44.3110   15.5750   77.6910 O.3   1300  NAD1300    -0.3112
     28  C5D       43.0070   15.4560   77.1530 C.3   1300  NAD1300     0.1813
     29  C4D       42.0200   14.9410   78.1880 C.3   1300  NAD1300     0.1799
     30  O4D       42.3420   13.6170   78.5590 O.3   1300  NAD1300    -0.3327
     31  C3D       41.9460   15.7180   79.5170 C.3   1300  NAD1300     0.2158
     32  O3D       40.5900   15.8020   79.9700 O.3   1300  NAD1300    -0.2175
     33  C2D       42.8250   14.9400   80.4250 C.3   1300  NAD1300     0.2309
     34  O2D       42.6330   15.2930   81.7860 O.3   1300  NAD1300    -0.2158
     35  C1D       42.4370   13.5520   79.9730 C.3   1300  NAD1300     0.2263
     36  N1N       43.3770   12.4430   80.2900 N.pl3 1300  NAD1300    -0.2787
     37  C2N       44.7100   12.4580   79.7800 C.3   1300  NAD1300     0.1244
     38  C3N       45.5710   11.3690   80.1090 C.2   1300  NAD1300     0.0544
     39  C7N       46.9650   11.3390   79.6060 C.2   1300  NAD1300     0.2818
     40  O7N       47.7210   10.2820   79.9770 O.2   1300  NAD1300    -0.2670
     41  N7N       47.5100   12.2660   78.8420 N.am  1300  NAD1300    -0.0839
     42  C4N       45.0380   10.2820   80.9360 C.2   1300  NAD1300     0.0033
     43  C5N       43.6930   10.2860   81.4320 C.2   1300  NAD1300     0.0157
     44  C6N       42.8640   11.3820   81.0940 C.2   1300  NAD1300     0.0633
@<TRIPOS>BOND
     1     9     8    1
     2    11    10    1
     3     8    10    1
     4     8     6    1
     5    10    12    1
     6     2     1    2
     7     6     7    1
     8     6     5    1
     9     4     1    1
    10     4     5    1
    11    12     7    1
    12    12    13    1
    13    21    20    1
    14    21    22    2
    15    20    19    1
    16    25    24    2
    17     1     3    1
    18     1    23    1
    19    22    13    1
    20    22    16    1
    21    13    14    1
    22    19    17    2
    23    24    23    1
    24    24    26    1
    25    24    27    1
    26    14    15    1
    27    16    17    1
    28    16    15    2
    29    28    27    1
    30    28    29    1
    31    17    18    1
    32    29    30    1
    33    29    31    1
    34    30    35    1
    35    41    39   am
    36    31    32    1
    37    31    33    1
    38    39    40    2
    39    39    38    1
    40    37    38    1
    41    37    36    1
    42    35    36    1
    43    35    33    1
    44    38    42    2
    45    36    44    1
    46    33    34    1
    47    42    43    1
    48    44    43    2
