@<TRIPOS>MOLECULE
2ekt_6HE_A_1.pdb
 39 46 0 0 0
SMALL
GASTEIGER

@<TRIPOS>ATOM
      1 FE         20.2800   53.4950   -2.8520 Fe    154  6HE154      0.0000
      2  CHA       20.1290   50.2710   -4.0140 C.2   154  6HE154      0.0000
      3  CHB       18.1310   52.6710   -0.3470 C.2   154  6HE154      0.0000
      4  CHC       20.2870   56.7170   -1.7680 C.2   154  6HE154      0.0000
      5  CHD       22.2050   54.3480   -5.4890 C.2   154  6HE154      0.0000
      6  NA        19.3040   51.8390   -2.3260 N.2   154  6HE154      0.0000
      7  C1A       19.3780   50.6000   -2.8700 C.2   154  6HE154      0.0000
      8  C2A       18.6250   49.6240   -2.0970 C.2   154  6HE154      0.0000
      9  C3A       18.0420   50.3230   -1.0810 C.2   154  6HE154      0.0000
     10  C4A       18.4540   51.6590   -1.1780 C.2   154  6HE154      0.0000
     11  CMA       17.1440   49.7850    0.0340 C.3   154  6HE154      0.0000
     12  CAA       18.5400   48.1250   -2.3820 C.3   154  6HE154      0.0000
     13  CBA       19.3950   47.3140   -1.3730 C.3   154  6HE154      0.0000
     14  CGA       20.8250   47.7480   -1.4180 C.2   154  6HE154      0.0000
     15  O1A       21.2770   48.3580   -0.3620 O.co2 154  6HE154      0.0000
     16  O2A       21.5400   47.5800   -2.4040 O.co2 154  6HE154      0.0000
     17  NB        19.4140   54.5090   -1.3530 N.ar  154  6HE154      0.0000
     18  C1B       18.5900   53.9810   -0.3830 C.ar  154  6HE154      0.0000
     19  C2B       18.2150   55.0420    0.5690 C.ar  154  6HE154      0.0000
     20  C3B       18.8060   56.1580    0.1730 C.ar  154  6HE154      0.0000
     21  C4B       19.5840   55.8250   -1.0770 C.ar  154  6HE154      0.0000
     22  CMB       17.3610   54.7710    1.8050 C.3   154  6HE154      0.0000
     23  CAB       18.7240   57.5020    0.7310 C.2   154  6HE154      0.0000
     24  CBB       17.6440   58.0130    1.2560 C.2   154  6HE154      0.0000
     25  NC        21.1580   55.2110   -3.4740 N.2   154  6HE154      0.0000
     26  C1C       21.0020   56.4590   -2.9530 C.2   154  6HE154      0.0000
     27  C2C       21.6080   57.4610   -3.8020 C.2   154  6HE154      0.0000
     28  C3C       22.1060   56.7470   -4.8950 C.2   154  6HE154      0.0000
     29  C4C       21.8550   55.3550   -4.6620 C.2   154  6HE154      0.0000
     30  CMC       21.6160   58.9370   -3.5490 C.3   154  6HE154      0.0000
     31  CAC       22.7830   57.2730   -6.1190 C.2   154  6HE154      0.0000
     32  CBC       23.0870   58.5690   -6.3770 C.2   154  6HE154      0.0000
     33  ND        21.0750   52.5280   -4.4040 N.ar  154  6HE154      0.0000
     34  C1D       21.8810   53.0220   -5.3870 C.ar  154  6HE154      0.0000
     35  C2D       22.1890   52.0300   -6.3460 C.ar  154  6HE154      0.0000
     36  C3D       21.5330   50.8480   -5.9690 C.ar  154  6HE154      0.0000
     37  C4D       20.8780   51.1550   -4.7420 C.ar  154  6HE154      0.0000
     38  CMD       23.0350   52.2860   -7.5770 C.3   154  6HE154      0.0000
     39  CAD       21.4830   49.5620   -6.6730 C.3   154  6HE154      0.0000
@<TRIPOS>BOND
     1    38    35    1
     2    39    36    1
     3    32    31    2
     4    35    36   ar
     5    35    34   ar
     6    31    28    1
     7    36    37   ar
     8     5    34    2
     9     5    29    1
    10    34    33   ar
    11    28    29    1
    12    28    27    2
    13    37    33   ar
    14    37     2    2
    15    29    25    2
    16    33     1    1
    17     2     7    1
    18    27    30    1
    19    27    26    1
    20    25    26    1
    21    25     1    1
    22    26     4    2
    23     7     6    2
    24     7     8    1
    25     1     6    1
    26     1    17    1
    27    16    14   ar
    28    12     8    1
    29    12    13    1
    30     6    10    1
    31     8     9    2
    32     4    21    1
    33    14    13    1
    34    14    15   ar
    35    17    21   ar
    36    17    18   ar
    37    10     9    1
    38    10     3    2
    39     9    11    1
    40    21    20   ar
    41    18     3    1
    42    18    19   ar
    43    20    19   ar
    44    20    23    1
    45    19    22    1
    46    23    24    2
