@<TRIPOS>MOLECULE
2eku_7HE_A_1.pdb
 39 46 0 0 0
SMALL
GASTEIGER

@<TRIPOS>ATOM
      1 FE         12.3430   -6.8520   12.9660 Fe    154  7HE154      0.0000
      2  CHA       10.9590   -9.9000   12.3910 C.2   154  7HE154      0.0000
      3  CHB       11.1190   -6.8640   16.2230 C.2   154  7HE154      0.0000
      4  CHC       13.4080   -3.6640   13.3730 C.2   154  7HE154      0.0000
      5  CHD       13.2960   -6.7390    9.8000 C.2   154  7HE154      0.0000
      6  NA        11.2680   -8.1630   14.0850 N.2   154  7HE154      0.0000
      7  C1A       10.9450   -9.3960   13.6730 C.2   154  7HE154      0.0000
      8  C2A       10.1890   -9.9260   14.8410 C.2   154  7HE154      0.0000
      9  C3A       10.1430   -9.1410   15.8750 C.2   154  7HE154      0.0000
     10  C4A       10.8840   -8.0220   15.4400 C.2   154  7HE154      0.0000
     11  CMA        9.5870   -9.3570   17.3110 C.3   154  7HE154      0.0000
     12  CAA        9.5500  -11.4180   14.7990 C.3   154  7HE154      0.0000
     13  NB        12.3910   -5.4740   14.4720 N.ar  154  7HE154      0.0000
     14  C1B       11.8980   -5.7020   15.7720 C.ar  154  7HE154      0.0000
     15  C2B       12.1180   -4.6190   16.6100 C.ar  154  7HE154      0.0000
     16  C3B       12.7920   -3.6430   15.8150 C.ar  154  7HE154      0.0000
     17  C4B       12.9020   -4.2570   14.5360 C.ar  154  7HE154      0.0000
     18  CMB       11.7610   -4.4870   18.0820 C.3   154  7HE154      0.0000
     19  CAB       13.2140   -2.2610   16.2030 C.2   154  7HE154      0.0000
     20  CBB       12.5220   -1.4070   16.9560 C.2   154  7HE154      0.0000
     21  NC        13.3540   -5.4900   11.7710 N.2   154  7HE154      0.0000
     22  C1C       13.6350   -4.1830   12.1210 C.2   154  7HE154      0.0000
     23  C2C       14.1040   -3.4570   10.9950 C.2   154  7HE154      0.0000
     24  C3C       14.0740   -4.3350    9.9520 C.2   154  7HE154      0.0000
     25  C4C       13.4900   -5.5520   10.4630 C.2   154  7HE154      0.0000
     26  CMC       14.4760   -1.9890   11.0300 C.3   154  7HE154      0.0000
     27  CAC       14.2580   -4.0700    8.5040 C.2   154  7HE154      0.0000
     28  CBC       14.7460   -3.0130    7.9600 C.2   154  7HE154      0.0000
     29  ND        12.2110   -8.0210   11.4220 N.ar  154  7HE154      0.0000
     30  C1D       12.7810   -7.8970   10.1560 C.ar  154  7HE154      0.0000
     31  C2D       12.3470   -9.0360    9.2450 C.ar  154  7HE154      0.0000
     32  C3D       11.7160   -9.9000   10.0130 C.ar  154  7HE154      0.0000
     33  C4D       11.6150   -9.2470   11.3270 C.ar  154  7HE154      0.0000
     34  CMD       12.7780   -9.1630    7.8170 C.3   154  7HE154      0.0000
     35  CAD       10.9990  -11.1870    9.6400 C.3   154  7HE154      0.0000
     36  CBD        9.6280  -10.8240    9.0610 C.3   154  7HE154      0.0000
     37  CGD        8.9110  -12.0500    8.5600 C.2   154  7HE154      0.0000
     38  O1D        9.0890  -12.4040    7.4050 O.co2 154  7HE154      0.0000
     39  O2D        7.9330  -12.5900    9.3080 O.co2 154  7HE154      0.0000
@<TRIPOS>BOND
     1    38    37   ar
     2    34    31    1
     3    28    27    2
     4    27    24    1
     5    37    36    1
     6    37    39   ar
     7    36    35    1
     8    31    32   ar
     9    31    30   ar
    10    35    32    1
    11     5    30    2
    12     5    25    1
    13    24    25    1
    14    24    23    2
    15    32    33   ar
    16    30    29   ar
    17    25    21    2
    18    23    26    1
    19    23    22    1
    20    33    29   ar
    21    33     2    2
    22    29     1    1
    23    21    22    1
    24    21     1    1
    25    22     4    2
    26     2     7    1
    27     1     6    1
    28     1    13    1
    29     4    17    1
    30     7     6    2
    31     7     8    1
    32     6    10    1
    33    13    17   ar
    34    13    14   ar
    35    17    16   ar
    36    12     8    1
    37     8     9    2
    38    10     9    1
    39    10     3    2
    40    14     3    1
    41    14    15   ar
    42    16    19    1
    43    16    15   ar
    44     9    11    1
    45    19    20    2
    46    15    18    1
