@<TRIPOS>MOLECULE
2el0_SAH_A_1.pdb
 26 28 0 0 0
SMALL
GASTEIGER

@<TRIPOS>ATOM
      1  N         33.8400   93.6080   66.5800 N.3   301  SAH301     -0.1208
      2  CA        32.4140   93.1140   66.3360 C.3   301  SAH301      0.1952
      3  CB        31.7420   92.3240   67.4300 C.3   301  SAH301      0.0422
      4  CG        32.3990   91.0490   67.9540 C.3   301  SAH301      0.0597
      5  SD        31.2540   90.2850   69.1880 S.3   301  SAH301     -0.1375
      6  C         31.5580   94.4000   65.9510 C.2   301  SAH301      0.3819
      7  O         32.1250   95.5150   65.9230 O.co2 301  SAH301     -0.2441
      8  OXT       30.3040   94.1990   65.6800 O.co2 301  SAH301     -0.2441
      9  C5'       30.3270   89.2150   68.1560 C.3   301  SAH301      0.0899
     10  C4'       28.8340   89.1480   68.6810 C.3   301  SAH301      0.1630
     11  O4'       28.2270   90.4360   68.4060 O.3   301  SAH301     -0.3153
     12  C3'       27.9700   88.1200   68.0300 C.3   301  SAH301      0.2168
     13  O3'       28.0580   86.8760   68.7140 O.3   301  SAH301     -0.2175
     14  C2'       26.5730   88.7900   68.0840 C.3   301  SAH301      0.2569
     15  O2'       25.9090   88.5410   69.3210 O.3   301  SAH301     -0.2130
     16  C1'       26.8530   90.2780   67.8250 C.3   301  SAH301      0.3185
     17  N9        26.8310   90.6330   66.5220 N.pl3 301  SAH301     -0.1439
     18  C8        27.7980   90.8980   65.5640 C.3   301  SAH301      0.3377
     19  N7        27.3410   91.2260   64.3900 N.2   301  SAH301     -0.2095
     20  C5        25.9280   91.1870   64.5400 C.2   301  SAH301      0.2526
     21  C6        24.8590   91.4510   63.6060 C.2   301  SAH301      0.4393
     22  N6        25.0530   91.8050   62.3290 N.pl3 301  SAH301      0.2180
     23  N1        23.5880   91.3100   64.1240 N.2   301  SAH301      0.0021
     24  C2        23.3400   90.9490   65.4150 C.3   301  SAH301      0.5254
     25  N3        24.3320   90.6880   66.3310 N.2   301  SAH301     -0.0055
     26  C4        25.5970   90.8280   65.8260 C.2   301  SAH301      0.3518
@<TRIPOS>BOND
     1    22    21    1
     2    21    23    2
     3    21    20    1
     4    23    24    1
     5    19    20    2
     6    19    18    1
     7    20    26    1
     8    24    25    1
     9    18    17    1
    10     8     6   ar
    11    26    25    2
    12    26    17    1
    13     7     6   ar
    14     6     2    1
    15     2     1    1
    16     2     3    1
    17    17    16    1
    18     3     4    1
    19    16    14    1
    20    16    11    1
    21     4     5    1
    22    12    14    1
    23    12    10    1
    24    12    13    1
    25    14    15    1
    26     9    10    1
    27     9     5    1
    28    11    10    1
