@<TRIPOS>MOLECULE
2el1_SAH_A_1.pdb
 26 28 0 0 0
SMALL
GASTEIGER

@<TRIPOS>ATOM
      1  N         33.6780   92.7810   67.3110 N.3   1301  SAH1301    -0.1208
      2  CA        32.2320   92.3500   67.1770 C.3   1301  SAH1301     0.1952
      3  CB        31.6000   91.6980   68.3760 C.3   1301  SAH1301     0.0422
      4  CG        32.2390   90.4400   68.9440 C.3   1301  SAH1301     0.0597
      5  SD        31.0550   89.7120   70.1460 S.3   1301  SAH1301    -0.1375
      6  C         31.4240   93.6410   66.7530 C.2   1301  SAH1301     0.3819
      7  O         32.0480   94.7180   66.6310 O.co2 1301  SAH1301    -0.2441
      8  OXT       30.1450   93.4890   66.5580 O.co2 1301  SAH1301    -0.2441
      9  C5'       30.1410   88.6800   69.0810 C.3   1301  SAH1301     0.0899
     10  C4'       28.6680   88.5840   69.6190 C.3   1301  SAH1301     0.1630
     11  O4'       28.0470   89.8700   69.3890 O.3   1301  SAH1301    -0.3153
     12  C3'       27.8120   87.5650   68.9540 C.3   1301  SAH1301     0.2168
     13  O3'       27.9270   86.3250   69.6190 O.3   1301  SAH1301    -0.2175
     14  C2'       26.4180   88.2110   69.0540 C.3   1301  SAH1301     0.2569
     15  O2'       25.8140   87.9400   70.3180 O.3   1301  SAH1301    -0.2130
     16  C1'       26.6840   89.7050   68.7950 C.3   1301  SAH1301     0.3185
     17  N9        26.6760   90.0580   67.4930 N.pl3 1301  SAH1301    -0.1439
     18  C8        27.6480   90.3510   66.5620 C.3   1301  SAH1301     0.3377
     19  N7        27.2100   90.6580   65.3860 N.2   1301  SAH1301    -0.2095
     20  C5        25.7990   90.5750   65.5050 C.2   1301  SAH1301     0.2526
     21  C6        24.7490   90.8050   64.5490 C.2   1301  SAH1301     0.4393
     22  N6        24.9630   91.1620   63.2790 N.pl3 1301  SAH1301     0.2180
     23  N1        23.4800   90.6270   65.0360 N.2   1301  SAH1301     0.0021
     24  C2        23.2120   90.2590   66.3200 C.3   1301  SAH1301     0.5254
     25  N3        24.1900   90.0310   67.2580 N.2   1301  SAH1301    -0.0055
     26  C4        25.4550   90.2100   66.7780 C.2   1301  SAH1301     0.3518
@<TRIPOS>BOND
     1    22    21    1
     2    21    23    2
     3    21    20    1
     4    23    24    1
     5    19    20    2
     6    19    18    1
     7    20    26    1
     8    24    25    1
     9     8     6   ar
    10    18    17    1
    11     7     6   ar
    12     6     2    1
    13    26    25    2
    14    26    17    1
    15     2     1    1
    16     2     3    1
    17    17    16    1
    18     3     4    1
    19    16    14    1
    20    16    11    1
    21     4     5    1
    22    12    14    1
    23    12    13    1
    24    12    10    1
    25    14    15    1
    26     9    10    1
    27     9     5    1
    28    11    10    1
