@<TRIPOS>MOLECULE
2el2_SAH_A_1.pdb
 26 28 0 0 0
SMALL
GASTEIGER

@<TRIPOS>ATOM
      1  N         33.8620   93.5980   67.5420 N.3   301  SAH301     -0.1208
      2  CA        32.4030   93.1900   67.4780 C.3   301  SAH301      0.1952
      3  CB        31.7970   92.5650   68.7010 C.3   301  SAH301      0.0422
      4  CG        32.4330   91.3050   69.2770 C.3   301  SAH301      0.0597
      5  SD        31.2330   90.5680   70.4620 S.3   301  SAH301     -0.1375
      6  C         31.6060   94.4850   67.0430 C.2   301  SAH301      0.3819
      7  O         32.2410   95.5410   66.8520 O.co2 301  SAH301     -0.2441
      8  OXT       30.3220   94.3560   66.9090 O.co2 301  SAH301     -0.2441
      9  C5'       30.3180   89.5360   69.3960 C.3   301  SAH301      0.0899
     10  C4'       28.8410   89.4540   69.9410 C.3   301  SAH301      0.1630
     11  O4'       28.2250   90.7390   69.7150 O.3   301  SAH301     -0.3153
     12  C3'       27.9770   88.4480   69.2850 C.3   301  SAH301      0.2168
     13  O3'       28.1140   87.2060   69.9420 O.3   301  SAH301     -0.2175
     14  C2'       26.5840   89.0990   69.4150 C.3   301  SAH301      0.2569
     15  O2'       25.9960   88.8440   70.6950 O.3   301  SAH301     -0.2130
     16  C1'       26.8510   90.5870   69.1380 C.3   301  SAH301      0.3185
     17  N9        26.8340   90.9340   67.8320 N.pl3 301  SAH301     -0.1439
     18  C8        27.8040   91.2140   66.8850 C.3   301  SAH301      0.3377
     19  N7        27.3530   91.5190   65.7100 N.2   301  SAH301     -0.2095
     20  C5        25.9440   91.4510   65.8420 C.2   301  SAH301      0.2526
     21  C6        24.8790   91.6870   64.8930 C.2   301  SAH301      0.4393
     22  N6        25.0730   92.0370   63.6120 N.pl3 301  SAH301      0.2180
     23  N1        23.6140   91.5240   65.3980 N.2   301  SAH301      0.0021
     24  C2        23.3610   91.1670   66.6820 C.3   301  SAH301      0.5254
     25  N3        24.3470   90.9340   67.6110 N.2   301  SAH301     -0.0055
     26  C4        25.6090   91.0960   67.1220 C.2   301  SAH301      0.3518
@<TRIPOS>BOND
     1    22    21    1
     2    21    23    2
     3    21    20    1
     4    23    24    1
     5    19    20    2
     6    19    18    1
     7    20    26    1
     8    24    25    1
     9     7     6   ar
    10    18    17    1
    11     8     6   ar
    12     6     2    1
    13    26    25    2
    14    26    17    1
    15     2     1    1
    16     2     3    1
    17    17    16    1
    18     3     4    1
    19    16    14    1
    20    16    11    1
    21     4     5    1
    22    12    14    1
    23    12    10    1
    24    12    13    1
    25     9    10    1
    26     9     5    1
    27    14    15    1
    28    11    10    1
