@<TRIPOS>MOLECULE
2el3_SAH_A_1.pdb
 26 28 0 0 0
SMALL
GASTEIGER

@<TRIPOS>ATOM
      1  N         34.1300   93.9780   67.8460 N.3   301  SAH301     -0.1208
      2  CA        32.6980   93.4900   67.6490 C.3   301  SAH301      0.1952
      3  CB        32.0280   92.7910   68.8020 C.3   301  SAH301      0.0422
      4  CG        32.6840   91.5500   69.3880 C.3   301  SAH301      0.0597
      5  SD        31.5640   90.8500   70.6730 S.3   301  SAH301     -0.1375
      6  C         31.8640   94.7580   67.1910 C.2   301  SAH301      0.3819
      7  O         32.4470   95.8530   67.0880 O.co2 301  SAH301     -0.2441
      8  OXT       30.6120   94.5670   66.9480 O.co2 301  SAH301     -0.2441
      9  C5'       30.6380   89.7230   69.7080 C.3   301  SAH301      0.0899
     10  C4'       29.1520   89.7050   70.2390 C.3   301  SAH301      0.1630
     11  O4'       28.5680   90.9830   69.9050 O.3   301  SAH301     -0.3153
     12  C3'       28.2750   88.6680   69.6440 C.3   301  SAH301      0.2168
     13  O3'       28.3690   87.4630   70.3890 O.3   301  SAH301     -0.2175
     14  C2'       26.8870   89.3530   69.6980 C.3   301  SAH301      0.2569
     15  O2'       26.2630   89.1680   70.9680 O.3   301  SAH301     -0.2130
     16  C1'       27.1800   90.8230   69.3630 C.3   301  SAH301      0.3185
     17  N9        27.1480   91.1390   68.0490 N.pl3 301  SAH301     -0.1439
     18  C8        28.1130   91.3770   67.0910 C.3   301  SAH301      0.3377
     19  N7        27.6610   91.6690   65.9110 N.2   301  SAH301     -0.2095
     20  C5        26.2500   91.6370   66.0530 C.2   301  SAH301      0.2526
     21  C6        25.1870   91.8800   65.1040 C.2   301  SAH301      0.4393
     22  N6        25.3890   92.2060   63.8170 N.pl3 301  SAH301      0.2180
     23  N1        23.9210   91.7520   65.6130 N.2   301  SAH301      0.0021
     24  C2        23.6640   91.4240   66.9070 C.3   301  SAH301      0.5254
     25  N3        24.6500   91.1900   67.8370 N.2   301  SAH301     -0.0055
     26  C4        25.9140   91.3130   67.3410 C.2   301  SAH301      0.3518
@<TRIPOS>BOND
     1    22    21    1
     2    21    23    2
     3    21    20    1
     4    23    24    1
     5    19    20    2
     6    19    18    1
     7    20    26    1
     8    24    25    1
     9     8     6   ar
    10     7     6   ar
    11    18    17    1
    12     6     2    1
    13    26    25    2
    14    26    17    1
    15     2     1    1
    16     2     3    1
    17    17    16    1
    18     3     4    1
    19    16    14    1
    20    16    11    1
    21     4     5    1
    22    12    14    1
    23    12    10    1
    24    12    13    1
    25    14    15    1
    26     9    10    1
    27     9     5    1
    28    11    10    1
