@<TRIPOS>MOLECULE
2el9_HSS_A_1.pdb
 33 36 0 0 0
SMALL
GASTEIGER

@<TRIPOS>ATOM
      1  C4        12.2340   66.4160  155.6270 C.2   510  HSS510      0.3518
      2  C5        11.4690   66.2240  154.4850 C.2   510  HSS510      0.2526
      3  C6        11.9690   65.3930  153.4930 C.2   510  HSS510      0.4393
      4  C8        10.4220   67.5730  155.7940 C.3   510  HSS510      0.3377
      5  N1        13.1610   64.8080  153.6750 N.2   510  HSS510      0.0021
      6  N3        13.4150   65.7940  155.7460 N.2   510  HSS510     -0.0055
      7  N11        5.4620   72.7520  164.2470 N.2   510  HSS510     -0.2470
      8  CE1        4.7050   72.5890  165.3290 C.3   510  HSS510      0.2505
      9  N12        4.8070   71.3200  165.7140 N.2   510  HSS510     -0.2415
     10  CD2        5.6280   70.7000  164.8720 C.2   510  HSS510      0.1098
     11  CG         6.0290   71.5830  163.9620 C.2   510  HSS510      0.0766
     12  CB         6.9010   71.2750  162.7440 C.3   510  HSS510      0.0755
     13  CA         5.9940   70.8920  161.5720 C.3   510  HSS510      0.1769
     14  N          5.1590   69.7430  161.9520 N.3   510  HSS510     -0.1226
     15  C          6.8490   70.5080  160.3650 C.2   510  HSS510      0.2802
     16  O          6.9010   69.3210  160.0470 O.2   510  HSS510     -0.2701
     17  N1S        7.4900   71.4750  159.7130 N.am  510  HSS510     -0.0576
     18  S          8.4120   70.8810  158.5060 S.3   510  HSS510      0.0852
     19  O2S        7.9940   71.5220  157.2170 O.3   510  HSS510     -0.0508
     20  O3S        8.2430   69.3940  158.3970 O.3   510  HSS510     -0.0508
     21  O5'        9.7960   71.1530  158.7450 O.3   510  HSS510     -0.2230
     22  C5'       10.5260   70.4420  159.7500 C.3   510  HSS510      0.2064
     23  C4'       11.5410   69.4740  159.1380 C.3   510  HSS510      0.1842
     24  O4'       10.9420   68.3830  158.4280 O.3   510  HSS510     -0.3135
     25  C3'       12.3480   70.1420  158.0260 C.3   510  HSS510      0.2185
     26  O3'       13.3240   71.0210  158.5900 O.3   510  HSS510     -0.2174
     27  C2'       13.0460   68.9110  157.4460 C.3   510  HSS510      0.2570
     28  O2'       14.2570   68.6530  158.1630 O.3   510  HSS510     -0.2130
     29  C1'       12.0340   67.7890  157.7040 C.3   510  HSS510      0.3186
     30  N9        11.5610   67.2560  156.4080 N.pl3 510  HSS510     -0.1439
     31  N7        10.3600   66.9460  154.6210 N.2   510  HSS510     -0.2095
     32  C2        13.8580   65.0080  154.7810 C.3   510  HSS510      0.5254
     33  N6        11.2800   65.1900  152.3740 N.pl3 510  HSS510      0.2180
@<TRIPOS>BOND
     1    33     3    1
     2     3     5    2
     3     3     2    1
     4     5    32    1
     5     2    31    2
     6     2     1    1
     7    31     4    1
     8    32     6    1
     9     1     6    2
    10     1    30    1
    11     4    30    1
    12    30    29    1
    13    19    18    1
    14    27    29    1
    15    27    25    1
    16    27    28    1
    17    29    24    1
    18    25    26    1
    19    25    23    1
    20    20    18    1
    21    24    23    1
    22    18    21    1
    23    18    17    1
    24    21    22    1
    25    23    22    1
    26    17    15   am
    27    16    15    2
    28    15    13    1
    29    13    14    1
    30    13    12    1
    31    12    11    1
    32    11     7    2
    33    11    10    1
    34     7     8    1
    35    10     9    2
    36     8     9    1
