@<TRIPOS>MOLECULE
2eld_SAH_A_1.pdb
 26 28 0 0 0
SMALL
GASTEIGER

@<TRIPOS>ATOM
      1  N         33.9270   93.1430   67.9550 N.3   301  SAH301     -0.1208
      2  CA        32.4570   92.7590   67.8960 C.3   301  SAH301      0.1952
      3  CB        31.8520   92.1220   69.1190 C.3   301  SAH301      0.0422
      4  CG        32.4660   90.8400   69.6700 C.3   301  SAH301      0.0597
      5  SD        31.2700   90.1400   70.8760 S.3   301  SAH301     -0.1375
      6  C         31.6670   94.0780   67.5080 C.2   301  SAH301      0.3819
      7  O         32.3120   95.1320   67.3420 O.co2 301  SAH301     -0.2441
      8  OXT       30.3760   93.9660   67.3850 O.co2 301  SAH301     -0.2441
      9  C5'       30.4120   89.0250   69.8470 C.3   301  SAH301      0.0899
     10  C4'       28.9250   88.9260   70.3540 C.3   301  SAH301      0.1630
     11  O4'       28.3100   90.2050   70.1000 O.3   301  SAH301     -0.3153
     12  C3'       28.0810   87.9010   69.6830 C.3   301  SAH301      0.2168
     13  O3'       28.2000   86.6510   70.3540 O.3   301  SAH301     -0.2175
     14  C2'       26.6810   88.5480   69.7700 C.3   301  SAH301      0.2569
     15  O2'       26.0620   88.2890   71.0380 O.3   301  SAH301     -0.2130
     16  C1'       26.9470   90.0410   69.5000 C.3   301  SAH301      0.3185
     17  N9        26.9380   90.3980   68.1910 N.pl3 301  SAH301     -0.1439
     18  C8        27.9160   90.6680   67.2410 C.3   301  SAH301      0.3377
     19  N7        27.4690   90.9900   66.0650 N.2   301  SAH301     -0.2095
     20  C5        26.0520   90.9440   66.1990 C.2   301  SAH301      0.2526
     21  C6        24.9890   91.1990   65.2510 C.2   301  SAH301      0.4393
     22  N6        25.1940   91.5490   63.9720 N.pl3 301  SAH301      0.2180
     23  N1        23.7120   91.0540   65.7560 N.2   301  SAH301      0.0021
     24  C2        23.4510   90.6980   67.0430 C.3   301  SAH301      0.5254
     25  N3        24.4350   90.4450   67.9710 N.2   301  SAH301     -0.0055
     26  C4        25.7080   90.5870   67.4800 C.2   301  SAH301      0.3518
@<TRIPOS>BOND
     1    22    21    1
     2    21    23    2
     3    21    20    1
     4    23    24    1
     5    19    20    2
     6    19    18    1
     7    20    26    1
     8    24    25    1
     9    18    17    1
    10     7     6   ar
    11     8     6   ar
    12    26    25    2
    13    26    17    1
    14     6     2    1
    15     2     1    1
    16     2     3    1
    17    17    16    1
    18     3     4    1
    19    16    14    1
    20    16    11    1
    21     4     5    1
    22    12    14    1
    23    12    13    1
    24    12    10    1
    25    14    15    1
    26     9    10    1
    27     9     5    1
    28    11    10    1
