@<TRIPOS>MOLECULE
2ele_SAH_A_1.pdb
 26 28 0 0 0
SMALL
GASTEIGER

@<TRIPOS>ATOM
      1  N         33.7770   92.6780   67.6000 N.3   301  SAH301     -0.1208
      2  CA        32.3160   92.2280   67.5200 C.3   301  SAH301      0.1952
      3  CB        31.7030   91.5910   68.7330 C.3   301  SAH301      0.0422
      4  CG        32.3580   90.3520   69.3220 C.3   301  SAH301      0.0597
      5  SD        31.1870   89.6430   70.5520 S.3   301  SAH301     -0.1375
      6  C         31.4820   93.4960   67.0830 C.2   301  SAH301      0.3819
      7  O         32.0810   94.5770   66.8970 O.co2 301  SAH301     -0.2441
      8  OXT       30.2020   93.3190   66.9430 O.co2 301  SAH301     -0.2441
      9  C5'       30.2740   88.5510   69.5320 C.3   301  SAH301      0.0899
     10  C4'       28.7930   88.4920   70.0700 C.3   301  SAH301      0.1630
     11  O4'       28.2070   89.7830   69.8110 O.3   301  SAH301     -0.3153
     12  C3'       27.9030   87.4850   69.4290 C.3   301  SAH301      0.2168
     13  O3'       28.0050   86.2350   70.1010 O.3   301  SAH301     -0.2175
     14  C2'       26.5290   88.1730   69.5570 C.3   301  SAH301      0.2569
     15  O2'       25.9550   87.9670   70.8560 O.3   301  SAH301     -0.2130
     16  C1'       26.8290   89.6460   69.2430 C.3   301  SAH301      0.3185
     17  N9        26.8120   89.9720   67.9310 N.pl3 301  SAH301     -0.1439
     18  C8        27.7840   90.2430   66.9810 C.3   301  SAH301      0.3377
     19  N7        27.3350   90.5290   65.7990 N.2   301  SAH301     -0.2095
     20  C5        25.9220   90.4570   65.9300 C.2   301  SAH301      0.2526
     21  C6        24.8660   90.6730   64.9740 C.2   301  SAH301      0.4393
     22  N6        25.0770   91.0040   63.6940 N.pl3 301  SAH301      0.2180
     23  N1        23.5920   90.5130   65.4720 N.2   301  SAH301      0.0021
     24  C2        23.3320   90.1730   66.7670 C.3   301  SAH301      0.5254
     25  N3        24.3140   89.9570   67.7060 N.2   301  SAH301     -0.0055
     26  C4        25.5810   90.1170   67.2160 C.2   301  SAH301      0.3518
@<TRIPOS>BOND
     1    22    21    1
     2    21    23    2
     3    21    20    1
     4    23    24    1
     5    19    20    2
     6    19    18    1
     7    20    26    1
     8    24    25    1
     9     7     6   ar
    10     8     6   ar
    11    18    17    1
    12     6     2    1
    13    26    25    2
    14    26    17    1
    15     2     1    1
    16     2     3    1
    17    17    16    1
    18     3     4    1
    19    16    14    1
    20    16    11    1
    21     4     5    1
    22    12    14    1
    23    12    10    1
    24    12    13    1
    25     9    10    1
    26     9     5    1
    27    14    15    1
    28    11    10    1
