@<TRIPOS>MOLECULE
2emr_SAH_A_1.pdb
 26 28 0 0 0
SMALL
GASTEIGER

@<TRIPOS>ATOM
      1  N         33.9460   93.6230   67.4490 N.3   301  SAH301     -0.1208
      2  CA        32.4960   93.1630   67.3610 C.3   301  SAH301      0.1952
      3  CB        31.8840   92.5020   68.5690 C.3   301  SAH301      0.0422
      4  CG        32.5420   91.2540   69.1480 C.3   301  SAH301      0.0597
      5  SD        31.3640   90.5160   70.3630 S.3   301  SAH301     -0.1375
      6  C         31.6590   94.4390   66.9300 C.2   301  SAH301      0.3819
      7  O         32.2580   95.5220   66.7550 O.co2 301  SAH301     -0.2441
      8  OXT       30.3840   94.2660   66.7820 O.co2 301  SAH301     -0.2441
      9  C5'       30.4610   89.4140   69.3550 C.3   301  SAH301      0.0899
     10  C4'       28.9820   89.3420   69.9010 C.3   301  SAH301      0.1630
     11  O4'       28.3890   90.6390   69.6750 O.3   301  SAH301     -0.3153
     12  C3'       28.0920   88.3510   69.2450 C.3   301  SAH301      0.2168
     13  O3'       28.1950   87.0870   69.8880 O.3   301  SAH301     -0.2175
     14  C2'       26.7200   89.0360   69.3940 C.3   301  SAH301      0.2569
     15  O2'       26.1710   88.8120   70.7010 O.3   301  SAH301     -0.2130
     16  C1'       27.0170   90.5120   69.0970 C.3   301  SAH301      0.3185
     17  N9        27.0040   90.8630   67.7850 N.pl3 301  SAH301     -0.1439
     18  C8        27.9780   91.1280   66.8340 C.3   301  SAH301      0.3377
     19  N7        27.5340   91.4490   65.6560 N.2   301  SAH301     -0.2095
     20  C5        26.1220   91.4090   65.7900 C.2   301  SAH301      0.2526
     21  C6        25.0630   91.6690   64.8460 C.2   301  SAH301      0.4393
     22  N6        25.2650   92.0210   63.5660 N.pl3 301  SAH301      0.2180
     23  N1        23.7900   91.5290   65.3550 N.2   301  SAH301      0.0021
     24  C2        23.5320   91.1730   66.6410 C.3   301  SAH301      0.5254
     25  N3        24.5170   90.9170   67.5660 N.2   301  SAH301     -0.0055
     26  C4        25.7800   91.0540   67.0760 C.2   301  SAH301      0.3518
@<TRIPOS>BOND
     1    22    21    1
     2    21    23    2
     3    21    20    1
     4    23    24    1
     5    19    20    2
     6    19    18    1
     7    20    26    1
     8    24    25    1
     9     7     6   ar
    10     8     6   ar
    11    18    17    1
    12     6     2    1
    13    26    25    2
    14    26    17    1
    15     2     1    1
    16     2     3    1
    17    17    16    1
    18     3     4    1
    19    16    14    1
    20    16    11    1
    21     4     5    1
    22    12    14    1
    23    12    13    1
    24    12    10    1
    25     9    10    1
    26     9     5    1
    27    14    15    1
    28    11    10    1
