@<TRIPOS>MOLECULE
2emu_SAH_A_1.pdb
 26 28 0 0 0
SMALL
GASTEIGER

@<TRIPOS>ATOM
      1  N         33.7430   92.6100   67.4240 N.3   1301  SAH1301    -0.1208
      2  CA        32.2930   92.1680   67.2550 C.3   1301  SAH1301     0.1952
      3  CB        31.6410   91.4820   68.4190 C.3   1301  SAH1301     0.0422
      4  CG        32.2680   90.2220   68.9860 C.3   1301  SAH1301     0.0597
      5  SD        31.0620   89.5200   70.1780 S.3   1301  SAH1301    -0.1375
      6  C         31.4660   93.4590   66.8430 C.2   1301  SAH1301     0.3819
      7  O         32.0640   94.5490   66.7430 O.co2 1301  SAH1301    -0.2441
      8  OXT       30.1910   93.2860   66.6340 O.co2 1301  SAH1301    -0.2441
      9  C5'       30.1460   88.4830   69.1190 C.3   1301  SAH1301     0.0899
     10  C4'       28.6680   88.3820   69.6550 C.3   1301  SAH1301     0.1630
     11  O4'       28.0450   89.6660   69.4130 O.3   1301  SAH1301    -0.3153
     12  C3'       27.8190   87.3560   68.9890 C.3   1301  SAH1301     0.2168
     13  O3'       27.9340   86.1050   69.6570 O.3   1301  SAH1301    -0.2175
     14  C2'       26.4170   88.0090   69.0640 C.3   1301  SAH1301     0.2569
     15  O2'       25.7670   87.7510   70.3120 O.3   1301  SAH1301    -0.2130
     16  C1'       26.6890   89.5000   68.7960 C.3   1301  SAH1301     0.3185
     17  N9        26.6840   89.8360   67.4840 N.pl3 1301  SAH1301    -0.1439
     18  C8        27.6580   90.0850   66.5270 C.3   1301  SAH1301     0.3377
     19  N7        27.2070   90.3870   65.3440 N.2   1301  SAH1301    -0.2095
     20  C5        25.7870   90.3500   65.4860 C.2   1301  SAH1301     0.2526
     21  C6        24.7180   90.5900   64.5440 C.2   1301  SAH1301     0.4393
     22  N6        24.9060   90.9160   63.2560 N.pl3 1301  SAH1301     0.2180
     23  N1        23.4470   90.4580   65.0640 N.2   1301  SAH1301     0.0021
     24  C2        23.1940   90.1250   66.3570 C.3   1301  SAH1301     0.5254
     25  N3        24.1830   89.8870   67.2810 N.2   1301  SAH1301    -0.0055
     26  C4        25.4520   90.0170   66.7770 C.2   1301  SAH1301     0.3518
@<TRIPOS>BOND
     1    22    21    1
     2    21    23    2
     3    21    20    1
     4    23    24    1
     5    19    20    2
     6    19    18    1
     7    20    26    1
     8    24    25    1
     9    18    17    1
    10     8     6   ar
    11     7     6   ar
    12    26    25    2
    13    26    17    1
    14     6     2    1
    15     2     1    1
    16     2     3    1
    17    17    16    1
    18     3     4    1
    19    16    14    1
    20    16    11    1
    21     4     5    1
    22    12    14    1
    23    12    10    1
    24    12    13    1
    25    14    15    1
    26     9    10    1
    27     9     5    1
    28    11    10    1
