@<TRIPOS>MOLECULE
2en5_SAH_A_1.pdb
 26 28 0 0 0
SMALL
GASTEIGER

@<TRIPOS>ATOM
      1  N         33.6310   92.5760   66.4430 N.3   1301  SAH1301    -0.1208
      2  CA        32.1750   92.1510   66.3080 C.3   1301  SAH1301     0.1952
      3  CB        31.5410   91.5150   67.5090 C.3   1301  SAH1301     0.0422
      4  CG        32.1800   90.2630   68.0930 C.3   1301  SAH1301     0.0597
      5  SD        31.0140   89.5670   69.3310 S.3   1301  SAH1301    -0.1375
      6  C         31.3680   93.4440   65.8580 C.2   1301  SAH1301     0.3819
      7  O         31.9880   94.5190   65.7100 O.co2 1301  SAH1301    -0.2441
      8  OXT       30.0940   93.2950   65.6680 O.co2 1301  SAH1301    -0.2441
      9  C5'       30.0610   88.5270   68.2920 C.3   1301  SAH1301     0.0899
     10  C4'       28.5920   88.4250   68.8550 C.3   1301  SAH1301     0.1630
     11  O4'       27.9530   89.7050   68.6140 O.3   1301  SAH1301    -0.3153
     12  C3'       27.7330   87.3940   68.2070 C.3   1301  SAH1301     0.2168
     13  O3'       27.8780   86.1350   68.8520 O.3   1301  SAH1301    -0.2175
     14  C2'       26.3360   88.0400   68.3310 C.3   1301  SAH1301     0.2569
     15  O2'       25.7520   87.8120   69.6240 O.3   1301  SAH1301    -0.2130
     16  C1'       26.5960   89.5220   68.0200 C.3   1301  SAH1301     0.3185
     17  N9        26.5960   89.8490   66.7020 N.pl3 1301  SAH1301    -0.1439
     18  C8        27.5810   90.0800   65.7540 C.3   1301  SAH1301     0.3377
     19  N7        27.1490   90.3860   64.5690 N.2   1301  SAH1301    -0.2095
     20  C5        25.7360   90.3700   64.6960 C.2   1301  SAH1301     0.2526
     21  C6        24.6880   90.6290   63.7390 C.2   1301  SAH1301     0.4393
     22  N6        24.9070   90.9530   62.4570 N.pl3 1301  SAH1301     0.2180
     23  N1        23.4120   90.5170   64.2380 N.2   1301  SAH1301     0.0021
     24  C2        23.1370   90.1870   65.5340 C.3   1301  SAH1301     0.5254
     25  N3        24.1090   89.9330   66.4740 N.2   1301  SAH1301    -0.0055
     26  C4        25.3790   90.0430   65.9870 C.2   1301  SAH1301     0.3518
@<TRIPOS>BOND
     1    22    21    1
     2    21    23    2
     3    21    20    1
     4    23    24    1
     5    19    20    2
     6    19    18    1
     7    20    26    1
     8    24    25    1
     9     8     6   ar
    10     7     6   ar
    11    18    17    1
    12     6     2    1
    13    26    25    2
    14    26    17    1
    15     2     1    1
    16     2     3    1
    17    17    16    1
    18     3     4    1
    19    16    14    1
    20    16    11    1
    21     4     5    1
    22    12    14    1
    23    12    13    1
    24    12    10    1
    25     9    10    1
    26     9     5    1
    27    14    15    1
    28    11    10    1
