@<TRIPOS>MOLECULE
2enb_THP_A_1.pdb
 25 26 0 0 0
SMALL
GASTEIGER

@<TRIPOS>ATOM
      1  P2         6.2820   13.9720   21.0700 P.3   142  THP142      0.5327
      2  O4P        5.0140   13.8940   20.3060 O.2   142  THP142     -0.2224
      3  O5P        7.3810   14.8170   20.5290 O.3   142  THP142     -0.1145
      4  O6P        6.9100   12.4920   21.1900 O.3   142  THP142     -0.1145
      5  P1         4.9290   11.7200   27.2660 P.3   142  THP142      0.5326
      6  O1P        3.7180   10.8790   27.1110 O.3   142  THP142     -0.1145
      7  O2P        6.2090   11.4780   26.5660 O.2   142  THP142     -0.2224
      8  O3P        5.2190   11.8030   28.8480 O.3   142  THP142     -0.1145
      9  O5'        5.9720   14.4030   22.5790 O.3   142  THP142     -0.2675
     10  C5'        4.8940   13.8790   23.3580 C.3   142  THP142      0.1857
     11  C4'        5.1680   14.1500   24.8180 C.3   142  THP142      0.1748
     12  O4'        5.3890   15.5480   25.0250 O.3   142  THP142     -0.3340
     13  C3'        4.0280   13.7770   25.7700 C.3   142  THP142      0.1600
     14  O3'        4.5280   13.2910   27.0540 O.3   142  THP142     -0.2700
     15  C2'        3.2350   15.1030   25.8700 C.3   142  THP142      0.0847
     16  C1'        4.4340   16.0850   25.9540 C.3   142  THP142      0.2089
     17  N1         4.0090   17.4330   25.4860 N.am  142  THP142     -0.1794
     18  C2         3.5740   18.3290   26.4140 C.1   142  THP142      0.2844
     19  O2         3.7440   18.1070   27.6020 O.2   142  THP142     -0.1918
     20  N3         2.9670   19.4750   25.9860 N.2   142  THP142     -0.2455
     21  C4         2.7660   19.7570   24.6560 C.1   142  THP142      0.2134
     22  O4         2.1920   20.7950   24.3480 O.2   142  THP142     -0.2088
     23  C5         3.2180   18.8270   23.7100 C.2   142  THP142      0.0891
     24  C5M        3.0510   19.1080   22.2390 C.3   142  THP142      0.0462
     25  C6         3.8190   17.6570   24.1500 C.2   142  THP142      0.0877
@<TRIPOS>BOND
     1     2     1    2
     2     3     1    1
     3     1     4    1
     4     1     9    1
     5    24    23    1
     6     9    10    1
     7    10    11    1
     8    23    25    2
     9    23    21    1
    10    25    17    1
    11    22    21    2
    12    21    20    2
    13    11    12    1
    14    11    13    1
    15    12    16    1
    16    17    16    1
    17    17    18   am
    18    13    15    1
    19    13    14    1
    20    15    16    1
    21    20    18    2
    22    18    19    2
    23     7     5    2
    24    14     5    1
    25     6     5    1
    26     5     8    1
