@<TRIPOS>MOLECULE
2eni_SAH_A_1.pdb
 26 28 0 0 0
SMALL
GASTEIGER

@<TRIPOS>ATOM
      1  N         34.0770   93.5390   67.6480 N.3   301  SAH301     -0.1208
      2  CA        32.6280   93.0760   67.5780 C.3   301  SAH301      0.1952
      3  CB        32.0330   92.4320   68.7980 C.3   301  SAH301      0.0422
      4  CG        32.6880   91.1990   69.4080 C.3   301  SAH301      0.0597
      5  SD        31.4560   90.4400   70.5550 S.3   301  SAH301     -0.1375
      6  C         31.7670   94.3390   67.1430 C.2   301  SAH301      0.3819
      7  O         32.3420   95.4310   66.9500 O.co2 301  SAH301     -0.2441
      8  OXT       30.4900   94.1410   67.0120 O.co2 301  SAH301     -0.2441
      9  C5'       30.5550   89.4260   69.4530 C.3   301  SAH301      0.0899
     10  C4'       29.0530   89.3720   69.9430 C.3   301  SAH301      0.1630
     11  O4'       28.4750   90.6780   69.6960 O.3   301  SAH301     -0.3153
     12  C3'       28.1700   88.3900   69.2520 C.3   301  SAH301      0.2168
     13  O3'       28.2790   87.1020   69.8460 O.3   301  SAH301     -0.2175
     14  C2'       26.7930   89.0740   69.4150 C.3   301  SAH301      0.2569
     15  O2'       26.2260   88.8410   70.7150 O.3   301  SAH301     -0.2130
     16  C1'       27.0970   90.5510   69.1200 C.3   301  SAH301      0.3185
     17  N9        27.0770   90.8790   67.8070 N.pl3 301  SAH301     -0.1439
     18  C8        28.0400   91.1320   66.8420 C.3   301  SAH301      0.3377
     19  N7        27.5800   91.4290   65.6610 N.2   301  SAH301     -0.2095
     20  C5        26.1640   91.3820   65.8120 C.2   301  SAH301      0.2526
     21  C6        25.0860   91.6170   64.8750 C.2   301  SAH301      0.4393
     22  N6        25.2650   91.9470   63.5880 N.pl3 301  SAH301      0.2180
     23  N1        23.8180   91.4740   65.4040 N.2   301  SAH301      0.0021
     24  C2        23.5780   91.1380   66.7020 C.3   301  SAH301      0.5254
     25  N3        24.5770   90.9080   67.6220 N.2   301  SAH301     -0.0055
     26  C4        25.8390   91.0470   67.1090 C.2   301  SAH301      0.3518
@<TRIPOS>BOND
     1    22    21    1
     2    21    23    2
     3    21    20    1
     4    23    24    1
     5    19    20    2
     6    19    18    1
     7    20    26    1
     8    24    25    1
     9    18    17    1
    10     7     6   ar
    11     8     6   ar
    12    26    25    2
    13    26    17    1
    14     6     2    1
    15     2     1    1
    16     2     3    1
    17    17    16    1
    18     3     4    1
    19    16    14    1
    20    16    11    1
    21    12    14    1
    22    12    13    1
    23    12    10    1
    24     4     5    1
    25    14    15    1
    26     9    10    1
    27     9     5    1
    28    11    10    1
