@<TRIPOS>MOLECULE
2enx_TRP_A_1.pdb
 15 16 0 0 0
SMALL
GASTEIGER

@<TRIPOS>ATOM
      1  N        -72.7220   83.6120   31.9550 N.3   1031  TRP1031    -0.1205
      2  CA       -72.7150   83.3820   33.4330 C.3   1031  TRP1031     0.1984
      3  C        -74.1530   83.0420   33.9540 C.2   1031  TRP1031     0.3822
      4  O        -74.4210   82.6570   35.1290 O.co2 1031  TRP1031    -0.2440
      5  CB       -72.0640   84.5850   34.1190 C.3   1031  TRP1031     0.0549
      6  CG       -71.5750   84.3910   35.5380 C.2   1031  TRP1031    -0.0138
      7  CD1      -72.2800   83.8660   36.6240 C.2   1031  TRP1031     0.0907
      8  CD2      -70.2880   84.8030   36.0630 C.3   1031  TRP1031     0.0819
      9  NE1      -71.4890   83.9030   37.7730 N.2   1031  TRP1031    -0.2482
     10  CE2      -70.2720   84.4710   37.4620 C.2   1031  TRP1031     0.0665
     11  CE3      -69.1430   85.4080   35.4900 C.2   1031  TRP1031    -0.0164
     12  CZ2      -69.1510   84.7220   38.2760 C.2   1031  TRP1031     0.0153
     13  CZ3      -68.0320   85.6490   36.3040 C.2   1031  TRP1031    -0.0038
     14  CH2      -68.0510   85.3110   37.6810 C.2   1031  TRP1031     0.0009
     15  OXT      -75.1150   83.1180   33.1640 O.co2 1031  TRP1031    -0.2440
@<TRIPOS>BOND
     1     1     2    1
     2    15     3   ar
     3     2     3    1
     4     2     5    1
     5     3     4   ar
     6     5     6    1
     7    11     8    1
     8    11    13    2
     9     6     8    1
    10     6     7    2
    11     8    10    1
    12    13    14    1
    13     7     9    1
    14    10     9    2
    15    10    12    1
    16    14    12    2
