@<TRIPOS>MOLECULE
2eo5_PLP_A_1.pdb
 15 15 0 0 0
SMALL
GASTEIGER

@<TRIPOS>ATOM
      1  N1        -1.0810   57.2470   19.7380 N.ar  1001  PLP1001    -0.2452
      2  C2        -0.6540   58.4190   20.2580 C.ar  1001  PLP1001     0.0978
      3  C2A       -1.3110   59.7190   19.8500 C.3   1001  PLP1001     0.0555
      4  C3         0.4090   58.4400   21.1910 C.ar  1001  PLP1001     0.2049
      5  O3         0.8540   59.6010   21.7250 O.3   1001  PLP1001    -0.2857
      6  C4         1.0120   57.2080   21.5700 C.ar  1001  PLP1001     0.0182
      7  C4A        2.1170   57.2050   22.5740 C.3   1001  PLP1001     0.0342
      8  C5         0.5310   55.9850   20.9860 C.ar  1001  PLP1001     0.0261
      9  C6        -0.5280   56.0440   20.0650 C.ar  1001  PLP1001     0.0965
     10  C5A        1.2060   54.6990   21.4080 C.3   1001  PLP1001     0.1815
     11  O4P        0.6270   54.2620   22.6280 O.3   1001  PLP1001    -0.2653
     12  P          1.3800   52.9150   23.0840 P.3   1001  PLP1001     0.5329
     13  O1P        1.2420   51.8330   22.0820 O.2   1001  PLP1001    -0.2224
     14  O2P        2.9360   53.2560   23.2900 O.3   1001  PLP1001    -0.1145
     15  O3P        0.7420   52.4500   24.4800 O.3   1001  PLP1001    -0.1145
@<TRIPOS>BOND
     1     1     9   ar
     2     1     2   ar
     3     3     2    1
     4     9     8   ar
     5     2     4   ar
     6     8    10    1
     7     8     6   ar
     8     4     6   ar
     9     4     5    1
    10    10    11    1
    11     6     7    1
    12    13    12    2
    13    11    12    1
    14    12    14    1
    15    12    15    1
