@<TRIPOS>MOLECULE
2eo7_CTT_A_1.pdb
 45 48 0 0 0
SMALL
GASTEIGER

@<TRIPOS>ATOM
      1  O1B        4.2920   40.3000    9.0260 O.3   801  CTT801     -0.1869
      2  C1B        5.3740   40.4440    9.9540 C.3   801  CTT801      0.3023
      3  C2B        6.8120   40.0250    9.6340 C.3   801  CTT801      0.2433
      4  O2B        7.0120   38.6120    9.5380 O.3   801  CTT801     -0.2148
      5  C3B        7.4450   40.9030    8.5460 C.3   801  CTT801      0.2168
      6  O3B        7.9250   40.1990    7.3980 O.3   801  CTT801     -0.2175
      7  O5B        5.4930   41.8090   10.4040 O.3   801  CTT801     -0.3237
      8  C5B        6.3740   42.6650    9.6290 C.3   801  CTT801      0.1804
      9  C6B        5.8000   44.0830    9.5210 C.3   801  CTT801      0.2141
     10  O6B        6.1610   44.8680   10.6620 O.3   801  CTT801     -0.2176
     11  C4B        6.5630   42.1150    8.2260 C.3   801  CTT801      0.1804
     12  O4B        7.2950   43.0760    7.4240 O.3   801  CTT801     -0.3257
     13  C1C        7.5430   42.8850    6.0140 C.3   801  CTT801      0.2695
     14  C2C        7.5390   44.2280    5.2760 C.3   801  CTT801      0.2404
     15  O2C        6.3300   44.9380    5.5510 O.3   801  CTT801     -0.2149
     16  C3C        7.6510   43.9720    3.7710 C.3   801  CTT801      0.2167
     17  O3C        7.5910   45.2140    3.0630 O.3   801  CTT801     -0.2175
     18  O5C        8.7530   42.1660    5.7040 O.3   801  CTT801     -0.3257
     19  C5C        8.9360   41.9660    4.2890 C.3   801  CTT801      0.1803
     20  C6C       10.2190   41.1750    4.0230 C.3   801  CTT801      0.2141
     21  O6C       10.2220   39.9940    4.8300 O.3   801  CTT801     -0.2176
     22  C4C        8.9460   43.2300    3.4400 C.3   801  CTT801      0.1804
     23  O4C        8.9780   42.8800    2.0440 O.3   801  CTT801     -0.3257
     24  C1D       10.0560   43.3610    1.2260 C.3   801  CTT801      0.2695
     25  C2D        9.8800   42.7300   -0.1570 C.3   801  CTT801      0.2404
     26  O2D        9.9390   41.3080   -0.0190 O.3   801  CTT801     -0.2149
     27  C3D       11.0000   43.1970   -1.0900 C.3   801  CTT801      0.2167
     28  O3D       10.7960   42.6180   -2.3810 O.3   801  CTT801     -0.2175
     29  O5D       10.0090   44.7910    1.0970 O.3   801  CTT801     -0.3257
     30  C5D       11.0620   45.3030    0.2610 C.3   801  CTT801      0.1803
     31  C6D       10.8810   46.8240    0.2360 C.3   801  CTT801      0.2141
     32  O6D        9.5920   47.1640   -0.2840 O.3   801  CTT801     -0.2176
     33  C4D       10.9760   44.7280   -1.1460 C.3   801  CTT801      0.1804
     34  O4D       11.9960   45.3520   -1.9460 O.3   801  CTT801     -0.3257
     35  C1E       11.8240   45.4350   -3.3710 C.3   801  CTT801      0.2695
     36  C2E       13.0110   46.2770   -3.8450 C.3   801  CTT801      0.2406
     37  O2E       13.0050   47.5440   -3.1820 O.3   801  CTT801     -0.2149
     38  C3E       12.8680   46.5290   -5.3460 C.3   801  CTT801      0.2198
     39  O3E       13.9840   47.2970   -5.8070 O.3   801  CTT801     -0.2174
     40  C4E       12.8560   45.1660   -6.0350 C.3   801  CTT801      0.2144
     41  O4E       12.7020   45.3460   -7.4450 O.3   801  CTT801     -0.2176
     42  O5E       11.8450   44.1710   -4.0590 O.3   801  CTT801     -0.3256
     43  C5E       11.6920   44.3400   -5.4810 C.3   801  CTT801      0.1835
     44  C6E       11.6910   42.9850   -6.1910 C.3   801  CTT801      0.2142
     45  O6E       10.6130   42.1770   -5.7130 O.3   801  CTT801     -0.2176
@<TRIPOS>BOND
     1    41    40    1
     2    44    45    1
     3    44    43    1
     4    40    43    1
     5    40    38    1
     6    39    38    1
     7    43    42    1
     8    38    36    1
     9    42    35    1
    10    36    35    1
    11    36    37    1
    12    35    34    1
    13    28    27    1
    14    34    33    1
    15    33    27    1
    16    33    30    1
    17    27    25    1
    18    32    31    1
    19    25    26    1
    20    25    24    1
    21    31    30    1
    22    30    29    1
    23    29    24    1
    24    24    23    1
    25    23    22    1
    26    17    16    1
    27    22    16    1
    28    22    19    1
    29    16    14    1
    30    20    19    1
    31    20    21    1
    32    19    18    1
    33    14    15    1
    34    14    13    1
    35    18    13    1
    36    13    12    1
    37     6     5    1
    38    12    11    1
    39    11     5    1
    40    11     8    1
    41     5     3    1
    42     1     2    1
    43     9     8    1
    44     9    10    1
    45     4     3    1
    46     8     7    1
    47     3     2    1
    48     2     7    1
