@<TRIPOS>MOLECULE
2ep7_NAD_A_1.pdb
 44 48 0 0 0
SMALL
GASTEIGER

@<TRIPOS>ATOM
      1  PA        -9.0570  -25.7170   34.1880 P.3   401  NAD401      0.2189
      2  O1A       -8.9460  -24.5890   33.2860 O.2   401  NAD401     -0.5170
      3  O2A       -7.7590  -26.3810   34.3810 O.3   401  NAD401     -0.4371
      4  O5B       -9.5050  -25.3680   35.7070 O.3   401  NAD401     -0.3112
      5  C5B      -10.3120  -24.2160   36.0660 C.3   401  NAD401      0.1813
      6  C4B       -9.6520  -23.3350   37.1340 C.3   401  NAD401      0.1821
      7  O4B       -9.7440  -23.9420   38.4600 O.3   401  NAD401     -0.3135
      8  C3B       -8.1420  -23.0180   36.9740 C.3   401  NAD401      0.2184
      9  O3B       -7.9390  -21.6270   36.6780 O.3   401  NAD401     -0.2174
     10  C2B       -7.5450  -23.4940   38.3250 C.3   401  NAD401      0.2570
     11  O2B       -6.4210  -22.6830   38.7520 O.3   401  NAD401     -0.2130
     12  C1B       -8.7390  -23.3720   39.2450 C.3   401  NAD401      0.3186
     13  N9A       -8.6000  -24.1540   40.4800 N.pl3 401  NAD401     -0.1439
     14  C8A       -8.0430  -25.4080   40.6720 C.3   401  NAD401      0.3377
     15  N7A       -8.0850  -25.8440   41.9600 N.2   401  NAD401     -0.2095
     16  C5A       -8.7140  -24.7850   42.6230 C.2   401  NAD401      0.2526
     17  C6A       -9.0770  -24.5950   44.0230 C.2   401  NAD401      0.4393
     18  N6A       -8.8360  -25.5000   44.9740 N.pl3 401  NAD401      0.2180
     19  N1A       -9.7060  -23.3980   44.3450 N.2   401  NAD401      0.0021
     20  C2A       -9.9560  -22.4590   43.3520 C.3   401  NAD401      0.5254
     21  N3A       -9.6630  -22.5450   42.0540 N.2   401  NAD401     -0.0055
     22  C4A       -9.0400  -23.7300   41.7350 C.2   401  NAD401      0.3518
     23  O3       -10.1150  -26.7150   33.6030 O.3   401  NAD401     -0.2703
     24  PN       -11.5220  -26.5300   32.8450 P.3   401  NAD401      0.2189
     25  O1N      -11.2880  -27.1060   31.4920 O.2   401  NAD401     -0.5170
     26  O2N      -11.8430  -25.0970   32.7860 O.3   401  NAD401     -0.4371
     27  O5D      -12.6240  -27.4460   33.5130 O.3   401  NAD401     -0.3112
     28  C5D      -13.0440  -27.2980   34.8770 C.3   401  NAD401      0.1813
     29  C4D      -14.1490  -28.3170   35.0810 C.3   401  NAD401      0.1799
     30  O4D      -15.1130  -28.1770   33.9710 O.3   401  NAD401     -0.3327
     31  C3D      -13.7090  -29.7900   35.0960 C.3   401  NAD401      0.2158
     32  O3D      -14.3880  -30.5920   36.0850 O.3   401  NAD401     -0.2175
     33  C2D      -13.9950  -30.2180   33.6430 C.3   401  NAD401      0.2309
     34  O2D      -14.1100  -31.6550   33.5420 O.3   401  NAD401     -0.2158
     35  C1D      -15.2680  -29.4440   33.3610 C.3   401  NAD401      0.2263
     36  N1N      -15.6090  -29.2900   31.9090 N.pl3 401  NAD401     -0.2787
     37  C2N      -14.5680  -28.8900   31.0530 C.3   401  NAD401      0.1244
     38  C3N      -14.8870  -28.7600   29.6980 C.2   401  NAD401      0.0544
     39  C7N      -13.8530  -28.3230   28.6440 C.2   401  NAD401      0.2818
     40  O7N      -14.1990  -28.2470   27.4710 O.2   401  NAD401     -0.2670
     41  N7N      -12.6000  -28.0320   29.0120 N.am  401  NAD401     -0.0839
     42  C4N      -16.2360  -29.0140   29.2080 C.2   401  NAD401      0.0033
     43  C5N      -17.1910  -29.4070   30.1900 C.2   401  NAD401      0.0157
     44  C6N      -16.9520  -29.5650   31.5320 C.2   401  NAD401      0.0633
@<TRIPOS>BOND
     1    40    39    2
     2    39    41   am
     3    39    38    1
     4    42    38    2
     5    42    43    1
     6    38    37    1
     7    43    44    2
     8    37    36    1
     9    25    24    2
    10    44    36    1
    11    36    35    1
    12    26    24    1
    13    24    27    1
    14    24    23    1
    15     2     1    2
    16    35    33    1
    17    35    30    1
    18    27    28    1
    19    34    33    1
    20    23     1    1
    21    33    31    1
    22    30    29    1
    23     1     3    1
    24     1     4    1
    25    28    29    1
    26    29    31    1
    27    31    32    1
    28     4     5    1
    29     5     6    1
    30     9     8    1
    31     8     6    1
    32     8    10    1
    33     6     7    1
    34    10    11    1
    35    10    12    1
    36     7    12    1
    37    12    13    1
    38    13    14    1
    39    13    22    1
    40    14    15    1
    41    22    21    2
    42    22    16    1
    43    15    16    2
    44    21    20    1
    45    16    17    1
    46    20    19    1
    47    17    19    2
    48    17    18    1
