@<TRIPOS>MOLECULE
2eph_III_H_1.pdb
 31 32 0 0 0
SMALL
GASTEIGER

@<TRIPOS>ATOM
      1  N          8.2460  -26.3220   -7.7340 N.3   604  ASP604     -0.1225
      2  CA         8.0970  -24.9720   -7.1210 C.3   604  ASP604      0.1805
      3  C          6.7950  -24.8620   -6.3360 C.2   604  ASP604      0.2598
      4  O          5.7250  -25.2020   -6.8460 O.2   604  ASP604     -0.2718
      5  CB         8.1110  -23.8800   -8.1840 C.3   604  ASP604      0.1424
      6  CG         7.9480  -22.4980   -7.5830 C.2   604  ASP604      0.3668
      7  OD1        8.8170  -22.1220   -6.7630 O.co2 604  ASP604     -0.2456
      8  OD2        6.9550  -21.8030   -7.9100 O.co2 604  ASP604     -0.2456
      9  N          6.8910  -24.3500   -5.1100 N.am  605  TRP605     -0.1962
     10  CA         5.7800  -24.3940   -4.1610 C.3   605  TRP605      0.1768
     11  C          4.7070  -23.3810   -4.5470 C.2   605  TRP605      0.2620
     12  O          4.6140  -22.2960   -3.9620 O.2   605  TRP605     -0.2715
     13  CB         6.2820  -24.1410   -2.7360 C.3   605  TRP605      0.0553
     14  CG         5.3920  -24.6900   -1.6820 C.2   605  TRP605     -0.0136
     15  CD1        4.0620  -24.9730   -1.7890 C.2   605  TRP605      0.0907
     16  CD2        5.7610  -25.0090   -0.3380 C.3   605  TRP605      0.0819
     17  NE1        3.5880  -25.4630   -0.6020 N.2   605  TRP605     -0.2482
     18  CE2        4.6100  -25.4940    0.3080 C.2   605  TRP605      0.0665
     19  CE3        6.9570  -24.9370    0.3800 C.2   605  TRP605     -0.0164
     20  CZ2        4.6150  -25.9020    1.6430 C.2   605  TRP605      0.0153
     21  CZ3        6.9630  -25.3490    1.7040 C.2   605  TRP605     -0.0038
     22  CH2        5.7980  -25.8230    2.3220 C.2   605  TRP605      0.0009
     23  N          3.8960  -23.7680   -5.5330 N.am  606  ASN606     -0.1936
     24  CA         2.8730  -22.9100   -6.1270 C.3   606  ASN606      0.2069
     25  C          3.4880  -21.6350   -6.7140 C.2   606  ASN606      0.3847
     26  O          3.7030  -21.5450   -7.9140 O.co2 606  ASN606     -0.2437
     27  CB         1.7690  -22.5960   -5.1070 C.3   606  ASN606      0.1217
     28  CG         0.4120  -22.3620   -5.7650 C.2   606  ASN606      0.2631
     29  OD1        0.2710  -21.4930   -6.6270 O.2   606  ASN606     -0.2716
     30  ND2       -0.5920  -23.1420   -5.3570 N.am  606  ASN606     -0.0877
     31  OXT        3.8210  -20.6690   -6.0360 O.co2 606  ASN606     -0.2437
@<TRIPOS>BOND
     1     5     6    1
     2     5     2    1
     3    26    25   ar
     4     8     6   ar
     5     1     2    1
     6     6     7   ar
     7     2     3    1
     8     4     3    2
     9    25    24    1
    10    25    31   ar
    11    29    28    2
    12     3     9   am
    13    24    23    1
    14    24    27    1
    15    28    30   am
    16    28    27    1
    17    23    11   am
    18     9    10    1
    19    11    10    1
    20    11    12    2
    21    10    13    1
    22    13    14    1
    23    15    14    2
    24    15    17    1
    25    14    16    1
    26    17    18    2
    27    16    18    1
    28    16    19    1
    29    18    20    1
    30    19    21    2
    31    20    22    2
    32    21    22    1
