@<TRIPOS>MOLECULE
2epn_NGT_A_1.pdb
 14 15 0 0 0
SMALL
GASTEIGER

@<TRIPOS>ATOM
      1  C1        23.2810    6.4870   40.3750 C.3   1650  NGT1650     0.1925
      2  C2        24.7020    6.7500   39.8140 C.3   1650  NGT1650     0.1740
      3  C3        25.3080    8.0190   40.3920 C.3   1650  NGT1650     0.2101
      4  C4        24.3770    9.2570   40.3220 C.3   1650  NGT1650     0.2137
      5  C5        23.0910    8.8210   41.0270 C.3   1650  NGT1650     0.1820
      6  C6        22.0420    9.9350   41.0520 C.3   1650  NGT1650     0.2142
      7  C7        25.0690    5.1380   41.5210 C.2   1650  NGT1650     0.0815
      8  C8        25.7220    4.0330   42.3000 C.3   1650  NGT1650     0.0587
      9  N2        25.5010    5.6390   40.3670 N.2   1650  NGT1650    -0.2643
     10  S1        23.5370    5.7540   42.0370 S.3   1650  NGT1650    -0.0689
     11  O3        26.5790    8.3580   39.7100 O.3   1650  NGT1650    -0.2181
     12  O4        24.9680   10.4030   40.9640 O.3   1650  NGT1650    -0.2176
     13  O5        22.5000    7.6720   40.3910 O.3   1650  NGT1650    -0.3400
     14  O6        21.6320   10.2300   39.7260 O.3   1650  NGT1650    -0.2176
@<TRIPOS>BOND
     1    11     3    1
     2    14     6    1
     3     2     9    1
     4     2     1    1
     5     2     3    1
     6     4     3    1
     7     4    12    1
     8     4     5    1
     9     9     7    2
    10     1    13    1
    11     1    10    1
    12    13     5    1
    13     5     6    1
    14     7    10    1
    15     7     8    1
