@<TRIPOS>MOLECULE
2eq7_NAD_A_1.pdb
 44 48 0 0 0
SMALL
GASTEIGER

@<TRIPOS>ATOM
      1  PA        43.0010   32.8190   25.8450 P.3   2483  NAD2483     0.2189
      2  O1A       43.7430   32.9980   27.1040 O.3   2483  NAD2483    -0.4371
      3  O2A       41.6600   31.9780   26.1580 O.2   2483  NAD2483    -0.5170
      4  O5B       43.9070   32.0150   24.7850 O.3   2483  NAD2483    -0.3112
      5  C5B       45.0660   32.7910   24.4720 C.3   2483  NAD2483     0.1813
      6  C4B       46.1040   31.8570   23.8370 C.3   2483  NAD2483     0.1821
      7  O4B       47.0450   32.6040   23.0420 O.3   2483  NAD2483    -0.3135
      8  C3B       46.8970   31.1170   24.9250 C.3   2483  NAD2483     0.2184
      9  O3B       46.6920   29.6990   24.8060 O.3   2483  NAD2483    -0.2174
     10  C2B       48.3570   31.5440   24.6600 C.3   2483  NAD2483     0.2570
     11  O2B       49.2980   30.5160   24.9800 O.3   2483  NAD2483    -0.2130
     12  C1B       48.3150   31.9210   23.1610 C.3   2483  NAD2483     0.3186
     13  N9A       49.4200   32.8240   22.7700 N.pl3 2483  NAD2483    -0.1439
     14  C8A       49.8660   33.9380   23.4420 C.3   2483  NAD2483     0.3377
     15  N7A       50.8560   34.4870   22.7960 N.2   2483  NAD2483    -0.2095
     16  C5A       51.1130   33.7720   21.6750 C.2   2483  NAD2483     0.2526
     17  C6A       52.0460   33.8710   20.6000 C.2   2483  NAD2483     0.4393
     18  N6A       52.9790   34.8980   20.5610 N.pl3 2483  NAD2483     0.2180
     19  N1A       52.0060   32.9410   19.6160 N.2   2483  NAD2483     0.0021
     20  C2A       51.1170   31.9390   19.6310 C.3   2483  NAD2483     0.5254
     21  N3A       50.2270   31.8110   20.6180 N.2   2483  NAD2483    -0.0055
     22  C4A       50.1890   32.6910   21.6450 C.2   2483  NAD2483     0.3518
     23  O3        42.6410   34.3010   25.2750 O.3   2483  NAD2483    -0.2703
     24  PN        41.2760   34.3360   24.3720 P.3   2483  NAD2483     0.2189
     25  O1N       41.0330   32.9750   23.6850 O.3   2483  NAD2483    -0.4371
     26  O2N       41.4280   35.4370   23.2940 O.2   2483  NAD2483    -0.5170
     27  O5D       39.9740   34.6680   25.2840 O.3   2483  NAD2483    -0.3112
     28  C5D       40.3180   35.6520   26.2670 C.3   2483  NAD2483     0.1813
     29  C4D       39.4150   35.4930   27.5080 C.3   2483  NAD2483     0.1799
     30  O4D       37.9930   35.4380   27.1350 O.3   2483  NAD2483    -0.3327
     31  C3D       39.7470   34.1980   28.2790 C.3   2483  NAD2483     0.2158
     32  O3D       39.9020   34.4660   29.6730 O.3   2483  NAD2483    -0.2175
     33  C2D       38.5730   33.2590   27.9810 C.3   2483  NAD2483     0.2309
     34  O2D       38.2850   32.3880   29.0810 O.3   2483  NAD2483    -0.2158
     35  C1D       37.3980   34.1960   27.6470 C.3   2483  NAD2483     0.2263
     36  N1N       36.5270   33.5540   26.6280 N.pl3 2483  NAD2483    -0.2787
     37  C2N       35.6390   32.6170   27.0240 C.3   2483  NAD2483     0.1244
     38  C3N       34.7970   31.9810   26.0680 C.2   2483  NAD2483     0.0544
     39  C7N       33.8190   30.9430   26.4690 C.2   2483  NAD2483     0.2818
     40  O7N       33.7510   30.5910   27.6250 O.2   2483  NAD2483    -0.2670
     41  N7N       33.0030   30.3800   25.5430 N.am  2483  NAD2483    -0.0839
     42  C4N       34.9190   32.3580   24.7030 C.2   2483  NAD2483     0.0033
     43  C5N       35.8530   33.3300   24.3440 C.2   2483  NAD2483     0.0157
     44  C6N       36.6490   33.9150   25.3350 C.2   2483  NAD2483     0.0633
@<TRIPOS>BOND
     1    19    20    1
     2    19    17    2
     3    20    21    1
     4    18    17    1
     5    17    16    1
     6    21    22    2
     7    22    16    1
     8    22    13    1
     9    16    15    2
    10    13    12    1
    11    13    14    1
    12    15    14    1
    13     7    12    1
    14     7     6    1
    15    12    10    1
    16    26    24    2
    17    25    24    1
    18     6     5    1
    19     6     8    1
    20    43    42    1
    21    43    44    2
    22    24    23    1
    23    24    27    1
    24     5     4    1
    25    10     8    1
    26    10    11    1
    27    42    38    2
    28     4     1    1
    29     9     8    1
    30    23     1    1
    31    27    28    1
    32    44    36    1
    33    41    39   am
    34     1     3    2
    35     1     2    1
    36    38    39    1
    37    38    37    1
    38    28    29    1
    39    39    40    2
    40    36    37    1
    41    36    35    1
    42    30    29    1
    43    30    35    1
    44    29    31    1
    45    35    33    1
    46    33    31    1
    47    33    34    1
    48    31    32    1
