@<TRIPOS>MOLECULE
2eqa_AMP_A_1.pdb
 23 25 0 0 0
SMALL
GASTEIGER

@<TRIPOS>ATOM
      1  P          0.1900   22.5630   19.9480 P.3   1379  AMP1379     0.5327
      2  O1P        1.1670   22.4070   18.8460 O.2   1379  AMP1379    -0.2224
      3  O2P       -0.6670   23.9180   19.8050 O.3   1379  AMP1379    -0.1145
      4  O3P        0.9060   22.6330   21.3880 O.3   1379  AMP1379    -0.1145
      5  O5'       -0.8700   21.3520   20.0090 O.3   1379  AMP1379    -0.2675
      6  C5'       -1.8070   21.2600   21.0840 C.3   1379  AMP1379     0.1860
      7  C4'       -3.1240   21.9720   20.7650 C.3   1379  AMP1379     0.1823
      8  O4'       -3.9340   21.2560   19.8180 O.3   1379  AMP1379    -0.3135
      9  C3'       -3.9950   21.9680   22.0200 C.3   1379  AMP1379     0.2184
     10  O3'       -3.5200   22.9930   22.8960 O.3   1379  AMP1379    -0.2174
     11  C2'       -5.3080   22.4120   21.3810 C.3   1379  AMP1379     0.2570
     12  O2'       -5.2630   23.8150   21.1110 O.3   1379  AMP1379    -0.2130
     13  C1'       -5.3050   21.6180   20.0720 C.3   1379  AMP1379     0.3186
     14  N9        -6.0920   20.3730   20.2290 N.pl3 1379  AMP1379    -0.1439
     15  C8        -5.5990   19.1480   20.4020 C.3   1379  AMP1379     0.3377
     16  N7        -6.5970   18.2710   20.4890 N.2   1379  AMP1379    -0.2095
     17  C5        -7.7400   18.9410   20.3720 C.2   1379  AMP1379     0.2526
     18  C6        -9.0820   18.5810   20.3880 C.2   1379  AMP1379     0.4393
     19  N6        -9.4430   17.3060   20.5160 N.pl3 1379  AMP1379     0.2180
     20  N1       -10.0110   19.5360   20.2490 N.2   1379  AMP1379     0.0021
     21  C2        -9.6680   20.8030   20.0930 C.3   1379  AMP1379     0.5254
     22  N3        -8.4020   21.1810   20.0700 N.2   1379  AMP1379    -0.0055
     23  C4        -7.4180   20.2810   20.2070 C.2   1379  AMP1379     0.3518
@<TRIPOS>BOND
     1     2     1    2
     2     3     1    1
     3     8    13    1
     4     8     7    1
     5     1     5    1
     6     1     4    1
     7     5     6    1
     8    22    21    1
     9    22    23    2
    10    13    14    1
    11    13    11    1
    12    21    20    1
    13    23    14    1
    14    23    17    1
    15    14    15    1
    16    20    18    2
    17    17    18    1
    18    17    16    2
    19    18    19    1
    20    15    16    1
    21     7     6    1
    22     7     9    1
    23    12    11    1
    24    11     9    1
    25     9    10    1
