@<TRIPOS>MOLECULE
2erj_FUC_B_1.pdb
 10 10 0 0 0
SMALL
GASTEIGER

@<TRIPOS>ATOM
      1  C1        20.2890   16.4300   29.0750 C.3   216  FUC216      0.1776
      2  C2        19.0450   15.7100   28.5860 C.3   216  FUC216      0.2141
      3  C3        18.7150   16.1990   27.1720 C.3   216  FUC216      0.2172
      4  C4        19.8970   15.9990   26.2260 C.3   216  FUC216      0.2116
      5  C5        21.1370   16.6260   26.8600 C.3   216  FUC216      0.1483
      6  C6        22.3900   16.3490   26.0460 C.3   216  FUC216      0.0349
      7  O2        17.9860   15.9750   29.4730 O.3   216  FUC216     -0.2176
      8  O3        17.5880   15.5450   26.6470 O.3   216  FUC216     -0.2175
      9  O4        20.0860   14.6250   25.9480 O.3   216  FUC216     -0.2177
     10  O5        21.3340   16.1430   28.1800 O.3   216  FUC216     -0.3508
@<TRIPOS>BOND
     1     9     4    1
     2     6     5    1
     3     4     5    1
     4     4     3    1
     5     8     3    1
     6     5    10    1
     7     3     2    1
     8    10     1    1
     9     2     1    1
    10     2     7    1
