@<TRIPOS>MOLECULE
2erm_IDR_A_1.pdb
 19 19 0 0 0
SMALL
GASTEIGER

@<TRIPOS>ATOM
      1  C1        17.3360    9.7520    7.6700 C.3   157  IDR157      0.1167
      2  C2        18.2360    8.5350    7.9620 C.3   157  IDR157      0.1122
      3  C3        18.6800    7.8180    6.6800 C.3   157  IDR157      0.1156
      4  C4        17.4830    7.4390    5.7770 C.3   157  IDR157      0.1584
      5  C5        16.2680    8.3010    6.1390 C.3   157  IDR157      0.1911
      6  C6        15.1080    8.2280    5.1370 C.2   157  IDR157      0.3870
      7  O2        19.3650    8.9430    8.7110 O.3   157  IDR157     -0.3865
      8  O3        19.3980    6.6580    7.0540 O.3   157  IDR157     -0.3864
      9  O4        17.8640    7.5950    4.3850 O.3   157  IDR157     -0.2251
     10  O5        16.7280    9.6130    6.4010 O.3   157  IDR157     -0.3539
     11  O6A       14.8720    9.2290    4.4250 O.co2 157  IDR157     -0.2433
     12  O6B       14.3430    7.2380    5.1860 O.co2 157  IDR157     -0.2433
     13  H1        17.9020   10.6820    7.7220 H     157  IDR157      0.0650
     14  H2        17.6790    7.8090    8.5590 H     157  IDR157      0.0647
     15  H3        19.3450    8.4850    6.1270 H     157  IDR157      0.0648
     16  H4        17.1900    6.4050    5.9660 H     157  IDR157      0.0687
     17  H5        15.8450    7.8990    7.0620 H     157  IDR157      0.0743
     18  HO2       19.0560    9.3100    9.5430 H     157  IDR157      0.2100
     19  HO3       20.0630    6.9190    7.6980 H     157  IDR157      0.2100
@<TRIPOS>BOND
     1     9     4    1
     2    11     6   ar
     3     6    12   ar
     4     6     5    1
     5     4    16    1
     6     4     5    1
     7     4     3    1
     8    15     3    1
     9     5    10    1
    10     5    17    1
    11    10     1    1
    12     3     8    1
    13     3     2    1
    14     8    19    1
    15     1    13    1
    16     1     2    1
    17     2    14    1
    18     2     7    1
    19     7    18    1
