@<TRIPOS>MOLECULE
2erm_GNS_A_1.pdb
 25 25 0 0 0
SMALL
GASTEIGER

@<TRIPOS>ATOM
      1  C1        12.5980   10.9410    9.5310 C.3   156  GNS156      0.1062
      2  C2        13.0900   11.5510    8.2100 C.3   156  GNS156      0.0860
      3  N         12.0630   11.5550    7.1390 N.3   156  GNS156     -0.1798
      4  S1        11.2500   12.9920    7.0300 S.3   156  GNS156      0.0767
      5  O1S       10.4640   12.7610    5.8470 O.3   156  GNS156     -0.0534
      6  O2S       10.4520   13.0270    8.2270 O.3   156  GNS156     -0.0534
      7  O3S       12.2640   13.9950    6.9070 O.3   156  GNS156     -0.0534
      8  C3        14.3210   10.7780    7.7280 C.3   156  GNS156      0.1062
      9  O3        14.7280   11.3570    6.5000 O.3   156  GNS156     -0.3873
     10  C4        15.4240   10.8520    8.8050 C.3   156  GNS156      0.1491
     11  C5        14.8670   10.6510   10.2260 C.3   156  GNS156      0.1137
     12  O5        13.6060   11.2520   10.4840 O.3   156  GNS156     -0.3640
     13  C6        15.8920   11.1310   11.2560 C.3   156  GNS156      0.0730
     14  O6        16.0460   12.5320   11.1730 O.3   156  GNS156     -0.3924
     15  O4        16.3910    9.7820    8.7060 O.3   156  GNS156     -0.2256
     16  H1        11.6740   11.4290    9.8390 H     156  GNS156      0.0640
     17  H2        13.4320   12.5650    8.4260 H     156  GNS156      0.0530
     18  HN        12.5790   11.5530    6.2760 H     156  GNS156      0.1486
     19  H3        14.0510    9.7360    7.5530 H     156  GNS156      0.0638
     20  HO3       15.3150   10.7400    6.0490 H     156  GNS156      0.2100
     21  H4        15.9140   11.8230    8.7340 H     156  GNS156      0.0681
     22  H5        14.7500    9.5840   10.3840 H     156  GNS156      0.0647
     23  H61       15.5540   10.8590   12.2500 H     156  GNS156      0.0584
     24  H62       16.8570   10.6540   11.0790 H     156  GNS156      0.0584
     25  H6O       15.1670   12.9190   11.1910 H     156  GNS156      0.2095
@<TRIPOS>BOND
     1     5     4    1
     2    20     9    1
     3    18     3    1
     4     9     8    1
     5     7     4    1
     6     4     3    1
     7     4     6    1
     8     3     2    1
     9    19     8    1
    10     8     2    1
    11     8    10    1
    12     2    17    1
    13     2     1    1
    14    15    10    1
    15    21    10    1
    16    10    11    1
    17     1    16    1
    18     1    12    1
    19    11    22    1
    20    11    12    1
    21    11    13    1
    22    24    13    1
    23    14    25    1
    24    14    13    1
    25    13    23    1
