@<TRIPOS>MOLECULE
2erm_IDS_A_1.pdb
 22 22 0 0 0
SMALL
GASTEIGER

@<TRIPOS>ATOM
      1  C1        10.2630    6.5470    9.5480 C.3   155  IDS155      0.1193
      2  C2         9.7320    7.9800    9.3380 C.3   155  IDS155      0.1426
      3  C3        10.2670    8.9180   10.4340 C.3   155  IDS155      0.1181
      4  C4        11.8040    8.8460   10.5180 C.3   155  IDS155      0.1585
      5  C5        12.2520    7.3710   10.6060 C.3   155  IDS155      0.1911
      6  C6        13.7780    7.2330   10.6910 C.2   155  IDS155      0.3870
      7  O2        10.0970    8.5430    8.0840 O.3   155  IDS155     -0.2459
      8  O3         9.6900    8.5820   11.6810 O.3   155  IDS155     -0.3863
      9  O4        12.4060    9.5390    9.3960 O.3   155  IDS155     -0.2251
     10  O5        11.6810    6.5740    9.5720 O.3   155  IDS155     -0.3538
     11  O61       14.4050    6.9220    9.6510 O.co2 155  IDS155     -0.2433
     12  O62       14.3040    7.4370   11.8070 O.co2 155  IDS155     -0.2433
     13  S          9.9030    7.7780    6.6940 S.3   155  IDS155     -0.0004
     14  O1S        9.8220    8.8740    5.7550 O.2   155  IDS155     -0.3452
     15  O2S       11.0960    6.9720    6.5340 O.2   155  IDS155     -0.3452
     16  O3S        8.6940    7.0320    6.8630 O.3   155  IDS155     -0.2682
     17  H1         9.9430    5.9110    8.7290 H     155  IDS155      0.0651
     18  H2         8.6430    7.9610    9.3970 H     155  IDS155      0.0673
     19  H3         9.9610    9.9390   10.2060 H     155  IDS155      0.0649
     20  H4        12.1270    9.3350   11.4390 H     155  IDS155      0.0687
     21  H5        11.8800    6.9890   11.5570 H     155  IDS155      0.0743
     22  HO3        9.7730    7.6300   11.8010 H     155  IDS155      0.2100
@<TRIPOS>BOND
     1    14    13    2
     2    15    13    2
     3    13    16    1
     4    13     7    1
     5     7     2    1
     6    17     1    1
     7     2    18    1
     8     2     1    1
     9     2     3    1
    10     9     4    1
    11     1    10    1
    12    10     5    1
    13    11     6   ar
    14    19     3    1
    15     3     4    1
    16     3     8    1
    17     4     5    1
    18     4    20    1
    19     5     6    1
    20     5    21    1
    21     6    12   ar
    22     8    22    1
