@<TRIPOS>MOLECULE
2erm_NGY_A_1.pdb
 30 30 0 0 0
SMALL
GASTEIGER

@<TRIPOS>ATOM
      1  C1        18.7290    6.5870    3.9040 C.3   158  NGY158      0.1079
      2  C2        19.3550    7.0060    2.5650 C.3   158  NGY158      0.0802
      3  C3        18.4580    6.7120    1.3530 C.3   158  NGY158      0.1076
      4  C4        17.8280    5.3150    1.4700 C.3   158  NGY158      0.1494
      5  C5        17.0570    5.2960    2.8020 C.3   158  NGY158      0.1162
      6  C6        16.2110    4.0570    3.0830 C.3   158  NGY158      0.1036
      7  O3        19.2420    6.7690    0.1730 O.3   158  NGY158     -0.3871
      8  O4        17.1210    5.0260    0.2400 O.3   158  NGY158     -0.2256
      9  O5        18.0510    5.3490    3.8120 O.3   158  NGY158     -0.3637
     10  O6        14.9770    4.1920    2.4290 O.3   158  NGY158     -0.2520
     11  N         19.6750    8.4290    2.6280 N.am  158  NGY158     -0.3075
     12  C         20.6420    9.0330    1.9300 C.2   158  NGY158      0.2103
     13  O         21.3340    8.4390    1.1070 O.2   158  NGY158     -0.2761
     14  CH3       20.8480   10.5230    2.1860 C.3   158  NGY158      0.0122
     15  S         13.7070    3.4080    2.9620 S.3   158  NGY158     -0.0008
     16  O7        12.7210    3.6880    1.9620 O.2   158  NGY158     -0.3452
     17  O8        14.1380    2.0380    3.0450 O.2   158  NGY158     -0.3452
     18  O9        13.4380    4.0410    4.2270 O.3   158  NGY158     -0.2682
     19  H1        19.5550    6.4720    4.6030 H     158  NGY158      0.0642
     20  H2        20.2710    6.4220    2.4490 H     158  NGY158      0.0551
     21  H3        17.6660    7.4610    1.3220 H     158  NGY158      0.0641
     22  H4        18.5850    4.5530    1.5760 H     158  NGY158      0.0682
     23  H5        16.3980    6.1630    2.8710 H     158  NGY158      0.0648
     24  H6        16.7390    3.1520    2.7850 H     158  NGY158      0.0610
     25  H6A       16.0360    4.0040    4.1540 H     158  NGY158      0.0610
     26  HO3       19.9140    7.4500    0.2780 H     158  NGY158      0.2100
     27  HN        19.1210    8.9700    3.2790 H     158  NGY158      0.1491
     28  HH3       21.6550   10.9020    1.5580 H     158  NGY158      0.0322
     29 HH3A       21.1050   10.6820    3.2340 H     158  NGY158      0.0322
     30 HH3B       19.9300   11.0640    1.9540 H     158  NGY158      0.0322
@<TRIPOS>BOND
     1     7    26    1
     2     7     3    1
     3     8     4    1
     4    13    12    2
     5    21     3    1
     6     3     4    1
     7     3     2    1
     8     4    22    1
     9     4     5    1
    10    28    14    1
    11    12    14    1
    12    12    11   am
    13    30    14    1
    14    16    15    2
    15    14    29    1
    16    10    15    1
    17    10     6    1
    18    20     2    1
    19     2    11    1
    20     2     1    1
    21    11    27    1
    22    24     6    1
    23     5    23    1
    24     5     6    1
    25     5     9    1
    26    15    17    2
    27    15    18    1
    28     6    25    1
    29     9     1    1
    30     1    19    1
