@<TRIPOS>MOLECULE
2erp_GM6_A_1.pdb
 28 29 0 0 0
SMALL
GASTEIGER

@<TRIPOS>ATOM
      1  OAG       29.5100   13.3310   93.0550 O.3   1002  GM61002    -0.4026
      2  NAF       29.3600   14.5780   93.5960 N.am  1002  GM61002    -0.2030
      3  CAD       30.1490   14.9890   94.5910 C.2   1002  GM61002     0.0873
      4  OAE       31.0420   14.3100   95.0850 O.2   1002  GM61002    -0.5395
      5  CAC       29.8680   16.4160   95.1060 C.3   1002  GM61002     0.0603
      6  CAB       30.9270   17.4540   94.6790 C.3   1002  GM61002     0.0845
      7  CAK       30.5450   18.8300   95.2660 C.2   1002  GM61002     0.2417
      8  OAL       29.6490   19.5100   94.7610 O.2   1002  GM61002    -0.2733
      9  NAM       31.2750   19.1980   96.3370 N.am  1002  GM61002    -0.1974
     10  CAN       31.1430   20.4830   97.0910 C.3   1002  GM61002     0.1771
     11  CAY       31.5090   21.6660   96.1570 C.2   1002  GM61002     0.2616
     12  OAZ       32.5990   21.6970   95.5830 O.2   1002  GM61002    -0.2715
     13  NBB       30.5620   22.6130   96.0490 N.am  1002  GM61002    -0.2021
     14  CBA       30.5620   23.4820   94.8520 C.3   1002  GM61002     0.1386
     15  CAO       32.1290   20.5130   98.2800 C.3   1002  GM61002     0.0590
     16  CAP       31.8890   19.4120   99.3500 C.2   1002  GM61002     0.0003
     17  CAT       31.3850   18.1770   99.1840 C.2   1002  GM61002     0.0943
     18  NAU       31.3330   17.5170  100.3430 N.2   1002  GM61002    -0.2482
     19  CAR       31.7970   18.2740  101.3350 C.2   1002  GM61002     0.0631
     20  CAV       31.9680   18.0790  102.7320 C.3   1002  GM61002     0.0717
     21  CAX       32.5080   19.1280  103.5250 C.2   1002  GM61002    -0.0198
     22  CAW       32.8760   20.3570  102.9150 C.2   1002  GM61002    -0.0042
     23  CAS       32.7020   20.5400  101.5190 C.2   1002  GM61002     0.0006
     24  CAQ       32.1600   19.4890  100.7120 C.2   1002  GM61002     0.0115
     25  CAA       31.0170   17.5110   93.1260 C.3   1002  GM61002     0.0095
     26  CAH       32.0400   18.5340   92.5990 C.3   1002  GM61002     0.0005
     27  CAJ       31.6490   19.0380   91.2080 C.3   1002  GM61002     0.0000
     28  CAI       33.4350   17.9020   92.5380 C.3   1002  GM61002     0.0000
@<TRIPOS>BOND
     1    27    26    1
     2    28    26    1
     3    26    25    1
     4     1     2    1
     5    25     6    1
     6     2     3   am
     7     3     4    2
     8     3     5    1
     9     6     5    1
    10     6     7    1
    11     8     7    2
    12    14    13    1
    13     7     9   am
    14    12    11    2
    15    13    11   am
    16    11    10    1
    17     9    10    1
    18    10    15    1
    19    15    16    1
    20    17    16    2
    21    17    18    1
    22    16    24    1
    23    18    19    2
    24    24    19    1
    25    24    23    2
    26    19    20    1
    27    23    22    1
    28    20    21    1
    29    22    21    2
