@<TRIPOS>MOLECULE
2erx_GDP_A_1.pdb
 28 30 0 0 0
SMALL
GASTEIGER

@<TRIPOS>ATOM
      1  PB        -0.3060   19.6140   30.0310 P.3   401  GDP401      0.5373
      2  O1B        0.7310   19.6550   28.8760 O.2   401  GDP401     -0.2221
      3  O2B        0.3050   19.1600   31.3230 O.3   401  GDP401     -0.1143
      4  O3B       -1.5870   18.9260   29.6810 O.3   401  GDP401     -0.1143
      5  O3A       -0.6380   21.2030   30.2380 O.3   401  GDP401     -0.2261
      6  PA        -1.9550   21.9110   30.7430 P.3   401  GDP401      0.2231
      7  O1A       -2.5650   21.1350   31.8640 O.3   401  GDP401     -0.4370
      8  O2A       -2.8810   22.1330   29.6240 O.2   401  GDP401     -0.5169
      9  O5'       -1.4140   23.3490   31.2140 O.3   401  GDP401     -0.3111
     10  C5'       -0.4320   23.3150   32.2320 C.3   401  GDP401      0.1813
     11  C4'       -0.4700   24.7180   32.8760 C.3   401  GDP401      0.1799
     12  O4'       -0.0600   25.7160   31.8940 O.3   401  GDP401     -0.3326
     13  C3'       -1.8440   25.1970   33.2780 C.3   401  GDP401      0.2158
     14  O3'       -1.6560   26.0570   34.4500 O.3   401  GDP401     -0.2175
     15  C2'       -2.3690   26.0680   32.1400 C.3   401  GDP401      0.2310
     16  O2'       -3.2350   27.1770   32.5050 O.3   401  GDP401     -0.2158
     17  C1'       -1.0540   26.6600   31.6080 C.3   401  GDP401      0.2293
     18  N9        -1.1030   27.0340   30.2050 N.pl3 401  GDP401     -0.2354
     19  C8        -1.4600   26.2200   29.1400 C.3   401  GDP401      0.2246
     20  N7        -1.3360   26.8400   27.9370 N.2   401  GDP401     -0.2322
     21  C5        -0.8770   28.1010   28.2400 C.2   401  GDP401      0.2182
     22  C6        -0.5790   29.2530   27.4290 C.1   401  GDP401      0.2372
     23  O6        -0.7200   29.1920   26.1640 O.2   401  GDP401     -0.2069
     24  N1        -0.0800   30.3280   28.1070 N.2   401  GDP401     -0.2485
     25  C2         0.0710   30.3730   29.4410 C.1   401  GDP401      0.2531
     26  N2         0.5710   31.5140   29.9590 N.pl3 401  GDP401     -0.0226
     27  N3        -0.2150   29.3670   30.2820 N.2   401  GDP401     -0.3074
     28  C4        -0.7230   28.2110   29.6810 C.2   401  GDP401      0.2300
@<TRIPOS>BOND
     1    23    22    2
     2    22    24    2
     3    22    21    1
     4    20    21    2
     5    20    19    1
     6    24    25    2
     7    21    28    1
     8     2     1    2
     9    19    18    1
    10    25    26    1
    11    25    27    2
    12     8     6    2
    13    28    18    1
    14    28    27    2
    15     4     1    1
    16     1     5    1
    17     1     3    1
    18    18    17    1
    19     5     6    1
    20     6     9    1
    21     6     7    1
    22     9    10    1
    23    17    12    1
    24    17    15    1
    25    12    11    1
    26    15    16    1
    27    15    13    1
    28    10    11    1
    29    11    13    1
    30    13    14    1
