@<TRIPOS>MOLECULE
2ery_GDP_A_1.pdb
 28 30 0 0 0
SMALL
GASTEIGER

@<TRIPOS>ATOM
      1  PB        13.6980   14.8570    8.9410 P.3     1  GDP1        0.5373
      2  O1B       12.8640   13.6070    9.1260 O.3     1  GDP1       -0.1143
      3  O2B       13.9980   15.1690    7.4750 O.2     1  GDP1       -0.2221
      4  O3B       13.0470   16.0240    9.6270 O.3     1  GDP1       -0.1143
      5  O3A       15.0530   14.5750    9.7410 O.3     1  GDP1       -0.2261
      6  PA        16.5640   14.8090    9.2860 P.3     1  GDP1        0.2231
      7  O1A       16.7510   16.3000    9.0280 O.3     1  GDP1       -0.4370
      8  O2A       17.0260   13.9600    8.1380 O.2     1  GDP1       -0.5169
      9  O5'       17.3790   14.4390   10.6120 O.3     1  GDP1       -0.3111
     10  C5'       17.1400   15.1180   11.8450 C.3     1  GDP1        0.1813
     11  C4'       18.3830   15.0700   12.7190 C.3     1  GDP1        0.1799
     12  O4'       18.6770   13.7120   13.0430 O.3     1  GDP1       -0.3326
     13  C3'       19.6300   15.6130   12.0340 C.3     1  GDP1        0.2158
     14  O3'       20.4610   16.2030   13.0410 O.3     1  GDP1       -0.2175
     15  C2'       20.3040   14.3770   11.4680 C.3     1  GDP1        0.2310
     16  O2'       21.7300   14.4180   11.3800 O.3     1  GDP1       -0.2158
     17  C1'       19.9320   13.3450   12.5050 C.3     1  GDP1        0.2293
     18  N9        19.8690   11.9870   11.9430 N.pl3   1  GDP1       -0.2354
     19  C8        19.1630   11.5660   10.8690 C.3     1  GDP1        0.2246
     20  N7        19.3510   10.2390   10.6910 N.2     1  GDP1       -0.2322
     21  C5        20.1680    9.8110   11.6750 C.2     1  GDP1        0.2182
     22  C6        20.7710    8.5420   12.0830 C.1     1  GDP1        0.2372
     23  O6        20.5450    7.4820   11.4540 O.2     1  GDP1       -0.2069
     24  N1        21.5580    8.5450   13.1760 N.2     1  GDP1       -0.2485
     25  C2        21.8250    9.6460   13.9000 C.1     1  GDP1        0.2531
     26  N2        22.6370    9.5620   14.9860 N.pl3   1  GDP1       -0.0226
     27  N3        21.3140   10.8480   13.5880 N.2     1  GDP1       -0.3074
     28  C4        20.4940   10.9700   12.5050 C.2     1  GDP1        0.2300
@<TRIPOS>BOND
     1     3     1    2
     2     8     6    2
     3     1     2    1
     4     1     4    1
     5     1     5    1
     6     7     6    1
     7     6     5    1
     8     6     9    1
     9     9    10    1
    10    20    19    1
    11    20    21    2
    12    19    18    1
    13    16    15    1
    14    23    22    2
    15    15    13    1
    16    15    17    1
    17    21    22    1
    18    21    28    1
    19    10    11    1
    20    18    17    1
    21    18    28    1
    22    13    11    1
    23    13    14    1
    24    22    24    2
    25    17    12    1
    26    28    27    2
    27    11    12    1
    28    24    25    2
    29    27    25    2
    30    25    26    1
