@<TRIPOS>MOLECULE
2erz_HFS_E_1.pdb
 21 23 0 0 0
SMALL
GASTEIGER

@<TRIPOS>ATOM
      1  O1         3.2140   10.1010    5.0010 O.2   351  HFS351     -0.2219
      2  C1         3.9290   10.0530    4.0080 C.1   351  HFS351      0.1545
      3  N1         3.4180    9.8960    2.6910 N.2   351  HFS351     -0.1747
      4  C2         4.1710    9.7230    1.5130 C.2   351  HFS351      0.1111
      5  C3         5.6280    9.6860    1.6100 C.2   351  HFS351      0.0235
      6  C4         6.2700    9.8290    2.9300 C.ar  351  HFS351      0.0311
      7  C5         7.7840    9.7510    3.1200 C.ar  351  HFS351      0.1229
      8  C6         8.3480    9.8820    4.4760 C.ar  351  HFS351      0.0200
      9  C7         7.4880   10.0900    5.6350 C.ar  351  HFS351      0.0021
     10  C8         6.0260   10.1620    5.4880 C.ar  351  HFS351      0.0117
     11  C9         5.4050   10.0290    4.1800 C.ar  351  HFS351      0.0845
     12  S1         8.9840    9.4800    1.7980 S.O2  351  HFS351      0.0633
     13  O2         8.6930    8.2590    1.0890 O.2   351  HFS351     -0.1528
     14  O3         9.0520   10.6840    1.0040 O.2   351  HFS351     -0.1528
     15  N2        10.6270    9.1530    2.4630 N.3   351  HFS351     -0.1540
     16  C10       11.5000   10.1780    3.1110 C.3   351  HFS351      0.0973
     17  C11       12.7050   10.4750    2.2230 C.3   351  HFS351      0.0379
     18  C12       13.7050    9.3150    2.2280 C.3   351  HFS351      0.0902
     19  N3        13.1750    8.1110    1.5490 N.3   351  HFS351     -0.2165
     20  C13       12.4060    7.2950    2.5170 C.3   351  HFS351      0.1078
     21  C14       10.9790    7.7520    2.8260 C.3   351  HFS351      0.1146
@<TRIPOS>BOND
     1    14    12    2
     2    13    12    2
     3     4     5    2
     4     4     3    1
     5    19    18    1
     6    19    20    1
     7     5     6    1
     8    12    15    1
     9    12     7    1
    10    17    18    1
    11    17    16    1
    12    15    21    1
    13    15    16    1
    14    20    21    1
    15     3     2    2
    16     6     7   ar
    17     6    11   ar
    18     7     8   ar
    19     2    11    1
    20     2     1    2
    21    11    10   ar
    22     8     9   ar
    23    10     9   ar
