@<TRIPOS>MOLECULE
2esa_GDM_A_1.pdb
 40 41 0 0 0
SMALL
GASTEIGER

@<TRIPOS>ATOM
      1  O1        37.0680   67.2450   25.8640 O.2   401  GDM401     -0.2096
      2  O2        31.5400   64.9520   23.1340 O.3   401  GDM401     -0.3495
      3  O3        29.5480   66.9160   23.4710 O.3   401  GDM401     -0.4294
      4  O4        27.9360   66.9140   21.9050 O.2   401  GDM401     -0.2227
      5  O5        31.3260   71.1800   17.8670 O.3   401  GDM401     -0.2202
      6  O6        33.4850   69.4260   17.3400 O.3   401  GDM401     -0.3510
      7  O7        33.5780   72.4960   21.6040 O.2   401  GDM401     -0.4687
      8  O8        32.7530   72.1090   24.1110 O.2   401  GDM401     -0.2877
      9  O9        36.9860   69.4730   22.5400 O.2   401  GDM401     -0.2844
     10  N1        36.1210   69.1060   25.0610 N.2   401  GDM401     -0.3338
     11  N2        27.3270   66.8840   24.0660 N.am  401  GDM401     -0.0475
     12  C1        36.4540   67.8190   24.9670 C.1   401  GDM401      0.2000
     13  C2        36.0680   67.0160   23.7190 C.2   401  GDM401      0.0685
     14  C3        34.7390   66.8770   23.3300 C.2   401  GDM401     -0.0178
     15  C4        34.2790   66.1590   22.2300 C.3   401  GDM401      0.0291
     16  C5        32.8660   66.5460   21.7880 C.3   401  GDM401      0.0383
     17  C6        31.7880   66.3400   22.8590 C.3   401  GDM401      0.1595
     18  C7        30.4760   66.9400   22.3740 C.3   401  GDM401      0.2155
     19  C8        30.6460   68.3680   21.8500 C.2   401  GDM401     -0.0063
     20  C9        30.5360   68.5870   20.4810 C.2   401  GDM401     -0.0288
     21  C10       30.6760   69.9780   19.8570 C.3   401  GDM401      0.0544
     22  C11       31.4010   69.9040   18.5100 C.3   401  GDM401      0.1828
     23  C12       32.8690   69.4810   18.6370 C.3   401  GDM401      0.1458
     24  C13       33.6320   70.4870   19.5040 C.3   401  GDM401      0.0325
     25  C14       35.1150   70.1180   19.6110 C.3   401  GDM401      0.0071
     26  C15       35.8350   71.0810   20.5590 C.3   401  GDM401      0.0330
     27  C16       35.3440   70.9420   22.0030 C.2   401  GDM401      0.0558
     28  C17       34.2290   71.6490   22.4490 C.2   401  GDM401      0.1727
     29  C18       33.7340   71.4680   23.7370 C.2   401  GDM401      0.2136
     30  C19       34.3520   70.5700   24.6020 C.3   401  GDM401      0.1355
     31  C20       35.4720   69.8630   24.1770 C.2   401  GDM401      0.1682
     32  C21       35.9610   70.0570   22.8870 C.2   401  GDM401      0.2212
     33  C22       37.1780   66.3490   22.9040 C.3   401  GDM401      0.0444
     34  C23       32.4930   64.4150   24.0550 C.3   401  GDM401      0.1742
     35  C24       28.2390   66.9040   23.0980 C.2   401  GDM401      0.4413
     36  C25       30.9400   69.5130   22.8240 C.3   401  GDM401      0.0297
     37  C26       29.2770   70.5740   19.6870 C.3   401  GDM401      0.0074
     38  C27       33.1180   68.2310   16.6430 C.3   401  GDM401      0.1741
     39  C28       35.6480   68.6910   19.7620 C.3   401  GDM401      0.0004
     40  C29       34.0560   73.8400   21.7270 C.3   401  GDM401      0.2526
@<TRIPOS>BOND
     1    38     6    1
     2     6    23    1
     3     5    22    1
     4    22    23    1
     5    22    21    1
     6    23    24    1
     7    24    25    1
     8    25    39    1
     9    25    26    1
    10    37    21    1
    11    21    20    1
    12    20    19    2
    13    26    27    1
    14     7    40    1
    15     7    28    1
    16    16    15    1
    17    16    17    1
    18    19    18    1
    19    19    36    1
    20     4    35    2
    21    27    28    2
    22    27    32    1
    23    15    14    1
    24    18    17    1
    25    18     3    1
    26    28    29    1
    27     9    32    2
    28    17     2    1
    29    32    31    1
    30    33    13    1
    31    35     3    1
    32    35    11   am
    33     2    34    1
    34    14    13    2
    35    13    12    1
    36    29     8    2
    37    29    30    1
    38    31    30    1
    39    31    10    2
    40    12    10    2
    41    12     1    2
