@<TRIPOS>MOLECULE
2esd_NAP_A_1.pdb
 48 52 0 0 0
SMALL
GASTEIGER

@<TRIPOS>ATOM
      1  PA       -94.4870   23.4900   18.8680 P.3   1476  NAP1476     0.2189
      2  O1A      -93.8390   24.6450   18.3880 O.2   1476  NAP1476    -0.5170
      3  O2A      -94.1790   22.0650   18.4480 O.3   1476  NAP1476    -0.4371
      4  O5B      -96.0640   23.6410   18.6580 O.3   1476  NAP1476    -0.3112
      5  C5B      -96.4830   24.0350   17.3460 C.3   1476  NAP1476     0.1813
      6  C4B      -97.5790   22.9890   16.9270 C.3   1476  NAP1476     0.1820
      7  O4B      -97.8580   23.5020   15.5700 O.3   1476  NAP1476    -0.3136
      8  C3B      -97.0270   21.5720   16.6960 C.3   1476  NAP1476     0.2157
      9  O3B      -98.1370   20.7060   16.9590 O.3   1476  NAP1476    -0.2175
     10  C2B      -96.6010   21.5290   15.2540 C.3   1476  NAP1476     0.2314
     11  O2B      -96.7220   20.2730   14.6070 O.3   1476  NAP1476    -0.2630
     12  C1B      -97.4680   22.6240   14.5340 C.3   1476  NAP1476     0.3158
     13  N9A      -96.6190   23.3590   13.6070 N.pl3 1476  NAP1476    -0.1439
     14  C8A      -95.2460   23.3320   13.3970 C.3   1476  NAP1476     0.3377
     15  N7A      -94.8170   24.1560   12.4620 N.2   1476  NAP1476    -0.2095
     16  C5A      -95.9840   24.7670   12.0290 C.2   1476  NAP1476     0.2526
     17  C6A      -96.1660   25.7450   11.0420 C.2   1476  NAP1476     0.4393
     18  N6A      -95.2120   26.3160   10.2810 N.pl3 1476  NAP1476     0.2180
     19  N1A      -97.4820   26.1830   10.8160 N.2   1476  NAP1476     0.0021
     20  C2A      -98.5600   25.6570   11.5520 C.3   1476  NAP1476     0.5254
     21  N3A      -98.4080   24.6910   12.5320 N.2   1476  NAP1476    -0.0055
     22  C4A      -97.1020   24.2750   12.7360 C.2   1476  NAP1476     0.3518
     23  O3       -94.3950   23.4830   20.4440 O.3   1476  NAP1476    -0.2703
     24  PN       -94.2980   22.3240   21.5070 P.3   1476  NAP1476     0.2189
     25  O1N      -94.7430   21.0430   20.9200 O.2   1476  NAP1476    -0.5170
     26  O2N      -95.0480   22.8070   22.6910 O.3   1476  NAP1476    -0.4371
     27  O5D      -92.7360   22.2420   21.7750 O.3   1476  NAP1476    -0.3112
     28  C5D      -91.8810   21.4220   20.9160 C.3   1476  NAP1476     0.1813
     29  C4D      -91.2740   22.3380   19.8830 C.3   1476  NAP1476     0.1799
     30  O4D      -90.6640   23.4480   20.5680 O.3   1476  NAP1476    -0.3327
     31  C3D      -90.1420   21.6900   19.0440 C.3   1476  NAP1476     0.2158
     32  O3D      -90.2340   22.1080   17.6660 O.3   1476  NAP1476    -0.2175
     33  C2D      -88.8760   22.1690   19.7300 C.3   1476  NAP1476     0.2309
     34  O2D      -87.7600   22.2090   18.8630 O.3   1476  NAP1476    -0.2158
     35  C1D      -89.2410   23.5260   20.2280 C.3   1476  NAP1476     0.2263
     36  N1N      -88.6220   23.9410   21.5090 N.pl3 1476  NAP1476    -0.2787
     37  C2N      -88.8900   23.3080   22.7650 C.3   1476  NAP1476     0.1244
     38  C3N      -88.2430   23.7930   23.9040 C.2   1476  NAP1476     0.0544
     39  C7N      -88.5290   23.1150   25.2620 C.2   1476  NAP1476     0.2818
     40  O7N      -87.9520   23.5530   26.2270 O.2   1476  NAP1476    -0.2670
     41  N7N      -89.3580   22.1120   25.3540 N.am  1476  NAP1476    -0.0839
     42  C4N      -87.3060   24.9280   23.8200 C.2   1476  NAP1476     0.0033
     43  C5N      -87.0730   25.5270   22.5450 C.2   1476  NAP1476     0.0157
     44  C6N      -87.7250   25.0470   21.3710 C.2   1476  NAP1476     0.0633
     45  P2B      -95.4960   19.1900   14.5520 P.3   1476  NAP1476     0.5328
     46  O1X      -94.1860   19.9930   14.6350 O.3   1476  NAP1476    -0.1145
     47  O2X      -95.7790   18.3780   15.7700 O.3   1476  NAP1476    -0.1145
     48  O3X      -95.6100   18.4750   13.2230 O.2   1476  NAP1476    -0.2224
@<TRIPOS>BOND
     1    18    17    1
     2    19    17    2
     3    19    20    1
     4    17    16    1
     5    20    21    1
     6    16    15    2
     7    16    22    1
     8    15    14    1
     9    21    22    2
    10    22    13    1
    11    48    45    2
    12    14    13    1
    13    13    12    1
    14    12    10    1
    15    12     7    1
    16    45    11    1
    17    45    46    1
    18    45    47    1
    19    11    10    1
    20    10     8    1
    21     7     6    1
    22     8     6    1
    23     8     9    1
    24     6     5    1
    25     5     4    1
    26    32    31    1
    27     2     1    2
    28     3     1    1
    29     4     1    1
    30    34    33    1
    31     1    23    1
    32    31    33    1
    33    31    29    1
    34    33    35    1
    35    29    30    1
    36    29    28    1
    37    35    30    1
    38    35    36    1
    39    23    24    1
    40    28    27    1
    41    25    24    2
    42    44    36    1
    43    44    43    2
    44    24    27    1
    45    24    26    1
    46    36    37    1
    47    43    42    1
    48    37    38    1
    49    42    38    2
    50    38    39    1
    51    39    41   am
    52    39    40    2
