@<TRIPOS>MOLECULE
2esd_G3H_A_1.pdb
 10 9 0 0 0
SMALL
GASTEIGER

@<TRIPOS>ATOM
      1  O1      -100.2950   23.9320   28.0080 O.2   800  G3H800     -0.2854
      2  C1      -101.2360   24.5080   28.5520 C.2   800  G3H800      0.2426
      3  C2      -102.4580   23.6770   29.0340 C.3   800  G3H800      0.2459
      4  O2      -103.6490   24.4490   28.8780 O.3   800  G3H800     -0.2119
      5  C3      -102.3830   23.2350   30.5340 C.3   800  G3H800      0.1946
      6  O1P     -103.6140   22.6910   31.1210 O.3   800  G3H800     -0.2670
      7  O2P     -103.6400   22.2570   33.6910 O.3   800  G3H800     -0.1145
      8  O3P     -104.1630   24.6150   32.8520 O.3   800  G3H800     -0.1145
      9  O4P     -105.7390   22.7790   32.6070 O.2   800  G3H800     -0.2224
     10  P       -104.2430   23.1170   32.5720 P.3   800  G3H800      0.5327
@<TRIPOS>BOND
     1     1     2    2
     2     2     3    1
     3     4     3    1
     4     3     5    1
     5     5     6    1
     6     6    10    1
     7    10     9    2
     8    10     8    1
     9    10     7    1
