@<TRIPOS>MOLECULE
2esm_M77_A_1.pdb
 20 22 0 0 0
SMALL
GASTEIGER

@<TRIPOS>ATOM
      1  O1        50.7030   98.8160   29.8470 O.2   416  M77416     -0.1497
      2  S1        51.5780   99.9040   29.5030 S.O2  416  M77416      0.0766
      3  O2        51.4490  100.8860   30.5460 O.2   416  M77416     -0.1497
      4  N4        53.0310   99.4050   29.4500 N.pl3 416  M77416     -0.1882
      5  C22       54.1240  100.3710   29.3160 C.3   416  M77416      0.1346
      6  C21       54.6220  100.7170   30.7200 C.3   416  M77416      0.1124
      7  N17       55.2460   99.5800   31.3710 N.3   416  M77416     -0.2114
      8  C16       54.4010   98.4890   31.8170 C.3   416  M77416      0.1161
      9  C20       54.1280   97.4800   30.7020 C.2   416  M77416      0.0100
     10  C15       53.3020   97.9600   29.4940 C.2   416  M77416      0.0805
     11  C5        51.0670  100.5500   28.1160 C.ar  416  M77416      0.1255
     12  C6        50.8330  101.9280   28.0500 C.ar  416  M77416      0.0202
     13  C7        50.3790  102.5540   26.8820 C.ar  416  M77416      0.0014
     14  C8        50.1240  101.8490   25.7040 C.ar  416  M77416      0.0016
     15  C9        50.3120  100.4710   25.6570 C.ar  416  M77416      0.0205
     16  C10       50.7930   99.7530   26.8730 C.ar  416  M77416      0.0219
     17  C11       50.9720   98.3750   26.7740 C.ar  416  M77416      0.0220
     18  C14       50.0670   99.7470   24.4930 C.ar  416  M77416      0.0989
     19  N13       50.2610   98.4160   24.4790 N.ar  416  M77416     -0.2423
     20  C12       50.6950   97.7410   25.5590 C.ar  416  M77416      0.0989
@<TRIPOS>BOND
     1    19    18   ar
     2    19    20   ar
     3    18    15   ar
     4    20    17   ar
     5    15    14   ar
     6    15    16   ar
     7    14    13   ar
     8    17    16   ar
     9    16    11   ar
    10    13    12   ar
    11    12    11   ar
    12    11     2    1
    13     5     4    1
    14     5     6    1
    15     4    10    1
    16     4     2    1
    17    10     9    2
    18     2     1    2
    19     2     3    2
    20     9     8    1
    21     6     7    1
    22     7     8    1
