@<TRIPOS>MOLECULE
2esr_GLC_B_1.pdb
 12 12 0 0 0
SMALL
GASTEIGER

@<TRIPOS>ATOM
      1  C1        -6.4830   38.9100   51.9510 C.3   300  GLC300      0.3024
      2  C2        -5.9980   40.3570   52.2130 C.3   300  GLC300      0.2434
      3  C3        -7.1100   41.3390   51.8010 C.3   300  GLC300      0.2199
      4  C4        -7.3950   41.1270   50.3040 C.3   300  GLC300      0.2144
      5  C5        -7.8550   39.6550   50.1090 C.3   300  GLC300      0.1836
      6  C6        -8.1400   39.4020   48.6240 C.3   300  GLC300      0.2142
      7  O1        -7.6280   38.6010   52.7580 O.3   300  GLC300     -0.1869
      8  O2        -5.6970   40.5100   53.6010 O.3   300  GLC300     -0.2148
      9  O3        -6.6730   42.6870   52.0280 O.3   300  GLC300     -0.2174
     10  O4        -8.4330   42.0300   49.8890 O.3   300  GLC300     -0.2176
     11  O5        -6.8060   38.7380   50.5380 O.3   300  GLC300     -0.3236
     12  O6        -8.5580   38.0450   48.4380 O.3   300  GLC300     -0.2176
@<TRIPOS>BOND
     1    12     6    1
     2     6     5    1
     3    10     4    1
     4     5     4    1
     5     5    11    1
     6     4     3    1
     7    11     1    1
     8     3     9    1
     9     3     2    1
    10     1     2    1
    11     1     7    1
    12     2     8    1
