@<TRIPOS>MOLECULE
2est_2Z5_E_1.pdb
 31 31 0 0 0
SMALL
GASTEIGER

@<TRIPOS>ATOM
      1  C1        10.9840   51.6940   -0.2710 C.2     1  2Z51        0.3371
      2  C2        10.9210   52.8550   -1.1440 C.3     1  2Z51        0.4711
      3  O         11.4520   51.8320    0.8500 O.2     1  2Z51       -0.2642
      4  F1        12.1340   53.1600   -1.4000 F       1  2Z51       -0.1620
      5  F2        10.3120   52.8950   -2.2430 F       1  2Z51       -0.1620
      6  F3        10.6740   53.8490   -0.3310 F       1  2Z51       -0.1620
      7  N         10.7210   50.4590   -0.5190 N.am    1  2Z51       -0.1907
      8  CA        11.2730   49.2290   -0.0150 C.3     1  2Z51        0.1730
      9  C         12.7390   49.3090    0.2860 C.2     1  2Z51        0.2616
     10  O1        13.4370   49.7980   -0.5570 O.2     1  2Z51       -0.2715
     11  CB        10.9630   48.1250   -1.1290 C.3     1  2Z51        0.0311
     12  CG        10.8580   46.7920   -0.4440 C.3     1  2Z51        0.0038
     13  CD        10.8680   45.4590   -1.0990 C.3     1  2Z51        0.0206
     14  CE        11.2570   44.3380   -0.1280 C.3     1  2Z51        0.1093
     15  NZ        10.1070   43.3610    0.1510 N.3     1  2Z51       -0.1314
     16  N1        13.3060   48.8950    1.4750 N.am    1  2Z51       -0.1963
     17  CA1       14.7820   48.8270    1.7230 C.3     1  2Z51        0.1732
     18  C3        15.2440   47.4870    1.0080 C.2     1  2Z51        0.2654
     19  O2        14.6770   46.3440    1.4600 O.2     1  2Z51       -0.2711
     20  CB1       15.3280   48.8320    3.1760 C.3     1  2Z51        0.0334
     21  N2        15.5750   47.6430   -0.2180 N.am    1  2Z51       -0.1778
     22  C11       16.0160   46.7580   -1.1820 C.ar    1  2Z51        0.0734
     23  C21       15.7960   45.3900   -1.2340 C.ar    1  2Z51        0.0165
     24  C31       16.3470   44.5390   -2.2050 C.ar    1  2Z51        0.0052
     25  C4        17.0830   45.0160   -3.2960 C.ar    1  2Z51        0.0715
     26  C5        17.2300   46.4010   -3.3640 C.ar    1  2Z51        0.0052
     27  C6        16.7260   47.2230   -2.3180 C.ar    1  2Z51        0.0165
     28  C7        17.5190   43.9650   -4.3050 C.3     1  2Z51        0.4186
     29  F11       17.0780   42.7690   -4.1390 F       1  2Z51       -0.1659
     30  F21       18.7430   43.6200   -4.4250 F       1  2Z51       -0.1659
     31  F31       17.2300   44.4650   -5.4560 F       1  2Z51       -0.1659
@<TRIPOS>BOND
     1    31    28    1
     2    30    28    1
     3    28    29    1
     4    28    25    1
     5    26    25   ar
     6    26    27   ar
     7    25    24   ar
     8    27    22   ar
     9     5     2    1
    10    24    23   ar
    11     4     2    1
    12    23    22   ar
    13    22    21    1
    14     2     6    1
    15     2     1    1
    16    11    12    1
    17    11     8    1
    18    13    12    1
    19    13    14    1
    20    10     9    2
    21     7     1   am
    22     7     8    1
    23     1     3    2
    24    21    18   am
    25    14    15    1
    26     8     9    1
    27     9    16   am
    28    18    19    2
    29    18    17    1
    30    16    17    1
    31    17    20    1
