@<TRIPOS>MOLECULE
2etk_HFS_A_1.pdb
 21 23 0 0 0
SMALL
GASTEIGER

@<TRIPOS>ATOM
      1  O1        50.1370   98.4500   24.9940 O.2   416  HFS416     -0.2219
      2  C1        50.2380   99.5810   25.5210 C.1   416  HFS416      0.1545
      3  N1        49.9040  100.6800   24.8260 N.2   416  HFS416     -0.1747
      4  C2        49.9940  101.9200   25.3480 C.2   416  HFS416      0.1111
      5  C3        50.4390  102.1680   26.6510 C.2   416  HFS416      0.0235
      6  C4        50.8150  101.1100   27.4760 C.ar  416  HFS416      0.0311
      7  C5        51.3050  101.2740   28.8820 C.ar  416  HFS416      0.1229
      8  C6        51.6420  100.1120   29.5840 C.ar  416  HFS416      0.0200
      9  C7        51.5380   98.8390   29.0160 C.ar  416  HFS416      0.0021
     10  C8        51.0890   98.6440   27.7090 C.ar  416  HFS416      0.0117
     11  C9        50.7230   99.7330   26.9210 C.ar  416  HFS416      0.0845
     12  S1        51.4400  102.7120   29.5830 S.O2  416  HFS416      0.0633
     13  O2        52.1500  103.6120   28.7190 O.2   416  HFS416     -0.1528
     14  O3        50.1220  103.2420   29.7990 O.2   416  HFS416     -0.1528
     15  N2        52.1950  102.6000   30.9140 N.3   416  HFS416     -0.1540
     16  C10       53.6590  102.7090   30.9350 C.3   416  HFS416      0.0973
     17  C11       54.0230  104.0180   31.6420 C.3   416  HFS416      0.0379
     18  C12       53.8410  103.9030   33.1570 C.3   416  HFS416      0.0902
     19  N3        52.4730  104.1420   33.6000 N.3   416  HFS416     -0.2165
     20  C13       51.2960  103.7010   32.8630 C.3   416  HFS416      0.1078
     21  C14       51.4670  102.3510   32.1620 C.3   416  HFS416      0.1146
@<TRIPOS>BOND
     1     3     4    1
     2     3     2    2
     3     1     2    2
     4     4     5    2
     5     2    11    1
     6     5     6    1
     7    11     6   ar
     8    11    10   ar
     9     6     7   ar
    10    10     9   ar
    11    13    12    2
    12     7    12    1
    13     7     8   ar
    14     9     8   ar
    15    12    14    2
    16    12    15    1
    17    15    16    1
    18    15    21    1
    19    16    17    1
    20    17    18    1
    21    21    20    1
    22    20    19    1
    23    18    19    1
