@<TRIPOS>MOLECULE
2etm_7PY_A_1.pdb
 28 31 0 0 0
SMALL
GASTEIGER

@<TRIPOS>ATOM
      1  CAX       -2.1680    9.6950    9.8970 C.3   131  7PY131      0.2526
      2  OAW       -2.9920    9.8440    8.7380 O.3   131  7PY131     -0.4682
      3  CAS       -2.8340   11.0580    8.1410 C.ar  131  7PY131      0.1768
      4  CAR       -1.9450   11.1990    7.0780 C.ar  131  7PY131      0.0576
      5  CAT       -3.6570   12.1250    8.5000 C.ar  131  7PY131      0.2061
      6  OAY       -4.5250   11.9940    9.5400 O.3   131  7PY131     -0.4654
      7  CAZ       -5.7650   11.4350    9.0900 C.3   131  7PY131      0.2528
      8  CAU       -3.5960   13.3200    7.7870 C.ar  131  7PY131      0.1768
      9  OBA       -4.3160   14.4020    8.1900 O.3   131  7PY131     -0.4682
     10  CBB       -5.6230   14.4150    7.6060 C.3   131  7PY131      0.2526
     11  CAV       -2.7260   13.4410    6.7070 C.ar  131  7PY131      0.0576
     12  CAF       -1.8930   12.3850    6.3470 C.ar  131  7PY131      0.0888
     13  NAE       -0.9930   12.6100    5.3890 N.pl3 131  7PY131     -0.1355
     14  CAD        0.0070   11.8000    5.0460 C.1   131  7PY131      0.1711
     15  NAG        0.4280   10.8130    5.9470 N.2   131  7PY131     -0.3176
     16  CAH        1.6750   10.1960    5.7850 C.ar  131  7PY131      0.2144
     17  NAC        0.8410   12.1350    3.9710 N.2   131  7PY131     -0.1682
     18  CAB        2.0830   11.5070    3.8030 C.2   131  7PY131      0.1159
     19  CAA        2.4990   10.5440    4.7160 C.ar  131  7PY131      0.0693
     20  CAL        3.5960    9.8050    4.8490 C.ar  131  7PY131      0.0248
     21  CAK        3.4930    9.0320    5.9230 C.ar  131  7PY131      0.0840
     22  NAI        2.3180    9.2710    6.4960 N.ar  131  7PY131     -0.2646
     23  CAJ        2.1220    8.8530    7.7450 C.ar  131  7PY131      0.1496
     24  CAM        1.2090    9.3530    8.6700 C.ar  131  7PY131      0.0375
     25  CAN        1.1180    8.8360    9.9580 C.ar  131  7PY131      0.0047
     26  CAO        1.9430    7.7940   10.3690 C.ar  131  7PY131      0.0208
     27  CAP        2.8710    7.2750    9.4730 C.ar  131  7PY131      0.1005
     28  NAQ        2.9530    7.8090    8.1790 N.ar  131  7PY131     -0.2264
@<TRIPOS>BOND
     1    18    17    1
     2    18    19    2
     3    17    14    2
     4    19    20   ar
     5    19    16   ar
     6    20    21   ar
     7    14    13    1
     8    14    15    2
     9    13    12    1
    10    16    15    2
    11    16    22   ar
    12    21    22   ar
    13    12    11   ar
    14    12     4   ar
    15    22    23    1
    16    11     8   ar
    17     4     3   ar
    18    10     9    1
    19    23    28   ar
    20    23    24   ar
    21     8     9    1
    22     8     5   ar
    23     3     5   ar
    24     3     2    1
    25    28    27   ar
    26     5     6    1
    27    24    25   ar
    28     2     1    1
    29     7     6    1
    30    27    26   ar
    31    25    26   ar
