@<TRIPOS>MOLECULE
2etr_Y27_A_1.pdb
 18 19 0 0 0
SMALL
GASTEIGER

@<TRIPOS>ATOM
      1  O23       50.2210  102.2230   28.6230 O.2   416  Y27416     -0.2730
      2  C22       51.0510  101.4790   29.1290 C.2   416  Y27416      0.2451
      3  C31       51.8760  101.9220   30.3110 C.3   416  Y27416      0.0786
      4  C36       52.8670  103.0170   29.9120 C.3   416  Y27416      0.0092
      5  C35       53.7390  103.4220   31.1040 C.3   416  Y27416      0.0019
      6  C34       52.9100  103.8740   32.3170 C.3   416  Y27416      0.0176
      7  C33       51.8370  102.8340   32.6670 C.3   416  Y27416      0.0019
      8  C32       50.9950  102.4390   31.4520 C.3   416  Y27416      0.0092
      9  C41       53.7690  104.2330   33.5400 C.3   416  Y27416      0.0918
     10  C42       54.6740  103.0980   34.0250 C.3   416  Y27416      0.0205
     11  N43       54.5870  105.3960   33.2510 N.3   416  Y27416     -0.1329
     12  N21       51.3120  100.2310   28.7210 N.am  416  Y27416     -0.1791
     13  C14       50.9190   99.6340   27.5640 C.ar  416  Y27416      0.0765
     14  C15       50.4320  100.3340   26.4560 C.ar  416  Y27416      0.0373
     15  C16       50.0570   99.6300   25.3100 C.ar  416  Y27416      0.1002
     16  N11       50.1660   98.2910   25.2620 N.ar  416  Y27416     -0.2422
     17  C12       50.6360   97.5930   26.3080 C.ar  416  Y27416      0.1002
     18  C13       51.0210   98.2460   27.4780 C.ar  416  Y27416      0.0373
@<TRIPOS>BOND
     1    16    15   ar
     2    16    17   ar
     3    15    14   ar
     4    17    18   ar
     5    14    13   ar
     6    18    13   ar
     7    13    12    1
     8     1     2    2
     9    12     2   am
    10     2     3    1
    11     4     3    1
    12     4     5    1
    13     3     8    1
    14     5     6    1
    15     8     7    1
    16     6     7    1
    17     6     9    1
    18    11     9    1
    19     9    10    1
