@<TRIPOS>MOLECULE
2eu2_5DS_A_1.pdb
 14 14 0 0 0
SMALL
GASTEIGER

@<TRIPOS>ATOM
      1  C1        -3.6030    6.7600   12.1920 C.3   263  5DS263      0.1142
      2  N1        -3.4050    6.0830   13.4840 N.pl3 263  5DS263     -0.2833
      3  C2        -2.3970    6.5300   14.4110 C.3   263  5DS263      0.1142
      4  C3        -3.8270    4.7820   13.6210 C.ar  263  5DS263      0.1855
      5  S1        -3.3440    3.6510   14.8140 S.2   263  5DS263     -0.0317
      6  N2        -4.5340    4.0820   12.6110 N.ar  263  5DS263     -0.1257
      7  N3        -4.8240    2.7200   12.9130 N.ar  263  5DS263     -0.1407
      8  C4        -4.2720    2.3400   14.1400 C.ar  263  5DS263      0.1540
      9  C5        -4.3730    1.0570   14.7780 C.3   263  5DS263      0.2862
     10  N4        -4.1580    0.0800   13.7190 N.3   263  5DS263     -0.0982
     11  S2        -5.2560    0.7270   16.3250 S.O2  263  5DS263      0.0953
     12  O2        -6.5820    1.3010   16.1720 O.2   263  5DS263     -0.1531
     13  O3        -4.4150    1.2290   17.3360 O.2   263  5DS263     -0.1531
     14  N5        -5.2830   -0.7650   16.3560 N.3   263  5DS263      0.0363
@<TRIPOS>BOND
     1     1     2    1
     2     6     7   ar
     3     6     4   ar
     4     7     8   ar
     5     2     4    1
     6     2     3    1
     7     4     5   ar
     8    10     9    1
     9     8     9    1
    10     8     5   ar
    11     9    11    1
    12    12    11    2
    13    11    14    1
    14    11    13    2
