@<TRIPOS>MOLECULE
2eu3_FF3_A_1.pdb
 13 13 0 0 0
SMALL
GASTEIGER

@<TRIPOS>ATOM
      1  N4        -5.0640    0.4150   10.6730 N.pl3 263  FF3263     -0.0979
      2  C1        -4.9460    1.0400   11.8490 C.ar  263  FF3263      0.2221
      3  S1        -4.3830    0.2910   13.3030 S.2   263  FF3263     -0.0247
      4  N1        -5.6440    2.1200   12.1950 N.ar  263  FF3263     -0.1223
      5  N2        -5.6410    2.4260   13.4050 N.ar  263  FF3263     -0.1365
      6  C2        -4.8400    1.7030   14.1780 C.ar  263  FF3263      0.1964
      7  C3        -4.4960    1.9430   15.6430 C.3   263  FF3263      0.4297
      8  F1        -4.6680    3.2100   15.9910 F     263  FF3263     -0.1719
      9  F2        -3.2420    1.6140   15.9310 F     263  FF3263     -0.1719
     10  S2        -5.5810    0.9060   16.7340 S.O2  263  FF3263      0.1352
     11  O1        -5.0430    1.2180   18.0970 O.2   263  FF3263     -0.1492
     12  O2        -7.0000    1.2500   16.5340 O.2   263  FF3263     -0.1492
     13  N3        -5.3140   -0.6530   16.3730 N.3   263  FF3263      0.0403
@<TRIPOS>BOND
     1     1     2    1
     2     2     4   ar
     3     2     3   ar
     4     4     5   ar
     5     3     6   ar
     6     5     6   ar
     7     6     7    1
     8     7     9    1
     9     7     8    1
    10     7    10    1
    11    13    10    1
    12    12    10    2
    13    10    11    2
