@<TRIPOS>MOLECULE
2eu7_HEM_X_1.pdb
 43 50 0 0 0
SMALL
GASTEIGER

@<TRIPOS>ATOM
      1 FE         22.2320   78.3380   27.7870 Fe    201  HEM201      0.0000
      2  CHA       24.8770   76.2910   28.1260 C.2   201  HEM201      0.0000
      3  CHB       22.8490   79.7160   30.8060 C.2   201  HEM201      0.0000
      4  CHC       20.1280   80.8220   27.0470 C.2   201  HEM201      0.0000
      5  CHD       21.0220   76.4710   25.2700 C.2   201  HEM201      0.0000
      6  NA        23.6150   78.0600   29.2190 N.2   201  HEM201      0.0000
      7  C1A       24.6350   77.1510   29.1720 C.2   201  HEM201      0.0000
      8  C2A       25.3980   77.2510   30.4020 C.2   201  HEM201      0.0000
      9  C3A       24.8540   78.1760   31.1560 C.2   201  HEM201      0.0000
     10  C4A       23.6890   78.6780   30.4500 C.2   201  HEM201      0.0000
     11  CMA       25.2700   78.6460   32.5590 C.3   201  HEM201      0.0000
     12  CAA       26.6360   76.3990   30.7010 C.3   201  HEM201      0.0000
     13  CBA       27.9190   77.1390   30.3550 C.3   201  HEM201      0.0000
     14  CGA       29.1330   76.2760   30.7170 C.2   201  HEM201      0.0000
     15  O1A       29.5870   75.4170   29.9040 O.co2 201  HEM201      0.0000
     16  O2A       29.6680   76.4240   31.8500 O.co2 201  HEM201      0.0000
     17  NB        21.6440   79.9700   28.7360 N.ar  201  HEM201      0.0000
     18  C1B       21.9780   80.4040   30.0120 C.ar  201  HEM201      0.0000
     19  C2B       21.4100   81.6940   30.2310 C.ar  201  HEM201      0.0000
     20  C3B       20.6800   82.0080   29.1560 C.ar  201  HEM201      0.0000
     21  C4B       20.8350   80.9290   28.2260 C.ar  201  HEM201      0.0000
     22  CMB       21.5150   82.3890   31.6230 C.3   201  HEM201      0.0000
     23  CAB       19.9380   83.2870   28.9430 C.2   201  HEM201      0.0000
     24  CBB       20.3410   84.4920   29.3310 C.2   201  HEM201      0.0000
     25  NC        20.7690   78.5500   26.4470 N.2   201  HEM201      0.0000
     26  C1C       20.0370   79.6950   26.2630 C.2   201  HEM201      0.0000
     27  C2C       19.1980   79.5450   25.0990 C.2   201  HEM201      0.0000
     28  C3C       19.3670   78.2980   24.7130 C.2   201  HEM201      0.0000
     29  C4C       20.3930   77.6850   25.4730 C.2   201  HEM201      0.0000
     30  CMC       18.2280   80.5810   24.5610 C.3   201  HEM201      0.0000
     31  CAC       18.7370   77.5870   23.5480 C.2   201  HEM201      0.0000
     32  CBC       17.8730   78.0260   22.6890 C.2   201  HEM201      0.0000
     33  ND        22.8230   76.6720   26.8890 N.ar  201  HEM201      0.0000
     34  C1D       22.2250   76.0700   25.7950 C.ar  201  HEM201      0.0000
     35  C2D       23.0330   75.0010   25.3560 C.ar  201  HEM201      0.0000
     36  C3D       24.1980   74.9890   26.1960 C.ar  201  HEM201      0.0000
     37  C4D       24.0260   76.0310   27.1390 C.ar  201  HEM201      0.0000
     38  CMD       22.7620   74.1160   24.1900 C.3   201  HEM201      0.0000
     39  CAD       25.3220   73.9730   26.1230 C.3   201  HEM201      0.0000
     40  CBD       26.4080   74.5510   25.3180 C.3   201  HEM201      0.0000
     41  CGD       27.6170   73.6230   25.1730 C.2   201  HEM201      0.0000
     42  O1D       28.3120   73.6400   24.1000 O.co2 201  HEM201      0.0000
     43  O2D       27.9500   72.8960   26.1180 O.co2 201  HEM201      0.0000
@<TRIPOS>BOND
     1    32    31    2
     2    31    28    1
     3    42    41   ar
     4    38    35    1
     5    30    27    1
     6    28    27    2
     7    28    29    1
     8    27    26    1
     9    41    40    1
    10    41    43   ar
    11     5    29    1
    12     5    34    2
    13    40    39    1
    14    35    34   ar
    15    35    36   ar
    16    29    25    2
    17    34    33   ar
    18    39    36    1
    19    36    37   ar
    20    26    25    1
    21    26     4    2
    22    25     1    1
    23    33    37   ar
    24    33     1    1
    25     4    21    1
    26    37     2    2
    27     1    17    1
    28     1     6    1
    29     2     7    1
    30    21    17   ar
    31    21    20   ar
    32    17    18   ar
    33    23    20    1
    34    23    24    2
    35    20    19   ar
    36     7     6    2
    37     7     8    1
    38     6    10    1
    39    15    14   ar
    40    18    19   ar
    41    18     3    1
    42    19    22    1
    43    13    12    1
    44    13    14    1
    45     8    12    1
    46     8     9    2
    47    10     3    2
    48    10     9    1
    49    14    16   ar
    50     9    11    1
