@<TRIPOS>MOLECULE
2eud_ANP_A_1.pdb
 31 33 0 0 0
SMALL
GASTEIGER

@<TRIPOS>ATOM
      1  PG       -12.2060   44.4640   25.5500 P.3   890  ANP890      0.4884
      2  O1G      -12.8500   43.4900   24.6460 O.2   890  ANP890     -0.2331
      3  O2G      -10.7110   44.4170   25.4750 O.3   890  ANP890     -0.1240
      4  O3G      -12.6340   44.1420   26.9230 O.3   890  ANP890     -0.1240
      5  PB       -12.1830   47.3690   25.8190 P.3   890  ANP890      0.4669
      6  O1B      -12.7770   48.5500   25.1540 O.2   890  ANP890     -0.2351
      7  O2B      -12.3480   47.4020   27.2830 O.3   890  ANP890     -0.1253
      8  N3B      -12.7100   45.9700   25.1620 N.3   890  ANP890     -0.0163
      9  PA        -9.5290   47.9380   24.9230 P.3   890  ANP890      0.2220
     10  O1A       -9.8570   49.3410   24.6410 O.2   890  ANP890     -0.5170
     11  O2A       -8.4410   47.7930   25.8970 O.3   890  ANP890     -0.4370
     12  O3A      -10.7120   47.1020   25.4770 O.3   890  ANP890     -0.2360
     13  O5'       -9.4020   47.0360   23.6220 O.3   890  ANP890     -0.3111
     14  C5'       -8.2010   47.2900   22.9430 C.3   890  ANP890      0.1813
     15  C4'       -7.8910   46.2990   21.8450 C.3   890  ANP890      0.1821
     16  O4'       -8.9490   46.3490   20.8800 O.3   890  ANP890     -0.3135
     17  C3'       -6.6320   46.6920   21.1420 C.3   890  ANP890      0.2184
     18  O3'       -5.9720   45.5850   20.5300 O.3   890  ANP890     -0.2174
     19  C2'       -7.2400   47.8000   20.2250 C.3   890  ANP890      0.2570
     20  O2'       -6.4050   48.0410   19.0350 O.3   890  ANP890     -0.2130
     21  C1'       -8.6490   47.2620   19.8780 C.3   890  ANP890      0.3186
     22  N9        -9.6940   48.3200   19.9040 N.pl3 890  ANP890     -0.1439
     23  C8       -10.6410   48.6040   20.8680 C.3   890  ANP890      0.3377
     24  N7       -11.4540   49.5800   20.6840 N.2   890  ANP890     -0.2095
     25  C5       -11.0720   50.0320   19.5060 C.2   890  ANP890      0.2526
     26  C6       -11.5800   51.1060   18.7430 C.2   890  ANP890      0.4393
     27  N6       -12.5970   51.8970   19.1030 N.pl3 890  ANP890      0.2180
     28  N1       -10.9730   51.3610   17.5150 N.2   890  ANP890      0.0021
     29  C2        -9.9060   50.5610   17.0930 C.3   890  ANP890      0.5254
     30  N3        -9.3600   49.5250   17.7490 N.2   890  ANP890     -0.0055
     31  C4        -9.9910   49.3020   18.9640 C.2   890  ANP890      0.3518
@<TRIPOS>BOND
     1    29    28    1
     2    29    30    1
     3    28    26    2
     4    30    31    2
     5    26    27    1
     6    26    25    1
     7    31    25    1
     8    31    22    1
     9    20    19    1
    10    25    24    2
    11    21    22    1
    12    21    19    1
    13    21    16    1
    14    22    23    1
    15    19    17    1
    16    18    17    1
    17    24    23    1
    18    16    15    1
    19    17    15    1
    20    15    14    1
    21    14    13    1
    22    13     9    1
    23    10     9    2
    24     2     1    2
    25     9    12    1
    26     9    11    1
    27     6     5    2
    28     8     1    1
    29     8     5    1
    30     3     1    1
    31    12     5    1
    32     1     4    1
    33     5     7    1
