@<TRIPOS>MOLECULE
2eud_GCQ_A_1.pdb
 26 27 0 0 0
SMALL
GASTEIGER

@<TRIPOS>ATOM
      1  O3B       27.5560   53.4970   17.4390 O.3   891  GCQ891     -0.1143
      2  PB        27.5830   53.0050   16.0100 P.3   891  GCQ891      0.5373
      3  O1B       28.9400   52.8710   15.3960 O.3   891  GCQ891     -0.1143
      4  O2B       26.7300   53.7650   15.0130 O.2   891  GCQ891     -0.2221
      5  O3A       27.1760   51.4560   16.1770 O.3   891  GCQ891     -0.2261
      6  PA        26.0620   50.4820   15.5170 P.3   891  GCQ891      0.2231
      7  O1A       26.5610   49.1410   15.9570 O.3   891  GCQ891     -0.4370
      8  O2A       25.9070   50.6810   13.9820 O.2   891  GCQ891     -0.5169
      9  O5'       24.7690   50.8560   16.3760 O.3   891  GCQ891     -0.3111
     10  C5'       23.5400   50.1890   16.1730 C.3   891  GCQ891      0.1814
     11  C4'       22.3930   50.8550   16.9250 C.3   891  GCQ891      0.1830
     12  C3'       21.1910   51.1430   16.0690 C.3   891  GCQ891      0.2462
     13  O3'       20.1490   50.2350   16.4670 O.3   891  GCQ891     -0.2144
     14  C2'       20.8420   52.6040   16.2940 C.3   891  GCQ891      0.3366
     15  F1        19.5060   52.6980   16.7860 F     891  GCQ891     -0.1969
     16  O4'       22.7720   52.0680   17.6320 O.3   891  GCQ891     -0.3297
     17  C1'       21.8480   53.1470   17.3210 C.3   891  GCQ891      0.2718
     18  N1        22.5100   54.4230   16.8060 N.am  891  GCQ891     -0.1754
     19  C6        23.6510   54.4220   16.0190 C.2   891  GCQ891      0.0837
     20  C5        24.2370   55.6160   15.5530 C.2   891  GCQ891      0.0687
     21  C4        23.6330   56.8480   15.9070 C.2   891  GCQ891      0.2346
     22  N4        24.1870   58.0150   15.4640 N.pl3 891  GCQ891     -0.0921
     23  N3        22.5000   56.8650   16.6900 N.2   891  GCQ891     -0.3024
     24  C2        21.9160   55.7030   17.1520 C.1   891  GCQ891      0.2757
     25  O2        20.8740   55.7470   17.8680 O.2   891  GCQ891     -0.1925
     26  F2        20.8370   53.2540   15.1410 F     891  GCQ891     -0.1969
@<TRIPOS>BOND
     1     8     6    2
     2     4     2    2
     3    26    14    1
     4     3     2    1
     5    22    21    1
     6     6     7    1
     7     6     5    1
     8     6     9    1
     9    20    21    1
    10    20    19    2
    11    21    23    2
    12     2     5    1
    13     2     1    1
    14    19    18    1
    15    12    14    1
    16    12    13    1
    17    12    11    1
    18    10     9    1
    19    10    11    1
    20    14    15    1
    21    14    17    1
    22    23    24    2
    23    18    24   am
    24    18    17    1
    25    11    16    1
    26    24    25    2
    27    17    16    1
