@<TRIPOS>MOLECULE
2euf_LQQ_B_1.pdb
 33 37 0 0 0
SMALL
GASTEIGER

@<TRIPOS>ATOM
      1  O01       32.4090   28.5440   60.1410 O.2   401  LQQ401     -0.2912
      2  C02       33.0080   27.5190   59.9010 C.2   401  LQQ401      0.1778
      3  C01       34.3120   27.5070   59.1620 C.3   401  LQQ401      0.0774
      4  C03       32.4150   26.2120   60.3390 C.ar  401  LQQ401      0.0871
      5  C04       32.6480   25.6900   61.6150 C.ar  401  LQQ401     -0.0090
      6  C05       33.4290   26.4260   62.6690 C.3   401  LQQ401      0.0315
      7  C06       31.9290   24.4600   62.0050 C.ar  401  LQQ401      0.0638
      8  C07       32.1990   23.7830   63.2720 C.2   401  LQQ401      0.1155
      9  N01       31.5880   22.6260   63.5420 N.2   401  LQQ401     -0.1682
     10  C08       30.8720   21.9680   62.6070 C.1   401  LQQ401      0.1725
     11  N02       30.7030   22.5010   61.3540 N.2   401  LQQ401     -0.3179
     12  C09       31.2660   23.6800   60.9670 C.ar  401  LQQ401      0.2113
     13  N03       31.0700   24.2300   59.7410 N.ar  401  LQQ401     -0.2719
     14  C10       30.2950   23.4750   58.7390 C.3   401  LQQ401      0.0908
     15  C11       29.2130   24.2680   58.0150 C.3   401  LQQ401      0.0227
     16  C12       29.2870   23.8720   56.5360 C.3   401  LQQ401      0.0020
     17  C13       30.5060   22.9550   56.3320 C.3   401  LQQ401      0.0020
     18  C14       31.2520   22.9450   57.6650 C.3   401  LQQ401      0.0227
     19  C15       31.6630   25.4930   59.4060 C.ar  401  LQQ401      0.2651
     20  O02       31.5220   26.0010   58.2620 O.2   401  LQQ401     -0.2668
     21  N04       30.3500   20.7760   63.0170 N.pl3 401  LQQ401     -0.1163
     22  C16       29.6660   19.8610   62.2880 C.ar  401  LQQ401      0.1632
     23  N05       29.5140   18.6170   62.8010 N.ar  401  LQQ401     -0.2253
     24  C17       28.8440   17.6710   62.1330 C.ar  401  LQQ401      0.1148
     25  C18       28.2800   17.9460   60.8870 C.ar  401  LQQ401      0.0675
     26  C19       28.4240   19.2200   60.3470 C.ar  401  LQQ401      0.0190
     27  C20       29.1170   20.1840   61.0520 C.ar  401  LQQ401      0.0382
     28  N06       27.5710   16.9530   60.1740 N.pl3 401  LQQ401     -0.3033
     29  C21       28.4660   15.8000   59.9060 C.3   401  LQQ401      0.1096
     30  C22       27.7120   14.6830   59.1890 C.3   401  LQQ401      0.1101
     31  N07       27.0440   15.1960   58.0030 N.3   401  LQQ401     -0.2144
     32  C23       26.3410   16.4760   58.0250 C.3   401  LQQ401      0.1101
     33  C24       26.9860   17.5260   58.9330 C.3   401  LQQ401      0.1096
@<TRIPOS>BOND
     1    17    16    1
     2    17    18    1
     3    16    15    1
     4    18    14    1
     5    31    32    1
     6    31    30    1
     7    15    14    1
     8    32    33    1
     9    20    19    2
    10    14    13    1
    11    33    28    1
    12     3     2    1
    13    30    29    1
    14    19    13   ar
    15    19     4   ar
    16    13    12   ar
    17     2     1    2
    18     2     4    1
    19    29    28    1
    20    28    25    1
    21     4     5   ar
    22    26    25   ar
    23    26    27   ar
    24    25    24   ar
    25    12    11    2
    26    12     7   ar
    27    27    22   ar
    28    11    10    2
    29     5     7   ar
    30     5     6    1
    31     7     8    2
    32    24    23   ar
    33    22    23   ar
    34    22    21    1
    35    10    21    1
    36    10     9    2
    37     8     9    1
