@<TRIPOS>MOLECULE
2euh_NAP_A_1.pdb
 48 52 0 0 0
SMALL
GASTEIGER

@<TRIPOS>ATOM
      1  PA        31.0330   53.2970   19.6580 P.3   476  NAP476      0.2189
      2  O1A       31.1600   51.8650   19.3150 O.2   476  NAP476     -0.5170
      3  O2A       29.7970   54.0640   19.3900 O.3   476  NAP476     -0.4371
      4  O5B       32.2020   54.1070   18.9170 O.3   476  NAP476     -0.3112
      5  C5B       33.6330   54.0330   19.0990 C.3   476  NAP476      0.1813
      6  C4B       34.2460   54.7450   17.9110 C.3   476  NAP476      0.1820
      7  O4B       33.8810   54.0200   16.7280 O.3   476  NAP476     -0.3136
      8  C3B       33.8540   56.1770   17.5690 C.3   476  NAP476      0.2157
      9  O3B       35.1010   56.7920   17.2440 O.3   476  NAP476     -0.2175
     10  C2B       32.8670   56.1610   16.3850 C.3   476  NAP476      0.2314
     11  O2B       32.8790   57.3750   15.5470 O.3   476  NAP476     -0.2630
     12  C1B       33.3930   54.9120   15.6780 C.3   476  NAP476      0.3158
     13  N9A       32.5150   54.1620   14.6980 N.pl3 476  NAP476     -0.1439
     14  C8A       31.1720   53.9860   14.6810 C.3   476  NAP476      0.3377
     15  N7A       30.8220   53.0360   13.8020 N.2   476  NAP476     -0.2095
     16  C5A       31.9680   52.5930   13.2860 C.2   476  NAP476      0.2526
     17  C6A       32.1640   51.7120   12.1860 C.2   476  NAP476      0.4393
     18  N6A       31.1710   50.9950   11.6560 N.pl3 476  NAP476      0.2180
     19  N1A       33.4360   51.5990   11.6780 N.2   476  NAP476      0.0021
     20  C2A       34.4830   52.2640   12.2080 C.3   476  NAP476      0.5254
     21  N3A       34.2910   53.1030   13.2500 N.2   476  NAP476     -0.0055
     22  C4A       33.0500   53.3040   13.8040 C.2   476  NAP476      0.3518
     23  O3        31.5880   53.5880   21.1810 O.3   476  NAP476     -0.2703
     24  PN        31.7300   54.9440   22.1510 P.3   476  NAP476      0.2189
     25  O1N       30.2950   55.3480   22.0980 O.3   476  NAP476     -0.4371
     26  O2N       32.7880   55.8690   21.6580 O.2   476  NAP476     -0.5170
     27  O5D       32.2930   54.4570   23.6610 O.3   476  NAP476     -0.3112
     28  C5D       31.4690   53.8060   24.6420 C.3   476  NAP476      0.1813
     29  C4D       31.6990   52.2980   24.5560 C.3   476  NAP476      0.1799
     30  O4D       33.1310   52.0550   24.5040 O.3   476  NAP476     -0.3327
     31  C3D       31.1850   51.5380   25.7880 C.3   476  NAP476      0.2158
     32  O3D       30.5080   50.3170   25.5050 O.3   476  NAP476     -0.2175
     33  C2D       32.4390   51.3360   26.6380 C.3   476  NAP476      0.2309
     34  O2D       32.5060   50.4520   27.7770 O.3   476  NAP476     -0.2158
     35  C1D       33.5420   51.2190   25.6130 C.3   476  NAP476      0.2263
     36  N1N       34.8620   51.6340   26.1720 N.pl3 476  NAP476     -0.2787
     37  C2N       35.8770   50.6380   26.1280 C.3   476  NAP476      0.1244
     38  C3N       37.1810   50.9460   26.5740 C.2   476  NAP476      0.0544
     39  C7N       38.1940   49.8320   26.9260 C.2   476  NAP476      0.2818
     40  O7N       39.3580   50.1560   27.1710 O.2   476  NAP476     -0.2670
     41  N7N       37.7600   48.5580   26.9460 N.am  476  NAP476     -0.0839
     42  C4N       37.4450   52.3090   26.9410 C.2   476  NAP476      0.0033
     43  C5N       36.4550   53.3330   26.9540 C.2   476  NAP476      0.0157
     44  C6N       35.1450   52.9870   26.5900 C.2   476  NAP476      0.0633
     45  P2B       31.4090   58.1480   15.6600 P.3   476  NAP476      0.5328
     46  O1X       30.3220   57.1530   15.7180 O.3   476  NAP476     -0.1145
     47  O2X       31.4690   59.1720   16.7290 O.3   476  NAP476     -0.1145
     48  O3X       31.2080   58.8980   14.2270 O.2   476  NAP476     -0.2224
@<TRIPOS>BOND
     1    18    17    1
     2    19    17    2
     3    19    20    1
     4    17    16    1
     5    20    21    1
     6    21    22    2
     7    16    15    2
     8    16    22    1
     9    15    14    1
    10    22    13    1
    11    48    45    2
    12    14    13    1
    13    13    12    1
    14    11    45    1
    15    11    10    1
    16    45    46    1
    17    45    47    1
    18    12    10    1
    19    12     7    1
    20    10     8    1
    21     7     6    1
    22     9     8    1
    23     8     6    1
    24     6     5    1
    25     4     5    1
    26     4     1    1
    27     2     1    2
    28     3     1    1
    29     1    23    1
    30    23    24    1
    31    26    24    2
    32    25    24    1
    33    24    27    1
    34    27    28    1
    35    30    29    1
    36    30    35    1
    37    29    28    1
    38    29    31    1
    39    32    31    1
    40    35    36    1
    41    35    33    1
    42    31    33    1
    43    37    36    1
    44    37    38    1
    45    36    44    1
    46    38    39    1
    47    38    42    2
    48    44    43    2
    49    33    34    1
    50    39    41   am
    51    39    40    2
    52    42    43    1
