@<TRIPOS>MOLECULE
2euk_GAL_A_1.pdb
 12 12 0 0 0
SMALL
GASTEIGER

@<TRIPOS>ATOM
      1  C1        22.9440    0.3820   18.4070 C.3   300  GAL300      0.3024
      2  C2        22.3620    1.7500   18.7720 C.3   300  GAL300      0.2434
      3  C3        22.9670    2.8400   17.8780 C.3   300  GAL300      0.2199
      4  C4        24.4950    2.7710   17.9010 C.3   300  GAL300      0.2144
      5  C5        24.9290    1.3390   17.5850 C.3   300  GAL300      0.1836
      6  C6        26.4600    1.1890   17.5770 C.3   300  GAL300      0.2142
      7  O1        22.4330   -0.6140   19.2390 O.3   300  GAL300     -0.1869
      8  O2        20.9690    1.6330   18.5890 O.3   300  GAL300     -0.2148
      9  O3        22.5800    4.1150   18.3260 O.3   300  GAL300     -0.2174
     10  O4        24.9290    3.2090   19.1820 O.3   300  GAL300     -0.2176
     11  O5        24.3610    0.3760   18.4500 O.3   300  GAL300     -0.3236
     12  O6        26.7980   -0.0570   17.0080 O.3   300  GAL300     -0.2176
@<TRIPOS>BOND
     1    12     6    1
     2     6     5    1
     3     5     4    1
     4     5    11    1
     5     3     4    1
     6     3     9    1
     7     3     2    1
     8     4    10    1
     9     1    11    1
    10     1     2    1
    11     1     7    1
    12     8     2    1
