@<TRIPOS>MOLECULE
2eum_SPH_A_1.pdb
 20 19 0 0 0
SMALL
GASTEIGER

@<TRIPOS>ATOM
      1  C1        22.4550   -1.9540   18.8780 C.3   301  SPH301      0.0236
      2  C2        21.4090   -2.8080   19.5940 C.3   301  SPH301      0.1263
      3  N2        20.0710   -2.4560   19.1420 N.3   301  SPH301     -0.1299
      4  C3        21.4890   -2.7060   21.1180 C.3   301  SPH301      0.1911
      5  O3        22.7740   -3.1820   21.5490 O.3   301  SPH301     -0.2168
      6  C4        20.3670   -3.4920   21.8030 C.2   301  SPH301      0.0030
      7  C5        19.6240   -2.9360   22.7680 C.2   301  SPH301     -0.0282
      8  C6        18.6120   -3.7680   23.5650 C.3   301  SPH301      0.0258
      9  C7        19.1370   -4.2180   24.9380 C.3   301  SPH301      0.0047
     10  C8        19.9870   -5.4950   24.8630 C.3   301  SPH301      0.0003
     11  C9        21.2270   -5.4280   25.7440 C.3   301  SPH301      0.0000
     12  C10       21.1970   -6.5340   26.7970 C.3   301  SPH301      0.0000
     13  C11       21.9660   -6.1340   28.0510 C.3   301  SPH301      0.0000
     14  C12       21.4340   -6.8580   29.2820 C.3   301  SPH301      0.0000
     15  C13       21.8150   -6.1620   30.5900 C.3   301  SPH301      0.0000
     16  C14       22.9020   -6.9260   31.3480 C.3   301  SPH301      0.0000
     17  C15       22.3400   -7.8550   32.4240 C.3   301  SPH301      0.0000
     18  C16       21.8090   -7.1110   33.6480 C.3   301  SPH301      0.0000
     19  C17       21.6820   -8.0150   34.8730 C.3   301  SPH301      0.0000
     20  C18       21.5260   -7.1820   36.1290 C.3   301  SPH301      0.0000
@<TRIPOS>BOND
     1     1     2    1
     2     3     2    1
     3     2     4    1
     4     4     5    1
     5     4     6    1
     6     6     7    2
     7     7     8    1
     8     8     9    1
     9    10     9    1
    10    10    11    1
    11    11    12    1
    12    12    13    1
    13    13    14    1
    14    14    15    1
    15    15    16    1
    16    16    17    1
    17    17    18    1
    18    18    19    1
    19    19    20    1
