@<TRIPOS>MOLECULE
2eum_LAT_A_1.pdb
 23 24 0 0 0
SMALL
GASTEIGER

@<TRIPOS>ATOM
      1  C1        25.8640    4.6460   17.4650 C.3   300  LAT300      0.2695
      2  C2        25.2490    5.7780   18.2860 C.3   300  LAT300      0.2406
      3  C3        26.3210    6.8080   18.6700 C.3   300  LAT300      0.2198
      4  C4        27.5250    6.1170   19.3180 C.3   300  LAT300      0.2144
      5  C5        27.9740    4.9940   18.3790 C.3   300  LAT300      0.1835
      6  C6        29.2470    4.2700   18.8030 C.3   300  LAT300      0.2142
      7  O1        24.9230    3.6620   17.0940 O.3   300  LAT300     -0.3257
      8  O2        24.2490    6.3890   17.5110 O.3   300  LAT300     -0.2149
      9  O3        25.7900    7.8130   19.5120 O.3   300  LAT300     -0.2174
     10  O4        27.1970    5.6300   20.6050 O.3   300  LAT300     -0.2176
     11  O5        26.9300    4.0550   18.1710 O.3   300  LAT300     -0.3256
     12  O6        29.8360    3.7960   17.6030 O.3   300  LAT300     -0.2176
     13  C1'       23.0680    0.4620   19.0850 C.3   300  LAT300      0.3023
     14  C2'       22.2710    1.7800   18.9350 C.3   300  LAT300      0.2433
     15  C3'       22.9050    2.8030   17.9950 C.3   300  LAT300      0.2168
     16  C4'       24.4280    2.7250   18.0200 C.3   300  LAT300      0.1804
     17  C5'       24.8770    1.3300   17.5750 C.3   300  LAT300      0.1804
     18  C6'       26.3930    1.1380   17.7220 C.3   300  LAT300      0.2141
     19  O1'       22.2120   -0.6450   18.9530 O.3   300  LAT300     -0.1869
     20  O2'       20.9330    1.5440   18.5410 O.3   300  LAT300     -0.2148
     21  O3'       22.4600    4.1050   18.3100 O.3   300  LAT300     -0.2175
     22  O5'       24.1990    0.2550   18.2350 O.3   300  LAT300     -0.3237
     23  O6'       26.7820    0.0230   16.9410 O.3   300  LAT300     -0.2176
@<TRIPOS>BOND
     1    23    18    1
     2     7     1    1
     3     7    16    1
     4     1    11    1
     5     1     2    1
     6     8     2    1
     7    17    18    1
     8    17    16    1
     9    17    22    1
    10    12     6    1
    11    15    16    1
    12    15    21    1
    13    15    14    1
    14    11     5    1
    15    22    13    1
    16     2     3    1
    17     5     6    1
    18     5     4    1
    19    20    14    1
    20     3     4    1
    21     3     9    1
    22    14    13    1
    23    19    13    1
    24     4    10    1
