@<TRIPOS>MOLECULE
2eun_HEM_A_1.pdb
 43 50 0 0 0
SMALL
GASTEIGER

@<TRIPOS>ATOM
      1 FE         -9.2630   75.1500   20.4690 Fe    295  HEM295      0.0000
      2  CHA      -10.5360   72.0280   20.6140 C.2   295  HEM295      0.0000
      3  CHB      -11.9570   76.1540   18.4790 C.2   295  HEM295      0.0000
      4  CHC       -7.9680   78.3010   20.2790 C.2   295  HEM295      0.0000
      5  CHD       -6.8530   74.2990   22.7740 C.2   295  HEM295      0.0000
      6  NA       -10.9020   74.2920   19.7210 N.ar  295  HEM295      0.0000
      7  C1A      -11.2130   72.9720   19.8880 C.ar  295  HEM295      0.0000
      8  C2A      -12.4940   72.7280   19.2970 C.ar  295  HEM295      0.0000
      9  C3A      -12.8770   73.8790   18.7280 C.ar  295  HEM295      0.0000
     10  C4A      -11.8760   74.8700   18.9450 C.ar  295  HEM295      0.0000
     11  CMA      -14.1480   74.1230   17.9110 C.3   295  HEM295      0.0000
     12  CAA      -13.2810   71.4090   19.3210 C.3   295  HEM295      0.0000
     13  CBA      -14.1090   71.2290   20.6220 C.3   295  HEM295      0.0000
     14  CGA      -14.8180   69.9060   20.6670 C.2   295  HEM295      0.0000
     15  O1A      -15.6100   69.6260   19.7060 O.co2 295  HEM295      0.0000
     16  O2A      -14.6430   69.1430   21.6480 O.co2 295  HEM295      0.0000
     17  NB        -9.8490   76.8940   19.5340 N.2   295  HEM295      0.0000
     18  C1B      -10.9520   77.0900   18.7380 C.2   295  HEM295      0.0000
     19  C2B      -10.9170   78.4350   18.1790 C.2   295  HEM295      0.0000
     20  C3B       -9.8310   79.0490   18.6800 C.2   295  HEM295      0.0000
     21  C4B       -9.1470   78.0980   19.5670 C.2   295  HEM295      0.0000
     22  CMB      -12.0090   78.9060   17.1960 C.3   295  HEM295      0.0000
     23  CAB       -9.2950   80.4520   18.3940 C.2   295  HEM295      0.0000
     24  CBB       -9.3750   80.9440   17.1800 C.2   295  HEM295      0.0000
     25  NC        -7.7390   76.1110   21.3660 N.ar  295  HEM295      0.0000
     26  C1C       -7.3930   77.4150   21.1460 C.ar  295  HEM295      0.0000
     27  C2C       -6.3030   77.7430   22.0410 C.ar  295  HEM295      0.0000
     28  C3C       -6.0090   76.6390   22.7610 C.ar  295  HEM295      0.0000
     29  C4C       -6.8930   75.5980   22.3200 C.ar  295  HEM295      0.0000
     30  CMC       -5.7120   79.1240   22.1610 C.3   295  HEM295      0.0000
     31  CAC       -4.9830   76.4260   23.8900 C.2   295  HEM295      0.0000
     32  CBC       -3.7760   76.9640   23.9850 C.2   295  HEM295      0.0000
     33  ND        -8.9250   73.4970   21.5170 N.2   295  HEM295      0.0000
     34  C1D       -7.7340   73.3570   22.2510 C.2   295  HEM295      0.0000
     35  C2D       -7.5590   71.9750   22.5930 C.2   295  HEM295      0.0000
     36  C3D       -8.6610   71.2520   21.9100 C.2   295  HEM295      0.0000
     37  C4D       -9.4020   72.2660   21.2770 C.2   295  HEM295      0.0000
     38  CMD       -6.3770   71.3690   23.3750 C.3   295  HEM295      0.0000
     39  CAD       -8.9380   69.7520   21.9270 C.3   295  HEM295      0.0000
     40  CBD       -9.9260   69.4360   23.0870 C.3   295  HEM295      0.0000
     41  CGD      -10.3220   67.9650   23.2160 C.2   295  HEM295      0.0000
     42  O1D      -11.2590   67.6230   24.0020 O.co2 295  HEM295      0.0000
     43  O2D       -9.7890   67.0990   22.5480 O.co2 295  HEM295      0.0000
@<TRIPOS>BOND
     1    24    23    2
     2    22    19    1
     3    11     9    1
     4    19    20    2
     5    19    18    1
     6    23    20    1
     7     3    18    1
     8     3    10    2
     9    20    21    1
    10     9    10   ar
    11     9     8   ar
    12    18    17    2
    13    10     6   ar
    14     8    12    1
    15     8     7   ar
    16    12    13    1
    17    17    21    1
    18    17     1    1
    19    21     4    2
    20    15    14   ar
    21     6     7   ar
    22     6     1    1
    23     7     2    2
    24     4    26    1
    25     1    25    1
    26     1    33    1
    27     2    37    1
    28    13    14    1
    29    14    16   ar
    30    26    25   ar
    31    26    27   ar
    32    37    33    2
    33    37    36    1
    34    25    29   ar
    35    33    34    1
    36    36    39    1
    37    36    35    2
    38    39    40    1
    39    27    30    1
    40    27    28   ar
    41    34    35    1
    42    34     5    2
    43    29    28   ar
    44    29     5    1
    45    43    41   ar
    46    35    38    1
    47    28    31    1
    48    40    41    1
    49    41    42   ar
    50    31    32    2
