@<TRIPOS>MOLECULE
2euo_HEM_A_1.pdb
 43 50 0 0 0
SMALL
GASTEIGER

@<TRIPOS>ATOM
      1 FE         -9.3560   75.0170   20.2280 Fe    295  HEM295      0.0000
      2  CHA      -10.6790   71.8620   20.4780 C.2   295  HEM295      0.0000
      3  CHB      -12.0010   75.9910   18.2670 C.2   295  HEM295      0.0000
      4  CHC       -8.0530   78.1720   19.9840 C.2   295  HEM295      0.0000
      5  CHD       -6.8600   74.1820   22.4870 C.2   295  HEM295      0.0000
      6  NA       -11.0370   74.1190   19.5220 N.ar  295  HEM295      0.0000
      7  C1A      -11.3810   72.7920   19.7430 C.ar  295  HEM295      0.0000
      8  C2A      -12.6790   72.5720   19.1360 C.ar  295  HEM295      0.0000
      9  C3A      -13.0330   73.6980   18.4900 C.ar  295  HEM295      0.0000
     10  C4A      -12.0090   74.7000   18.7160 C.ar  295  HEM295      0.0000
     11  CMA      -14.3360   73.9520   17.6800 C.3   295  HEM295      0.0000
     12  CAA      -13.4100   71.2110   19.2140 C.3   295  HEM295      0.0000
     13  CBA      -14.1760   71.1060   20.5400 C.3   295  HEM295      0.0000
     14  CGA      -14.8420   69.7390   20.5900 C.2   295  HEM295      0.0000
     15  O1A      -15.5270   69.3790   19.5800 O.co2 295  HEM295      0.0000
     16  O2A      -14.6340   68.9730   21.5640 O.co2 295  HEM295      0.0000
     17  NB        -9.9350   76.7400   19.2930 N.2   295  HEM295      0.0000
     18  C1B      -11.0320   76.9270   18.5180 C.2   295  HEM295      0.0000
     19  C2B      -10.9880   78.2520   17.9570 C.2   295  HEM295      0.0000
     20  C3B       -9.8800   78.8690   18.4070 C.2   295  HEM295      0.0000
     21  C4B       -9.2240   77.9270   19.2970 C.2   295  HEM295      0.0000
     22  CMB      -12.0460   78.8110   16.9830 C.3   295  HEM295      0.0000
     23  CAB       -9.3330   80.2840   18.1370 C.2   295  HEM295      0.0000
     24  CBB       -9.4940   80.9130   16.9600 C.2   295  HEM295      0.0000
     25  NC        -7.8220   75.9860   21.1040 N.ar  295  HEM295      0.0000
     26  C1C       -7.4780   77.3020   20.8830 C.ar  295  HEM295      0.0000
     27  C2C       -6.3660   77.6360   21.7750 C.ar  295  HEM295      0.0000
     28  C3C       -6.0620   76.5350   22.4560 C.ar  295  HEM295      0.0000
     29  C4C       -6.9410   75.4710   22.0190 C.ar  295  HEM295      0.0000
     30  CMC       -5.7940   79.0590   21.8770 C.3   295  HEM295      0.0000
     31  CAC       -5.0490   76.3010   23.5810 C.2   295  HEM295      0.0000
     32  CBC       -3.8310   76.8450   23.5750 C.2   295  HEM295      0.0000
     33  ND        -8.9850   73.3420   21.3320 N.2   295  HEM295      0.0000
     34  C1D       -7.7240   73.1810   22.0570 C.2   295  HEM295      0.0000
     35  C2D       -7.5550   71.7760   22.3740 C.2   295  HEM295      0.0000
     36  C3D       -8.7380   71.0820   21.7440 C.2   295  HEM295      0.0000
     37  C4D       -9.5110   72.1100   21.1250 C.2   295  HEM295      0.0000
     38  CMD       -6.3640   71.1940   23.1490 C.3   295  HEM295      0.0000
     39  CAD       -9.0270   69.5820   21.7990 C.3   295  HEM295      0.0000
     40  CBD       -9.9350   69.2360   22.9870 C.3   295  HEM295      0.0000
     41  CGD      -10.2840   67.7610   23.0730 C.2   295  HEM295      0.0000
     42  O1D      -11.2140   67.4670   23.8880 O.co2 295  HEM295      0.0000
     43  O2D       -9.6650   66.9260   22.3690 O.co2 295  HEM295      0.0000
@<TRIPOS>BOND
     1    24    23    2
     2    22    19    1
     3    11     9    1
     4    19    20    2
     5    19    18    1
     6    23    20    1
     7     3    18    1
     8     3    10    2
     9    20    21    1
    10     9    10   ar
    11     9     8   ar
    12    18    17    2
    13    10     6   ar
    14     8    12    1
    15     8     7   ar
    16    12    13    1
    17    17    21    1
    18    17     1    1
    19    21     4    2
    20     6     7   ar
    21     6     1    1
    22    15    14   ar
    23     7     2    2
    24     4    26    1
    25     1    25    1
    26     1    33    1
    27     2    37    1
    28    13    14    1
    29    14    16   ar
    30    26    25   ar
    31    26    27   ar
    32    25    29   ar
    33    37    33    2
    34    37    36    1
    35    33    34    1
    36    36    39    1
    37    36    35    2
    38    27    30    1
    39    27    28   ar
    40    39    40    1
    41    29    28   ar
    42    29     5    1
    43    34    35    1
    44    34     5    2
    45    43    41   ar
    46    35    38    1
    47    28    31    1
    48    40    41    1
    49    41    42   ar
    50    32    31    2
