@<TRIPOS>MOLECULE
2eup_HEM_A_1.pdb
 43 50 0 0 0
SMALL
GASTEIGER

@<TRIPOS>ATOM
      1 FE         -9.3420   74.9150   20.3900 Fe    295  HEM295      0.0000
      2  CHA      -10.7300   71.7470   20.6810 C.2   295  HEM295      0.0000
      3  CHB      -12.0010   75.8820   18.4430 C.2   295  HEM295      0.0000
      4  CHC       -8.0460   78.0590   20.1420 C.2   295  HEM295      0.0000
      5  CHD       -6.8430   74.0580   22.6210 C.2   295  HEM295      0.0000
      6  NA       -11.0300   74.0150   19.7070 N.ar  295  HEM295      0.0000
      7  C1A      -11.3990   72.7000   19.9390 C.ar  295  HEM295      0.0000
      8  C2A      -12.6780   72.4830   19.2950 C.ar  295  HEM295      0.0000
      9  C3A      -13.0260   73.6050   18.6580 C.ar  295  HEM295      0.0000
     10  C4A      -11.9900   74.5850   18.9080 C.ar  295  HEM295      0.0000
     11  CMA      -14.3100   73.8460   17.8160 C.3   295  HEM295      0.0000
     12  CAA      -13.4200   71.1470   19.3520 C.3   295  HEM295      0.0000
     13  CBA      -14.1680   70.9690   20.6710 C.3   295  HEM295      0.0000
     14  CGA      -14.8640   69.6240   20.6650 C.2   295  HEM295      0.0000
     15  O1A      -15.6180   69.3090   19.6870 O.co2 295  HEM295      0.0000
     16  O2A      -14.6520   68.8770   21.6490 O.co2 295  HEM295      0.0000
     17  NB        -9.9240   76.6360   19.4410 N.2   295  HEM295      0.0000
     18  C1B      -11.0420   76.8210   18.6580 C.2   295  HEM295      0.0000
     19  C2B      -10.9870   78.1470   18.1050 C.2   295  HEM295      0.0000
     20  C3B       -9.8710   78.7330   18.5570 C.2   295  HEM295      0.0000
     21  C4B       -9.2100   77.8330   19.4530 C.2   295  HEM295      0.0000
     22  CMB      -12.0470   78.6970   17.1430 C.3   295  HEM295      0.0000
     23  CAB       -9.3750   80.1420   18.2720 C.2   295  HEM295      0.0000
     24  CBB       -9.6080   80.7790   17.1240 C.2   295  HEM295      0.0000
     25  NC        -7.7740   75.8770   21.2560 N.ar  295  HEM295      0.0000
     26  C1C       -7.4250   77.1800   21.0230 C.ar  295  HEM295      0.0000
     27  C2C       -6.3280   77.5150   21.9210 C.ar  295  HEM295      0.0000
     28  C3C       -5.9840   76.4250   22.6110 C.ar  295  HEM295      0.0000
     29  C4C       -6.8960   75.3710   22.1870 C.ar  295  HEM295      0.0000
     30  CMC       -5.7440   78.9280   21.9820 C.3   295  HEM295      0.0000
     31  CAC       -4.9170   76.2130   23.7020 C.2   295  HEM295      0.0000
     32  CBC       -3.6990   76.7370   23.6720 C.2   295  HEM295      0.0000
     33  ND        -9.0010   73.2410   21.5220 N.2   295  HEM295      0.0000
     34  C1D       -7.7310   73.0720   22.2280 C.2   295  HEM295      0.0000
     35  C2D       -7.5570   71.6750   22.5410 C.2   295  HEM295      0.0000
     36  C3D       -8.7400   70.9810   21.9550 C.2   295  HEM295      0.0000
     37  C4D       -9.5420   72.0050   21.3390 C.2   295  HEM295      0.0000
     38  CMD       -6.4020   71.0480   23.2880 C.3   295  HEM295      0.0000
     39  CAD       -9.0410   69.4920   22.0030 C.3   295  HEM295      0.0000
     40  CBD       -9.9710   69.1590   23.1700 C.3   295  HEM295      0.0000
     41  CGD      -10.3660   67.6970   23.2390 C.2   295  HEM295      0.0000
     42  O1D      -11.2710   67.3820   24.0580 O.co2 295  HEM295      0.0000
     43  O2D       -9.8220   66.8600   22.5000 O.co2 295  HEM295      0.0000
@<TRIPOS>BOND
     1    24    23    2
     2    22    19    1
     3    11     9    1
     4    19    20    2
     5    19    18    1
     6    23    20    1
     7     3    18    1
     8     3    10    2
     9    20    21    1
    10    18    17    2
    11     9    10   ar
    12     9     8   ar
    13    10     6   ar
    14     8    12    1
    15     8     7   ar
    16    12    13    1
    17    17    21    1
    18    17     1    1
    19    21     4    2
    20    15    14   ar
    21     6     7   ar
    22     6     1    1
    23     7     2    2
    24     4    26    1
    25     1    25    1
    26     1    33    1
    27    14    13    1
    28    14    16   ar
    29     2    37    1
    30    26    25   ar
    31    26    27   ar
    32    25    29   ar
    33    37    33    2
    34    37    36    1
    35    33    34    1
    36    27    30    1
    37    27    28   ar
    38    36    39    1
    39    36    35    2
    40    39    40    1
    41    29    28   ar
    42    29     5    1
    43    34    35    1
    44    34     5    2
    45    43    41   ar
    46    35    38    1
    47    28    31    1
    48    40    41    1
    49    41    42   ar
    50    32    31    2
