@<TRIPOS>MOLECULE
2euq_HEM_A_1.pdb
 43 50 0 0 0
SMALL
GASTEIGER

@<TRIPOS>ATOM
      1 FE         -9.2330   75.5050   20.5780 Fe    295  HEM295      0.0000
      2  CHA      -10.5320   72.3360   20.7340 C.2   295  HEM295      0.0000
      3  CHB      -11.8660   76.4480   18.5770 C.2   295  HEM295      0.0000
      4  CHC       -7.9540   78.6510   20.3800 C.2   295  HEM295      0.0000
      5  CHD       -6.7930   74.6590   22.8290 C.2   295  HEM295      0.0000
      6  NA       -10.8910   74.5880   19.8360 N.ar  295  HEM295      0.0000
      7  C1A      -11.2280   73.2710   20.0280 C.ar  295  HEM295      0.0000
      8  C2A      -12.4760   73.0200   19.3450 C.ar  295  HEM295      0.0000
      9  C3A      -12.8460   74.1540   18.7290 C.ar  295  HEM295      0.0000
     10  C4A      -11.8480   75.1480   19.0300 C.ar  295  HEM295      0.0000
     11  CMA      -14.1050   74.4320   17.8940 C.3   295  HEM295      0.0000
     12  CAA      -13.2140   71.6690   19.3820 C.3   295  HEM295      0.0000
     13  CBA      -14.0190   71.5310   20.6810 C.3   295  HEM295      0.0000
     14  CGA      -14.7260   70.2030   20.7050 C.2   295  HEM295      0.0000
     15  O1A      -15.4480   69.9180   19.7120 O.co2 295  HEM295      0.0000
     16  O2A      -14.5560   69.4220   21.6770 O.co2 295  HEM295      0.0000
     17  NB        -9.8050   77.2130   19.6320 N.2   295  HEM295      0.0000
     18  C1B      -10.9040   77.3970   18.8400 C.2   295  HEM295      0.0000
     19  C2B      -10.8660   78.7290   18.2980 C.2   295  HEM295      0.0000
     20  C3B       -9.7740   79.3470   18.7840 C.2   295  HEM295      0.0000
     21  C4B       -9.0970   78.4030   19.6550 C.2   295  HEM295      0.0000
     22  CMB      -11.9310   79.2840   17.3440 C.3   295  HEM295      0.0000
     23  CAB       -9.2710   80.7720   18.5290 C.2   295  HEM295      0.0000
     24  CBB       -9.4810   81.4220   17.3770 C.2   295  HEM295      0.0000
     25  NC        -7.7030   76.4700   21.4800 N.ar  295  HEM295      0.0000
     26  C1C       -7.3660   77.7780   21.2650 C.ar  295  HEM295      0.0000
     27  C2C       -6.2860   78.1120   22.1640 C.ar  295  HEM295      0.0000
     28  C3C       -5.9620   77.0100   22.8610 C.ar  295  HEM295      0.0000
     29  C4C       -6.8350   75.9540   22.4120 C.ar  295  HEM295      0.0000
     30  CMC       -5.6840   79.5180   22.3060 C.3   295  HEM295      0.0000
     31  CAC       -4.9170   76.8180   23.9680 C.2   295  HEM295      0.0000
     32  CBC       -3.7040   77.3620   23.9550 C.2   295  HEM295      0.0000
     33  ND        -8.8700   73.8180   21.6560 N.2   295  HEM295      0.0000
     34  C1D       -7.6320   73.6640   22.4000 C.2   295  HEM295      0.0000
     35  C2D       -7.4610   72.2720   22.7080 C.2   295  HEM295      0.0000
     36  C3D       -8.5940   71.5530   22.0590 C.2   295  HEM295      0.0000
     37  C4D       -9.3730   72.5820   21.4220 C.2   295  HEM295      0.0000
     38  CMD       -6.3240   71.6580   23.4930 C.3   295  HEM295      0.0000
     39  CAD       -8.8450   70.0430   22.0980 C.3   295  HEM295      0.0000
     40  CBD       -9.8720   69.7060   23.1900 C.3   295  HEM295      0.0000
     41  CGD      -10.2630   68.2450   23.2490 C.2   295  HEM295      0.0000
     42  O1D      -11.1810   67.9310   24.0590 O.co2 295  HEM295      0.0000
     43  O2D       -9.6990   67.4180   22.5020 O.co2 295  HEM295      0.0000
@<TRIPOS>BOND
     1    22    19    1
     2    24    23    2
     3    11     9    1
     4    19    20    2
     5    19    18    1
     6    23    20    1
     7     3    18    1
     8     3    10    2
     9     9    10   ar
    10     9     8   ar
    11    20    21    1
    12    18    17    2
    13    10     6   ar
    14     8    12    1
    15     8     7   ar
    16    12    13    1
    17    17    21    1
    18    17     1    1
    19    21     4    2
    20    15    14   ar
    21     6     7   ar
    22     6     1    1
    23     7     2    2
    24     4    26    1
    25     1    25    1
    26     1    33    1
    27    13    14    1
    28    14    16   ar
    29     2    37    1
    30    26    25   ar
    31    26    27   ar
    32    37    33    2
    33    37    36    1
    34    25    29   ar
    35    33    34    1
    36    36    39    1
    37    36    35    2
    38    39    40    1
    39    27    30    1
    40    27    28   ar
    41    34    35    1
    42    34     5    2
    43    29     5    1
    44    29    28   ar
    45    43    41   ar
    46    35    38    1
    47    28    31    1
    48    40    41    1
    49    41    42   ar
    50    32    31    2
