@<TRIPOS>MOLECULE
2eur_HEM_A_1.pdb
 43 50 0 0 0
SMALL
GASTEIGER

@<TRIPOS>ATOM
      1 FE         -9.4190   75.0480   20.2200 Fe    295  HEM295      0.0000
      2  CHA      -10.7200   71.8910   20.4340 C.2   295  HEM295      0.0000
      3  CHB      -12.1340   75.9870   18.3210 C.2   295  HEM295      0.0000
      4  CHC       -8.1850   78.2140   20.0300 C.2   295  HEM295      0.0000
      5  CHD       -6.9380   74.2090   22.4800 C.2   295  HEM295      0.0000
      6  NA       -11.1180   74.1310   19.5320 N.ar  295  HEM295      0.0000
      7  C1A      -11.4530   72.8170   19.7440 C.ar  295  HEM295      0.0000
      8  C2A      -12.7430   72.5590   19.1480 C.ar  295  HEM295      0.0000
      9  C3A      -13.1220   73.6780   18.5310 C.ar  295  HEM295      0.0000
     10  C4A      -12.1090   74.6870   18.7550 C.ar  295  HEM295      0.0000
     11  CMA      -14.4260   73.9500   17.7600 C.3   295  HEM295      0.0000
     12  CAA      -13.4690   71.2160   19.2210 C.3   295  HEM295      0.0000
     13  CBA      -14.2580   71.1150   20.5310 C.3   295  HEM295      0.0000
     14  CGA      -14.9150   69.7520   20.5810 C.2   295  HEM295      0.0000
     15  O1A      -15.6800   69.4060   19.6300 O.co2 295  HEM295      0.0000
     16  O2A      -14.6890   68.9940   21.5590 O.co2 295  HEM295      0.0000
     17  NB       -10.0500   76.7800   19.3150 N.2   295  HEM295      0.0000
     18  C1B      -11.1740   76.9530   18.5410 C.2   295  HEM295      0.0000
     19  C2B      -11.0870   78.2640   17.9350 C.2   295  HEM295      0.0000
     20  C3B       -9.9890   78.8750   18.3990 C.2   295  HEM295      0.0000
     21  C4B       -9.3430   77.9780   19.3270 C.2   295  HEM295      0.0000
     22  CMB      -12.1290   78.7800   16.9480 C.3   295  HEM295      0.0000
     23  CAB       -9.4700   80.2730   18.0700 C.2   295  HEM295      0.0000
     24  CBB       -9.7630   80.8840   16.9270 C.2   295  HEM295      0.0000
     25  NC        -7.8690   76.0340   21.1270 N.ar  295  HEM295      0.0000
     26  C1C       -7.5510   77.3520   20.9180 C.ar  295  HEM295      0.0000
     27  C2C       -6.4370   77.7100   21.8080 C.ar  295  HEM295      0.0000
     28  C3C       -6.1020   76.6030   22.4890 C.ar  295  HEM295      0.0000
     29  C4C       -6.9740   75.5280   22.0600 C.ar  295  HEM295      0.0000
     30  CMC       -5.8400   79.1260   21.9010 C.3   295  HEM295      0.0000
     31  CAC       -5.0320   76.4100   23.5800 C.2   295  HEM295      0.0000
     32  CBC       -3.8160   76.9460   23.5640 C.2   295  HEM295      0.0000
     33  ND        -9.0320   73.3540   21.3290 N.2   295  HEM295      0.0000
     34  C1D       -7.7740   73.1880   22.0500 C.2   295  HEM295      0.0000
     35  C2D       -7.6080   71.7820   22.3560 C.2   295  HEM295      0.0000
     36  C3D       -8.7470   71.0840   21.7090 C.2   295  HEM295      0.0000
     37  C4D       -9.5470   72.1180   21.1160 C.2   295  HEM295      0.0000
     38  CMD       -6.4430   71.1980   23.1240 C.3   295  HEM295      0.0000
     39  CAD       -9.0220   69.6000   21.7840 C.3   295  HEM295      0.0000
     40  CBD       -9.9610   69.2890   22.9480 C.3   295  HEM295      0.0000
     41  CGD      -10.2950   67.8270   23.0750 C.2   295  HEM295      0.0000
     42  O1D      -11.2150   67.5160   23.8750 O.co2 295  HEM295      0.0000
     43  O2D       -9.6750   66.9720   22.4260 O.co2 295  HEM295      0.0000
@<TRIPOS>BOND
     1    24    23    2
     2    22    19    1
     3    11     9    1
     4    19    20    2
     5    19    18    1
     6    23    20    1
     7     3    18    1
     8     3    10    2
     9    20    21    1
    10     9    10   ar
    11     9     8   ar
    12    18    17    2
    13    10     6   ar
    14     8    12    1
    15     8     7   ar
    16    12    13    1
    17    17    21    1
    18    17     1    1
    19    21     4    2
    20     6     7   ar
    21     6     1    1
    22    15    14   ar
    23     7     2    2
    24     4    26    1
    25     1    25    1
    26     1    33    1
    27     2    37    1
    28    13    14    1
    29    14    16   ar
    30    26    25   ar
    31    26    27   ar
    32    37    33    2
    33    37    36    1
    34    25    29   ar
    35    33    34    1
    36    36    39    1
    37    36    35    2
    38    39    40    1
    39    27    30    1
    40    27    28   ar
    41    34    35    1
    42    34     5    2
    43    29     5    1
    44    29    28   ar
    45    35    38    1
    46    43    41   ar
    47    28    31    1
    48    40    41    1
    49    41    42   ar
    50    32    31    2
