@<TRIPOS>MOLECULE
2eus_HEM_A_1.pdb
 43 50 0 0 0
SMALL
GASTEIGER

@<TRIPOS>ATOM
      1 FE         -9.2490   75.4930   20.5640 Fe    295  HEM295      0.0000
      2  CHA      -10.5630   72.3170   20.7460 C.2   295  HEM295      0.0000
      3  CHB      -11.8500   76.4160   18.5210 C.2   295  HEM295      0.0000
      4  CHC       -7.9550   78.6500   20.3520 C.2   295  HEM295      0.0000
      5  CHD       -6.8450   74.6460   22.8710 C.2   295  HEM295      0.0000
      6  NA       -10.8990   74.5640   19.8010 N.ar  295  HEM295      0.0000
      7  C1A      -11.2560   73.2500   20.0020 C.ar  295  HEM295      0.0000
      8  C2A      -12.5110   73.0330   19.2960 C.ar  295  HEM295      0.0000
      9  C3A      -12.8710   74.1560   18.6810 C.ar  295  HEM295      0.0000
     10  C4A      -11.8370   75.1240   18.9720 C.ar  295  HEM295      0.0000
     11  CMA      -14.1260   74.4150   17.8320 C.3   295  HEM295      0.0000
     12  CAA      -13.2690   71.6970   19.3270 C.3   295  HEM295      0.0000
     13  CBA      -13.9960   71.5220   20.6640 C.3   295  HEM295      0.0000
     14  CGA      -14.7370   70.2090   20.6680 C.2   295  HEM295      0.0000
     15  O1A      -15.4500   69.9090   19.6710 O.co2 295  HEM295      0.0000
     16  O2A      -14.6030   69.4030   21.6400 O.co2 295  HEM295      0.0000
     17  NB        -9.8070   77.1840   19.6030 N.2   295  HEM295      0.0000
     18  C1B      -10.9050   77.3550   18.8020 C.2   295  HEM295      0.0000
     19  C2B      -10.8720   78.6980   18.2680 C.2   295  HEM295      0.0000
     20  C3B       -9.7980   79.3070   18.7530 C.2   295  HEM295      0.0000
     21  C4B       -9.1000   78.3810   19.6210 C.2   295  HEM295      0.0000
     22  CMB      -11.8990   79.2960   17.3150 C.3   295  HEM295      0.0000
     23  CAB       -9.3320   80.7380   18.5070 C.2   295  HEM295      0.0000
     24  CBB       -9.5260   81.3820   17.3480 C.2   295  HEM295      0.0000
     25  NC        -7.7280   76.4480   21.4640 N.ar  295  HEM295      0.0000
     26  C1C       -7.3750   77.7570   21.2340 C.ar  295  HEM295      0.0000
     27  C2C       -6.3150   78.0870   22.1360 C.ar  295  HEM295      0.0000
     28  C3C       -6.0130   76.9970   22.8480 C.ar  295  HEM295      0.0000
     29  C4C       -6.8860   75.9390   22.4230 C.ar  295  HEM295      0.0000
     30  CMC       -5.6850   79.4890   22.2400 C.3   295  HEM295      0.0000
     31  CAC       -4.9690   76.7510   23.9500 C.2   295  HEM295      0.0000
     32  CBC       -3.7780   77.3150   23.9770 C.2   295  HEM295      0.0000
     33  ND        -8.9150   73.8060   21.6730 N.2   295  HEM295      0.0000
     34  C1D       -7.6720   73.6590   22.4170 C.2   295  HEM295      0.0000
     35  C2D       -7.4950   72.2570   22.7440 C.2   295  HEM295      0.0000
     36  C3D       -8.6050   71.5390   22.0980 C.2   295  HEM295      0.0000
     37  C4D       -9.4210   72.5560   21.4550 C.2   295  HEM295      0.0000
     38  CMD       -6.3440   71.6310   23.5210 C.3   295  HEM295      0.0000
     39  CAD       -8.8630   70.0290   22.1520 C.3   295  HEM295      0.0000
     40  CBD       -9.9330   69.7010   23.2140 C.3   295  HEM295      0.0000
     41  CGD      -10.3190   68.2250   23.2810 C.2   295  HEM295      0.0000
     42  O1D      -11.2300   67.9000   24.0830 O.co2 295  HEM295      0.0000
     43  O2D       -9.7570   67.3980   22.5470 O.co2 295  HEM295      0.0000
@<TRIPOS>BOND
     1    22    19    1
     2    24    23    2
     3    11     9    1
     4    19    20    2
     5    19    18    1
     6    23    20    1
     7     3    18    1
     8     3    10    2
     9     9    10   ar
    10     9     8   ar
    11    20    21    1
    12    18    17    2
    13    10     6   ar
    14     8    12    1
    15     8     7   ar
    16    12    13    1
    17    17    21    1
    18    17     1    1
    19    21     4    2
    20    15    14   ar
    21     6     7   ar
    22     6     1    1
    23     7     2    2
    24     4    26    1
    25     1    25    1
    26     1    33    1
    27    13    14    1
    28    14    16   ar
    29     2    37    1
    30    26    25   ar
    31    26    27   ar
    32    37    33    2
    33    37    36    1
    34    25    29   ar
    35    33    34    1
    36    36    39    1
    37    36    35    2
    38    27    30    1
    39    27    28   ar
    40    39    40    1
    41    34    35    1
    42    34     5    2
    43    29    28   ar
    44    29     5    1
    45    43    41   ar
    46    35    38    1
    47    28    31    1
    48    40    41    1
    49    41    42   ar
    50    31    32    2
