@<TRIPOS>MOLECULE
2eut_HEM_A_1.pdb
 43 50 0 0 0
SMALL
GASTEIGER

@<TRIPOS>ATOM
      1 FE         -9.3430   74.9590   20.2800 Fe    295  HEM295      0.0000
      2  CHA      -10.6340   71.8110   20.5160 C.2   295  HEM295      0.0000
      3  CHB      -12.0260   75.8890   18.3460 C.2   295  HEM295      0.0000
      4  CHC       -8.0810   78.1140   20.0670 C.2   295  HEM295      0.0000
      5  CHD       -6.9410   74.1380   22.5370 C.2   295  HEM295      0.0000
      6  NA       -11.0230   74.0460   19.5860 N.ar  295  HEM295      0.0000
      7  C1A      -11.3470   72.7360   19.7970 C.ar  295  HEM295      0.0000
      8  C2A      -12.6260   72.4790   19.1820 C.ar  295  HEM295      0.0000
      9  C3A      -13.0190   73.5930   18.5550 C.ar  295  HEM295      0.0000
     10  C4A      -12.0080   74.5990   18.8020 C.ar  295  HEM295      0.0000
     11  CMA      -14.3070   73.8490   17.7420 C.3   295  HEM295      0.0000
     12  CAA      -13.3550   71.1320   19.2490 C.3   295  HEM295      0.0000
     13  CBA      -14.1680   70.9930   20.5420 C.3   295  HEM295      0.0000
     14  CGA      -14.8560   69.6450   20.5720 C.2   295  HEM295      0.0000
     15  O1A      -15.5830   69.3390   19.5800 O.co2 295  HEM295      0.0000
     16  O2A      -14.6860   68.8740   21.5470 O.co2 295  HEM295      0.0000
     17  NB        -9.9470   76.6710   19.3560 N.2   295  HEM295      0.0000
     18  C1B      -11.0580   76.8390   18.5760 C.2   295  HEM295      0.0000
     19  C2B      -10.9930   78.1510   17.9970 C.2   295  HEM295      0.0000
     20  C3B       -9.9020   78.7670   18.4550 C.2   295  HEM295      0.0000
     21  C4B       -9.2410   77.8710   19.3680 C.2   295  HEM295      0.0000
     22  CMB      -12.0570   78.6870   17.0270 C.3   295  HEM295      0.0000
     23  CAB       -9.3750   80.1660   18.1480 C.2   295  HEM295      0.0000
     24  CBB       -9.6490   80.7960   17.0010 C.2   295  HEM295      0.0000
     25  NC        -7.8290   75.9450   21.1850 N.ar  295  HEM295      0.0000
     26  C1C       -7.4950   77.2580   20.9700 C.ar  295  HEM295      0.0000
     27  C2C       -6.3950   77.5890   21.8520 C.ar  295  HEM295      0.0000
     28  C3C       -6.0770   76.4950   22.5500 C.ar  295  HEM295      0.0000
     29  C4C       -6.9680   75.4380   22.1240 C.ar  295  HEM295      0.0000
     30  CMC       -5.8040   79.0050   21.9470 C.3   295  HEM295      0.0000
     31  CAC       -5.0320   76.3040   23.6540 C.2   295  HEM295      0.0000
     32  CBC       -3.8070   76.8220   23.6380 C.2   295  HEM295      0.0000
     33  ND        -8.9740   73.2660   21.3980 N.2   295  HEM295      0.0000
     34  C1D       -7.7460   73.1170   22.1270 C.2   295  HEM295      0.0000
     35  C2D       -7.5440   71.7360   22.4360 C.2   295  HEM295      0.0000
     36  C3D       -8.6810   71.0120   21.8220 C.2   295  HEM295      0.0000
     37  C4D       -9.4650   72.0280   21.1890 C.2   295  HEM295      0.0000
     38  CMD       -6.3960   71.1400   23.2180 C.3   295  HEM295      0.0000
     39  CAD       -8.9200   69.5060   21.8860 C.3   295  HEM295      0.0000
     40  CBD       -9.8910   69.1760   23.0160 C.3   295  HEM295      0.0000
     41  CGD      -10.2720   67.7200   23.1130 C.2   295  HEM295      0.0000
     42  O1D      -11.2090   67.4390   23.9160 O.co2 295  HEM295      0.0000
     43  O2D       -9.6940   66.8640   22.4350 O.co2 295  HEM295      0.0000
@<TRIPOS>BOND
     1    24    23    2
     2    22    19    1
     3    11     9    1
     4    19    20    2
     5    19    18    1
     6    23    20    1
     7     3    18    1
     8     3    10    2
     9    20    21    1
    10     9    10   ar
    11     9     8   ar
    12    18    17    2
    13    10     6   ar
    14     8    12    1
    15     8     7   ar
    16    12    13    1
    17    17    21    1
    18    17     1    1
    19    21     4    2
    20    15    14   ar
    21     6     7   ar
    22     6     1    1
    23     7     2    2
    24     4    26    1
    25     1    25    1
    26     1    33    1
    27     2    37    1
    28    13    14    1
    29    14    16   ar
    30    26    25   ar
    31    26    27   ar
    32    25    29   ar
    33    37    33    2
    34    37    36    1
    35    33    34    1
    36    36    39    1
    37    36    35    2
    38    27    30    1
    39    27    28   ar
    40    39    40    1
    41    29     5    1
    42    29    28   ar
    43    34    35    1
    44    34     5    2
    45    43    41   ar
    46    35    38    1
    47    28    31    1
    48    40    41    1
    49    41    42   ar
    50    32    31    2
