@<TRIPOS>MOLECULE
2euu_HEM_A_1.pdb
 43 50 0 0 0
SMALL
GASTEIGER

@<TRIPOS>ATOM
      1 FE         -9.3800   74.9210   20.2610 Fe    295  HEM295      0.0000
      2  CHA      -10.6470   71.7500   20.4690 C.2   295  HEM295      0.0000
      3  CHB      -12.0990   75.8540   18.2910 C.2   295  HEM295      0.0000
      4  CHC       -8.1340   78.1140   20.0010 C.2   295  HEM295      0.0000
      5  CHD       -6.9210   74.1290   22.4940 C.2   295  HEM295      0.0000
      6  NA       -11.0480   74.0210   19.5210 N.ar  295  HEM295      0.0000
      7  C1A      -11.3710   72.6870   19.7610 C.ar  295  HEM295      0.0000
      8  C2A      -12.6650   72.4300   19.1590 C.ar  295  HEM295      0.0000
      9  C3A      -13.0630   73.5520   18.5430 C.ar  295  HEM295      0.0000
     10  C4A      -12.0510   74.5590   18.7470 C.ar  295  HEM295      0.0000
     11  CMA      -14.3620   73.7820   17.7460 C.3   295  HEM295      0.0000
     12  CAA      -13.3800   71.0730   19.2300 C.3   295  HEM295      0.0000
     13  CBA      -14.1540   70.9300   20.5490 C.3   295  HEM295      0.0000
     14  CGA      -14.8330   69.5750   20.5740 C.2   295  HEM295      0.0000
     15  O1A      -15.5810   69.2440   19.6020 O.co2 295  HEM295      0.0000
     16  O2A      -14.6320   68.8140   21.5500 O.co2 295  HEM295      0.0000
     17  NB       -10.0070   76.6640   19.3510 N.2   295  HEM295      0.0000
     18  C1B      -11.1210   76.8000   18.5280 C.2   295  HEM295      0.0000
     19  C2B      -11.0620   78.1250   17.9490 C.2   295  HEM295      0.0000
     20  C3B       -9.9600   78.7360   18.4010 C.2   295  HEM295      0.0000
     21  C4B       -9.2850   77.8480   19.3100 C.2   295  HEM295      0.0000
     22  CMB      -12.1170   78.6560   16.9680 C.3   295  HEM295      0.0000
     23  CAB       -9.4410   80.1330   18.1070 C.2   295  HEM295      0.0000
     24  CBB       -9.6730   80.7430   16.9500 C.2   295  HEM295      0.0000
     25  NC        -7.8330   75.9080   21.1020 N.ar  295  HEM295      0.0000
     26  C1C       -7.5260   77.2400   20.8980 C.ar  295  HEM295      0.0000
     27  C2C       -6.4200   77.5760   21.7930 C.ar  295  HEM295      0.0000
     28  C3C       -6.0790   76.4810   22.4860 C.ar  295  HEM295      0.0000
     29  C4C       -6.9720   75.4270   22.0590 C.ar  295  HEM295      0.0000
     30  CMC       -5.8390   78.9860   21.8770 C.3   295  HEM295      0.0000
     31  CAC       -5.0450   76.2860   23.6030 C.2   295  HEM295      0.0000
     32  CBC       -3.8110   76.7730   23.5750 C.2   295  HEM295      0.0000
     33  ND        -8.9050   73.2320   21.3120 N.2   295  HEM295      0.0000
     34  C1D       -7.7490   73.1060   22.0720 C.2   295  HEM295      0.0000
     35  C2D       -7.5540   71.7030   22.3800 C.2   295  HEM295      0.0000
     36  C3D       -8.6910   70.9630   21.7680 C.2   295  HEM295      0.0000
     37  C4D       -9.4850   71.9790   21.1440 C.2   295  HEM295      0.0000
     38  CMD       -6.3890   71.1350   23.1580 C.3   295  HEM295      0.0000
     39  CAD       -8.8920   69.4580   21.8370 C.3   295  HEM295      0.0000
     40  CBD       -9.9140   69.1340   22.9430 C.3   295  HEM295      0.0000
     41  CGD      -10.2520   67.6700   23.0560 C.2   295  HEM295      0.0000
     42  O1D      -11.1530   67.3390   23.8710 O.co2 295  HEM295      0.0000
     43  O2D       -9.6310   66.8310   22.3730 O.co2 295  HEM295      0.0000
@<TRIPOS>BOND
     1    24    23    2
     2    22    19    1
     3    11     9    1
     4    19    20    2
     5    19    18    1
     6    23    20    1
     7     3    18    1
     8     3    10    2
     9    20    21    1
    10    18    17    2
    11     9    10   ar
    12     9     8   ar
    13    10     6   ar
    14     8    12    1
    15     8     7   ar
    16    12    13    1
    17    21    17    1
    18    21     4    2
    19    17     1    1
    20     6     7   ar
    21     6     1    1
    22    15    14   ar
    23     7     2    2
    24     4    26    1
    25     1    25    1
    26     1    33    1
    27     2    37    1
    28    13    14    1
    29    14    16   ar
    30    26    25   ar
    31    26    27   ar
    32    25    29   ar
    33    37    33    2
    34    37    36    1
    35    33    34    1
    36    36    39    1
    37    36    35    2
    38    27    30    1
    39    27    28   ar
    40    39    40    1
    41    29    28   ar
    42    29     5    1
    43    34    35    1
    44    34     5    2
    45    43    41   ar
    46    35    38    1
    47    28    31    1
    48    40    41    1
    49    41    42   ar
    50    32    31    2
