@<TRIPOS>MOLECULE
2ev1_OLA_A_1.pdb
 20 19 0 0 0
SMALL
GASTEIGER

@<TRIPOS>ATOM
      1  C1        30.7720  -13.2400    6.8530 C.2   1002  OLA1002     0.3649
      2  O1        30.8280  -12.9040    8.0480 O.co2 1002  OLA1002    -0.2457
      3  O2        30.8430  -14.4570    6.5700 O.co2 1002  OLA1002    -0.2457
      4  C2        30.5620  -12.1960    5.7880 C.3   1002  OLA1002     0.1141
      5  C3        31.3260  -10.9290    6.1370 C.3   1002  OLA1002     0.0118
      6  C4        31.4330  -10.0580    4.8960 C.3   1002  OLA1002     0.0006
      7  C5        32.1000   -8.7230    5.2020 C.3   1002  OLA1002     0.0000
      8  C6        31.4240   -7.6730    4.3460 C.3   1002  OLA1002     0.0000
      9  C7        32.1550   -6.3450    4.2680 C.3   1002  OLA1002     0.0000
     10  C8        31.7470   -5.6620    2.9630 C.3   1002  OLA1002     0.0000
     11  C9        31.6350   -4.1740    3.0770 C.3   1002  OLA1002     0.0000
     12  C10       30.7160   -3.4970    2.1650 C.3   1002  OLA1002     0.0000
     13  C11       31.1160   -2.2200    1.5020 C.3   1002  OLA1002     0.0000
     14  C12       31.1270   -1.1040    2.5160 C.3   1002  OLA1002     0.0000
     15  C13       30.5570    0.1830    1.9480 C.3   1002  OLA1002     0.0000
     16  C14       31.5180    1.3300    2.1450 C.3   1002  OLA1002     0.0000
     17  C15       30.9560    2.5930    2.7550 C.3   1002  OLA1002     0.0000
     18  C16       31.7080    3.7670    2.1490 C.3   1002  OLA1002     0.0000
     19  C17       31.6450    4.9650    3.0680 C.3   1002  OLA1002     0.0000
     20  C18       32.1930    6.2370    2.4150 C.3   1002  OLA1002     0.0000
@<TRIPOS>BOND
     1    13    12    1
     2    13    14    1
     3    15    16    1
     4    15    14    1
     5    16    17    1
     6    18    17    1
     7    18    19    1
     8    12    11    1
     9    20    19    1
    10    10    11    1
    11    10     9    1
    12     9     8    1
    13     8     7    1
    14     6     7    1
    15     6     5    1
    16     4     5    1
    17     4     1    1
    18     3     1   ar
    19     1     2   ar
