@<TRIPOS>MOLECULE
2ev2_OLA_A_1.pdb
 20 19 0 0 0
SMALL
GASTEIGER

@<TRIPOS>ATOM
      1  C1        59.6250   10.4090   21.7900 C.2   1001  OLA1001     0.3649
      2  O1        59.3880   11.4120   22.4940 O.co2 1001  OLA1001    -0.2457
      3  O2        59.4090    9.2610   22.2620 O.co2 1001  OLA1001    -0.2457
      4  C2        60.1860   10.6020   20.4050 C.3   1001  OLA1001     0.1141
      5  C3        61.4380    9.7420   20.3300 C.3   1001  OLA1001     0.0118
      6  C4        62.0780    9.7680   18.9550 C.3   1001  OLA1001     0.0006
      7  C5        61.2910    9.0130   17.8860 C.3   1001  OLA1001     0.0000
      8  C6        61.4670    9.6980   16.5430 C.3   1001  OLA1001     0.0000
      9  C7        62.9480    9.9300   16.2850 C.3   1001  OLA1001     0.0000
     10  C8        63.2040   10.5250   14.9200 C.3   1001  OLA1001     0.0000
     11  C9        63.9200   11.8370   15.0730 C.3   1001  OLA1001     0.0000
     12  C10       65.2850   11.9940   14.5730 C.3   1001  OLA1001     0.0000
     13  C11       65.6590   11.2290   13.3480 C.3   1001  OLA1001     0.0000
     14  C12       66.7100   11.9440   12.5320 C.3   1001  OLA1001     0.0000
     15  C13       66.7340   11.2330   11.1980 C.3   1001  OLA1001     0.0000
     16  C14       68.1200   11.0090   10.6550 C.3   1001  OLA1001     0.0000
     17  C15       68.2680   11.7880    9.3690 C.3   1001  OLA1001     0.0000
     18  C16       69.7400   11.8340    9.0320 C.3   1001  OLA1001     0.0000
     19  C17       70.0510   12.7480    7.8560 C.3   1001  OLA1001     0.0000
     20  C18       71.4320   13.3960    7.9490 C.3   1001  OLA1001     0.0000
@<TRIPOS>BOND
     1    19    20    1
     2    19    18    1
     3    18    17    1
     4    17    16    1
     5    16    15    1
     6    15    14    1
     7    14    13    1
     8    13    12    1
     9    12    11    1
    10    10    11    1
    11    10     9    1
    12     9     8    1
    13     8     7    1
    14     7     6    1
    15     6     5    1
    16     5     4    1
    17     4     1    1
    18     1     3   ar
    19     1     2   ar
