@<TRIPOS>MOLECULE
2ev3_OLA_A_1.pdb
 20 19 0 0 0
SMALL
GASTEIGER

@<TRIPOS>ATOM
      1  C1        -1.1510   10.5510   21.2840 C.2   1001  OLA1001     0.3649
      2  O1        -1.1930   11.3510   22.2500 O.co2 1001  OLA1001    -0.2457
      3  O2        -1.7650    9.4650   21.3580 O.co2 1001  OLA1001    -0.2457
      4  C2        -0.3650   10.8890   20.0430 C.3   1001  OLA1001     0.1141
      5  C3         0.7100    9.8290   19.8520 C.3   1001  OLA1001     0.0118
      6  C4         1.4010    9.9680   18.4990 C.3   1001  OLA1001     0.0006
      7  C5         0.7680    9.0690   17.4370 C.3   1001  OLA1001     0.0000
      8  C6         0.9980    9.6530   16.0480 C.3   1001  OLA1001     0.0003
      9  C7         2.4880    9.7060   15.6930 C.3   1001  OLA1001     0.0047
     10  C8         2.7390   10.6030   14.4880 C.3   1001  OLA1001     0.0257
     11  C9         3.4640   11.8490   14.9310 C.2   1001  OLA1001    -0.0307
     12  C10        4.7600   12.2080   14.3280 C.2   1001  OLA1001    -0.0307
     13  C11        5.4960   11.2280   13.4510 C.3   1001  OLA1001     0.0257
     14  C12        6.3200   12.0020   12.4370 C.3   1001  OLA1001     0.0047
     15  C13        6.4270   11.1900   11.1570 C.3   1001  OLA1001     0.0003
     16  C14        7.8690   11.1100   10.6760 C.3   1001  OLA1001     0.0000
     17  C15        8.0070   11.7350    9.2960 C.3   1001  OLA1001     0.0000
     18  C16        9.0960   11.0250    8.4750 C.3   1001  OLA1001     0.0000
     19  C17        9.6420   11.9670    7.4070 C.3   1001  OLA1001     0.0000
     20  C18       10.4690   11.2080    6.3680 C.3   1001  OLA1001     0.0000
@<TRIPOS>BOND
     1    20    19    1
     2    19    18    1
     3    18    17    1
     4    17    16    1
     5    16    15    1
     6    15    14    1
     7    14    13    1
     8    13    12    1
     9    12    11    2
    10    10    11    1
    11    10     9    1
    12     9     8    1
    13     8     7    1
    14     7     6    1
    15     6     5    1
    16     5     4    1
    17     4     1    1
    18     1     3   ar
    19     1     2   ar
