@<TRIPOS>MOLECULE
2ev4_OLA_A_1.pdb
 20 19 0 0 0
SMALL
GASTEIGER

@<TRIPOS>ATOM
      1  C1         0.3670  -37.7050   21.9520 C.2   1001  OLA1001     0.3649
      2  O1         0.6960  -38.7690   22.5240 O.co2 1001  OLA1001    -0.2457
      3  O2         0.5380  -36.6240   22.5740 O.co2 1001  OLA1001    -0.2457
      4  C2        -0.2140  -37.7550   20.5510 C.3   1001  OLA1001     0.1141
      5  C3        -1.2860  -36.6860   20.3720 C.3   1001  OLA1001     0.0118
      6  C4        -1.9690  -36.8080   19.0140 C.3   1001  OLA1001     0.0006
      7  C5        -1.2800  -35.9840   17.9350 C.3   1001  OLA1001     0.0000
      8  C6        -1.4380  -36.6370   16.5680 C.3   1001  OLA1001     0.0000
      9  C7        -2.8740  -36.5020   16.0920 C.3   1001  OLA1001     0.0000
     10  C8        -3.2070  -37.5030   15.0070 C.3   1001  OLA1001     0.0000
     11  C9        -4.2840  -38.4350   15.5100 C.3   1001  OLA1001     0.0000
     12  C10       -5.2920  -38.9580   14.5940 C.3   1001  OLA1001     0.0000
     13  C11       -5.5800  -38.1680   13.3620 C.3   1001  OLA1001     0.0000
     14  C12       -6.7210  -38.7760   12.5800 C.3   1001  OLA1001     0.0000
     15  C13       -6.8070  -37.9570   11.3100 C.3   1001  OLA1001     0.0000
     16  C14       -8.2160  -37.8550   10.7910 C.3   1001  OLA1001     0.0000
     17  C15       -8.3330  -38.6710    9.5280 C.3   1001  OLA1001     0.0000
     18  C16       -9.7700  -38.5990    9.0710 C.3   1001  OLA1001     0.0000
     19  C17      -10.0690  -39.5480    7.9130 C.3   1001  OLA1001     0.0000
     20  C18      -11.4630  -40.1750    7.9400 C.3   1001  OLA1001     0.0000
@<TRIPOS>BOND
     1    19    20    1
     2    19    18    1
     3    18    17    1
     4    17    16    1
     5    16    15    1
     6    15    14    1
     7    14    13    1
     8    13    12    1
     9    12    11    1
    10    10    11    1
    11    10     9    1
    12     9     8    1
    13     8     7    1
    14     7     6    1
    15     6     5    1
    16     5     4    1
    17     4     1    1
    18     1     2   ar
    19     1     3   ar
