@<TRIPOS>MOLECULE
2ev9_NAP_A_1.pdb
 48 52 0 0 0
SMALL
GASTEIGER

@<TRIPOS>ATOM
      1  PA        30.7140    6.7270   13.5780 P.3   1411  NAP1411     0.2189
      2  O1A       31.4330    7.9760   13.9270 O.2   1411  NAP1411    -0.5170
      3  O2A       31.0950    5.4310   14.1800 O.3   1411  NAP1411    -0.4371
      4  O5B       30.6950    6.6930   11.9750 O.3   1411  NAP1411    -0.3112
      5  C5B       30.0950    5.5460   11.2940 C.3   1411  NAP1411     0.1813
      6  C4B       30.1720    5.7590    9.8050 C.3   1411  NAP1411     0.1820
      7  O4B       31.5570    5.9890    9.3270 O.3   1411  NAP1411    -0.3136
      8  C3B       29.6150    4.6040    8.9800 C.3   1411  NAP1411     0.2157
      9  O3B       28.8550    5.1340    7.8830 O.3   1411  NAP1411    -0.2175
     10  C2B       30.8960    3.8840    8.5460 C.3   1411  NAP1411     0.2314
     11  O2B       30.7520    2.9760    7.4630 O.3   1411  NAP1411    -0.2630
     12  C1B       31.7930    5.0480    8.2420 C.3   1411  NAP1411     0.3158
     13  N9A       33.2270    4.7380    8.1700 N.pl3 1411  NAP1411    -0.1439
     14  C8A       34.0700    4.4140    9.2040 C.3   1411  NAP1411     0.3377
     15  N7A       35.3270    4.1830    8.8220 N.2   1411  NAP1411    -0.2095
     16  C5A       35.2950    4.3640    7.4820 C.2   1411  NAP1411     0.2526
     17  C6A       36.3250    4.2600    6.4900 C.2   1411  NAP1411     0.4393
     18  N6A       37.5890    3.9410    6.7750 N.pl3 1411  NAP1411     0.2180
     19  N1A       35.9400    4.5140    5.1900 N.2   1411  NAP1411     0.0021
     20  C2A       34.6650    4.8430    4.8590 C.3   1411  NAP1411     0.5254
     21  N3A       33.6150    4.9670    5.7350 N.2   1411  NAP1411    -0.0055
     22  C4A       33.9930    4.7110    7.0540 C.2   1411  NAP1411     0.3518
     23  O3        29.1410    7.0730   13.8500 O.3   1411  NAP1411    -0.2703
     24  PN        28.1500    8.3240   13.7300 P.3   1411  NAP1411     0.2189
     25  O1N       27.3030    8.4250   14.9500 O.3   1411  NAP1411    -0.4371
     26  O2N       27.4370    8.1180   12.4260 O.2   1411  NAP1411    -0.5170
     27  O5D       29.0810    9.6470   13.5550 O.3   1411  NAP1411    -0.3112
     28  C5D       29.4080   10.2320   12.2610 C.3   1411  NAP1411     0.1813
     29  C4D       30.5800   11.2020   12.2900 C.3   1411  NAP1411     0.1799
     30  O4D       30.1480   12.5890   12.1840 O.3   1411  NAP1411    -0.3327
     31  C3D       31.5250   11.1750   13.5220 C.3   1411  NAP1411     0.2158
     32  O3D       32.8860   11.2030   13.1890 O.3   1411  NAP1411    -0.2175
     33  C2D       31.0320   12.3360   14.3830 C.3   1411  NAP1411     0.2309
     34  O2D       32.1470   12.8980   15.0840 O.3   1411  NAP1411    -0.2158
     35  C1D       30.4100   13.3000   13.3760 C.3   1411  NAP1411     0.2263
     36  N1N       29.1340   13.9630   13.8390 N.pl3 1411  NAP1411    -0.2787
     37  C2N       29.1050   15.3400   13.9090 C.3   1411  NAP1411     0.1244
     38  C3N       27.9710   16.0430   14.3190 C.2   1411  NAP1411     0.0544
     39  C7N       27.9350   17.5700   14.3940 C.2   1411  NAP1411     0.2818
     40  O7N       27.1520   18.1260   15.1790 O.2   1411  NAP1411    -0.2670
     41  N7N       28.7900   18.2310   13.5740 N.am  1411  NAP1411    -0.0839
     42  C4N       26.7860   15.2940   14.6840 C.2   1411  NAP1411     0.0033
     43  C5N       26.8200   13.8800   14.6120 C.2   1411  NAP1411     0.0157
     44  C6N       27.9670   13.2140   14.1980 C.2   1411  NAP1411     0.0633
     45  P2B       30.6570    1.3470    7.6280 P.3   1411  NAP1411     0.5328
     46  O1X       29.1960    0.9990    7.6990 O.3   1411  NAP1411    -0.1145
     47  O2X       31.3850    0.8680    6.3890 O.2   1411  NAP1411    -0.2224
     48  O3X       31.4080    1.0090    8.8990 O.3   1411  NAP1411    -0.1145
@<TRIPOS>BOND
     1    20    19    1
     2    20    21    1
     3    19    17    2
     4    21    22    2
     5    47    45    2
     6    17    18    1
     7    17    16    1
     8    22    16    1
     9    22    13    1
    10    11    45    1
    11    11    10    1
    12    16    15    2
    13    45    46    1
    14    45    48    1
    15     9     8    1
    16    13    12    1
    17    13    14    1
    18    12    10    1
    19    12     7    1
    20    10     8    1
    21    15    14    1
    22     8     6    1
    23     7     6    1
    24     6     5    1
    25     5     4    1
    26     4     1    1
    27    30    29    1
    28    30    35    1
    29    28    29    1
    30    28    27    1
    31    29    31    1
    32    26    24    2
    33    32    31    1
    34    35    36    1
    35    35    33    1
    36    31    33    1
    37    27    24    1
    38    41    39   am
    39     1    23    1
    40     1     2    2
    41     1     3    1
    42    24    23    1
    43    24    25    1
    44    36    37    1
    45    36    44    1
    46    37    38    1
    47    44    43    2
    48    38    39    1
    49    38    42    2
    50    33    34    1
    51    39    40    2
    52    43    42    1
