@<TRIPOS>MOLECULE
2ev9_SKM_A_1.pdb
 12 12 0 0 0
SMALL
GASTEIGER

@<TRIPOS>ATOM
      1  O12       24.2860   14.8450   18.7450 O.3   301  SKM301     -0.2173
      2  C8        25.3870   15.5450   19.3150 C.3   301  SKM301      0.2167
      3  C6        25.3210   15.4830   20.8770 C.3   301  SKM301      0.1896
      4  O7        24.0960   16.0540   21.3480 O.3   301  SKM301     -0.2200
      5  C5        26.5080   16.2560   21.4950 C.3   301  SKM301      0.0684
      6  C4        27.8290   15.8880   20.8440 C.2   301  SKM301      0.0584
      7  C1        29.0840   16.2090   21.5790 C.2   301  SKM301      0.3837
      8  O2        29.0180   16.8110   22.7840 O.co2 301  SKM301     -0.2409
      9  O3        30.1800   15.9370   21.1040 O.co2 301  SKM301     -0.2409
     10  C10       27.9150   15.2980   19.6490 C.2   301  SKM301      0.0111
     11  C9        26.7200   14.9170   18.7950 C.3   301  SKM301      0.2066
     12  O11       26.6010   13.4880   18.7900 O.3   301  SKM301     -0.2155
@<TRIPOS>BOND
     1     1     2    1
     2    12    11    1
     3    11     2    1
     4    11    10    1
     5     2     3    1
     6    10     6    2
     7     6     5    1
     8     6     7    1
     9     3     4    1
    10     3     5    1
    11     9     7   ar
    12     7     8   ar
