@<TRIPOS>MOLECULE
2eva_ADN_A_1.pdb
 19 21 0 0 0
SMALL
GASTEIGER

@<TRIPOS>ATOM
      1  O5'       11.2630   53.9360   14.3070 O.3   498  ADN498     -0.2176
      2  C5'       12.4980   53.9590   13.5640 C.3   498  ADN498      0.2143
      3  C4'       13.6960   53.8370   14.5780 C.3   498  ADN498      0.1851
      4  O4'       13.2370   54.8490   15.5000 O.3   498  ADN498     -0.3134
      5  C3'       13.5370   52.6200   15.4960 C.3   498  ADN498      0.2186
      6  O3'       14.3530   51.5620   14.9470 O.3   498  ADN498     -0.2174
      7  C2'       14.0170   53.0900   16.8810 C.3   498  ADN498      0.2570
      8  O2'       15.2270   52.4890   17.3520 O.3   498  ADN498     -0.2130
      9  C1'       14.0310   54.6180   16.6440 C.3   498  ADN498      0.3186
     10  N9        13.5200   55.5040   17.7150 N.pl3 498  ADN498     -0.1439
     11  C8        12.1920   56.0280   17.7770 C.3   498  ADN498      0.3377
     12  N7        11.9350   56.7770   18.8030 N.2   498  ADN498     -0.2095
     13  C5        13.1340   56.7870   19.5010 C.2   498  ADN498      0.2526
     14  C6        13.5510   57.4210   20.7490 C.2   498  ADN498      0.4393
     15  N6        12.7160   58.1790   21.4640 N.pl3 498  ADN498      0.2180
     16  N1        14.8810   57.2190   21.1970 N.2   498  ADN498      0.0021
     17  C2        15.7710   56.4290   20.4690 C.3   498  ADN498      0.5254
     18  N3        15.4720   55.7820   19.2740 N.2   498  ADN498     -0.0055
     19  C4        14.1430   55.9990   18.8500 C.2   498  ADN498      0.3518
@<TRIPOS>BOND
     1     2     1    1
     2     2     3    1
     3     3     5    1
     4     3     4    1
     5     6     5    1
     6     5     7    1
     7     4     9    1
     8     9     7    1
     9     9    10    1
    10     7     8    1
    11    10    11    1
    12    10    19    1
    13    11    12    1
    14    12    13    2
    15    19    18    2
    16    19    13    1
    17    18    17    1
    18    13    14    1
    19    17    16    1
    20    14    16    2
    21    14    15    1
