@<TRIPOS>MOLECULE
2evc_FC3_A_1.pdb
 18 19 0 0 0
SMALL
GASTEIGER

@<TRIPOS>ATOM
      1  OA        -1.6830   -0.9390    8.3740 O.2   999  FC3999     -0.4468
      2  CA        -0.5820   -0.6950    9.1100 C.ar  999  FC3999      0.2246
      3  C          0.7450   -0.5010    8.5280 C.2   999  FC3999      0.4216
      4  OB         0.8660   -0.5700    7.2870 O.co2 999  FC3999     -0.2371
      5  CB        -0.9390   -0.6680   10.4390 C.ar  999  FC3999      0.0475
      6  CG        -2.3350   -0.9150   10.4910 C.ar  999  FC3999      0.0408
      7  CD        -2.7590   -1.0760    9.1830 C.ar  999  FC3999      0.1456
      8  OXT        1.7320   -0.2750    9.2490 O.co2 999  FC3999     -0.2371
      9  C1        -4.1290   -1.3610    8.6670 C.ar  999  FC3999      0.0385
     10  C2        -5.3160   -0.5850    8.9970 C.ar  999  FC3999      0.0744
     11  C3        -6.5800   -0.9380    8.4480 C.ar  999  FC3999      0.0040
     12  C4        -6.7100   -2.0430    7.5750 C.ar  999  FC3999     -0.0001
     13  C5        -5.5770   -2.8140    7.2360 C.ar  999  FC3999      0.0001
     14  C6        -4.3070   -2.4760    7.7750 C.ar  999  FC3999      0.0030
     15  CL1       -5.2580    0.6140    9.9210 C.3   999  FC3999      0.4187
     16  F1        -4.2430    1.3850    9.5890 F     999  FC3999     -0.1659
     17  F2        -6.3780    1.3030    9.8170 F     999  FC3999     -0.1659
     18  F3        -5.1000    0.1940   11.1560 F     999  FC3999     -0.1659
@<TRIPOS>BOND
     1    13    12   ar
     2    13    14   ar
     3     4     3   ar
     4    12    11   ar
     5    14     9   ar
     6     1     2   ar
     7     1     7   ar
     8    11    10   ar
     9     3     2    1
    10     3     8   ar
    11     9    10   ar
    12     9     7    1
    13    10    15    1
    14     2     5   ar
    15     7     6   ar
    16    16    15    1
    17    17    15    1
    18    15    18    1
    19     5     6   ar
