@<TRIPOS>MOLECULE
2evd_LAT_A_1.pdb
 23 24 0 0 0
SMALL
GASTEIGER

@<TRIPOS>ATOM
      1  C1        25.9610    4.6510   17.5440 C.3   300  LAT300      0.2696
      2  C2        25.3250    5.7330   18.4190 C.3   300  LAT300      0.2406
      3  C3        26.3780    6.8070   18.7500 C.3   300  LAT300      0.2198
      4  C4        27.6300    6.1180   19.3010 C.3   300  LAT300      0.2144
      5  C5        28.0880    5.0520   18.3010 C.3   300  LAT300      0.1835
      6  C6        29.4440    4.4030   18.6120 C.3   300  LAT300      0.2142
      7  O1        25.0040    3.6930   17.1320 O.3   300  LAT300     -0.3245
      8  O2        24.2440    6.2780   17.6850 O.3   300  LAT300     -0.2149
      9  O3        25.8660    7.7460   19.6680 O.3   300  LAT300     -0.2174
     10  O4        27.3180    5.4900   20.5210 O.3   300  LAT300     -0.2176
     11  O5        27.0780    4.0740   18.1890 O.3   300  LAT300     -0.3256
     12  O6        29.9340    3.8880   17.3820 O.3   300  LAT300     -0.2176
     13  C1'       23.1570    0.4900   19.0950 C.2   300  LAT300      0.3505
     14  C2'       22.3490    1.7970   18.9250 C.3   300  LAT300      0.2821
     15  C3'       22.9960    2.8010   17.9710 C.3   300  LAT300      0.2238
     16  C4'       24.5230    2.7410   18.0570 C.3   300  LAT300      0.1936
     17  C5'       25.0010    1.3440   17.6540 C.3   300  LAT300      0.2312
     18  C6'       26.5250    1.1400   17.6860 C.3   300  LAT300      0.2280
     19  O1'       22.3930   -0.6660   19.0860 O.2   300  LAT300     -0.2472
     20  O2'       20.9800    1.6230   18.6580 O.3   300  LAT300     -0.2082
     21  O3'       22.5630    4.0910   18.3280 O.3   300  LAT300     -0.2170
     22  O5'       24.3840    0.3080   18.4100 O.3   300  LAT300     -0.4451
     23  O6'       26.8170   -0.1030   17.0790 O.3   300  LAT300     -0.2163
@<TRIPOS>BOND
     1    23    18    1
     2     7     1    1
     3     7    16    1
     4    12     6    1
     5     1    11    1
     6     1     2    1
     7    17    18    1
     8    17    16    1
     9    17    22    1
    10     8     2    1
    11    15    16    1
    12    15    21    1
    13    15    14    1
    14    11     5    1
    15     5     6    1
    16     5     4    1
    17    22    13    1
    18     2     3    1
    19    20    14    1
    20     3     4    1
    21     3     9    1
    22    14    13    1
    23    19    13    2
    24     4    10    1
