@<TRIPOS>MOLECULE
2evk_HEM_A_1.pdb
 43 50 0 0 0
SMALL
GASTEIGER

@<TRIPOS>ATOM
      1 FE         -5.6640   29.8820   -8.4900 Fe    154  HEM154      0.0000
      2  CHA       -6.1210   33.1050   -9.4100 C.2   154  HEM154      0.0000
      3  CHB       -4.8580   30.9340   -5.3100 C.2   154  HEM154      0.0000
      4  CHC       -4.8250   26.6420   -7.5970 C.2   154  HEM154      0.0000
      5  CHD       -6.1700   28.8280  -11.7440 C.2   154  HEM154      0.0000
      6  NA        -5.4860   31.6890   -7.5360 N.2   154  HEM154      0.0000
      7  C1A       -5.7100   32.9270   -8.0820 C.2   154  HEM154      0.0000
      8  C2A       -5.6530   33.9800   -7.0570 C.2   154  HEM154      0.0000
      9  C3A       -5.3320   33.3430   -5.8870 C.2   154  HEM154      0.0000
     10  C4A       -5.1930   31.9260   -6.2090 C.2   154  HEM154      0.0000
     11  CMA       -5.0550   33.9190   -4.5240 C.3   154  HEM154      0.0000
     12  CAA       -5.9940   35.4350   -7.3300 C.3   154  HEM154      0.0000
     13  CBA       -7.3870   35.6400   -6.8110 C.3   154  HEM154      0.0000
     14  CGA       -8.6510   34.9310   -7.3080 C.2   154  HEM154      0.0000
     15  O1A       -9.0480   34.0010   -6.5360 O.co2 154  HEM154      0.0000
     16  O2A       -8.9700   34.9550   -8.5100 O.co2 154  HEM154      0.0000
     17  NB        -4.9130   28.9740   -6.7660 N.ar  154  HEM154      0.0000
     18  C1B       -4.7250   29.5800   -5.5380 C.ar  154  HEM154      0.0000
     19  C2B       -4.3210   28.6030   -4.5640 C.ar  154  HEM154      0.0000
     20  C3B       -4.3400   27.3880   -5.1960 C.ar  154  HEM154      0.0000
     21  C4B       -4.7050   27.6380   -6.6010 C.ar  154  HEM154      0.0000
     22  CMB       -3.9670   28.9610   -3.1290 C.3   154  HEM154      0.0000
     23  CAB       -4.0140   26.0320   -4.6770 C.2   154  HEM154      0.0000
     24  CBB       -2.9230   25.7470   -3.9460 C.2   154  HEM154      0.0000
     25  NC        -5.5210   28.0570   -9.4570 N.2   154  HEM154      0.0000
     26  C1C       -5.1450   26.8470   -8.9430 C.2   154  HEM154      0.0000
     27  C2C       -5.0700   25.8630  -10.0500 C.2   154  HEM154      0.0000
     28  C3C       -5.5550   26.4640  -11.1690 C.2   154  HEM154      0.0000
     29  C4C       -5.7750   27.8600  -10.8060 C.2   154  HEM154      0.0000
     30  CMC       -4.7130   24.4600   -9.6200 C.3   154  HEM154      0.0000
     31  CAC       -5.5810   25.9510  -12.5760 C.2   154  HEM154      0.0000
     32  CBC       -5.1970   24.7900  -13.0790 C.2   154  HEM154      0.0000
     33  ND        -6.1520   30.7730  -10.2420 N.ar  154  HEM154      0.0000
     34  C1D       -6.2870   30.1900  -11.4820 C.ar  154  HEM154      0.0000
     35  C2D       -6.4980   31.2170  -12.4820 C.ar  154  HEM154      0.0000
     36  C3D       -6.5280   32.4140  -11.8070 C.ar  154  HEM154      0.0000
     37  C4D       -6.2050   32.1310  -10.4070 C.ar  154  HEM154      0.0000
     38  CMD       -6.9190   30.9040  -13.9100 C.3   154  HEM154      0.0000
     39  CAD       -6.7850   33.7870  -12.3580 C.3   154  HEM154      0.0000
     40  CBD       -5.4960   34.5350  -12.8320 C.3   154  HEM154      0.0000
     41  CGD       -5.3010   35.7860  -13.7120 C.2   154  HEM154      0.0000
     42  O1D       -5.2770   35.6180  -14.9600 O.co2 154  HEM154      0.0000
     43  O2D       -5.0040   36.8690  -13.1310 O.co2 154  HEM154      0.0000
@<TRIPOS>BOND
     1    42    41   ar
     2    38    35    1
     3    41    43   ar
     4    41    40    1
     5    32    31    2
     6    40    39    1
     7    31    28    1
     8    35    36   ar
     9    35    34   ar
    10    39    36    1
    11    36    37   ar
    12     5    34    2
    13     5    29    1
    14    34    33   ar
    15    28    29    1
    16    28    27    2
    17    29    25    2
    18    37    33   ar
    19    37     2    2
    20    33     1    1
    21    27    30    1
    22    27    26    1
    23    25    26    1
    24    25     1    1
    25     2     7    1
    26    26     4    2
    27    16    14   ar
    28     1     6    1
    29     1    17    1
    30     7     6    2
    31     7     8    1
    32     4    21    1
    33     6    10    1
    34    12     8    1
    35    12    13    1
    36    14    13    1
    37    14    15   ar
    38     8     9    2
    39    17    21   ar
    40    17    18   ar
    41    21    20   ar
    42    10     9    1
    43    10     3    2
    44     9    11    1
    45    18     3    1
    46    18    19   ar
    47    20    23    1
    48    20    19   ar
    49    23    24    2
    50    19    22    1
