@<TRIPOS>MOLECULE
2evl_SPH_A_1.pdb
 20 19 0 0 0
SMALL
GASTEIGER

@<TRIPOS>ATOM
      1  C1        22.5500   -1.9350   18.8800 C.3   301  SPH301      0.0236
      2  C2        21.4990   -2.8130   19.5440 C.3   301  SPH301      0.1263
      3  N2        20.2000   -2.4280   19.0320 N.3   301  SPH301     -0.1299
      4  C3        21.6170   -2.6790   21.0570 C.3   301  SPH301      0.1911
      5  O3        22.9060   -3.1950   21.4130 O.3   301  SPH301     -0.2168
      6  C4        20.5890   -3.4830   21.8100 C.2   301  SPH301      0.0030
      7  C5        19.6520   -2.8830   22.5400 C.2   301  SPH301     -0.0282
      8  C6        18.6650   -3.7270   23.3170 C.3   301  SPH301      0.0258
      9  C7        19.2770   -4.0270   24.7040 C.3   301  SPH301      0.0047
     10  C8        20.0720   -5.3510   24.7370 C.3   301  SPH301      0.0003
     11  C9        21.2310   -5.3640   25.7330 C.3   301  SPH301      0.0000
     12  C10       20.9570   -6.3020   26.8980 C.3   301  SPH301      0.0000
     13  C11       22.0700   -6.3110   27.9440 C.3   301  SPH301      0.0000
     14  C12       21.5310   -6.3820   29.3790 C.3   301  SPH301      0.0000
     15  C13       22.5690   -6.8830   30.3910 C.3   301  SPH301      0.0000
     16  C14       21.9670   -6.9300   31.7980 C.3   301  SPH301      0.0000
     17  C15       22.9530   -7.4200   32.8590 C.3   301  SPH301      0.0000
     18  C16       22.3590   -8.3960   33.8780 C.3   301  SPH301      0.0000
     19  C17       21.6120   -7.6800   34.9970 C.3   301  SPH301      0.0000
     20  C18       22.5420   -7.2940   36.1310 C.3   301  SPH301      0.0000
@<TRIPOS>BOND
     1     1     2    1
     2     3     2    1
     3     2     4    1
     4     4     5    1
     5     4     6    1
     6     6     7    2
     7     7     8    1
     8     8     9    1
     9     9    10    1
    10    10    11    1
    11    11    12    1
    12    12    13    1
    13    13    14    1
    14    14    15    1
    15    15    16    1
    16    16    17    1
    17    17    18    1
    18    18    19    1
    19    19    20    1
