@<TRIPOS>MOLECULE
2evl_EIC_A_1.pdb
 19 18 0 0 0
SMALL
GASTEIGER

@<TRIPOS>ATOM
      1  C1        19.0010   -2.6520   18.6120 C.3   302  EIC302      0.1821
      2  C2        17.5470   -2.3230   18.2640 C.3   302  EIC302      0.0355
      3  C3        16.6450   -2.6220   19.4610 C.3   302  EIC302      0.0027
      4  C4        15.1510   -2.6030   19.1090 C.3   302  EIC302      0.0001
      5  C5        14.4170   -3.6870   19.8930 C.3   302  EIC302      0.0000
      6  C6        12.9340   -3.8480   19.5580 C.3   302  EIC302      0.0003
      7  C7        12.3410   -4.8640   20.5490 C.3   302  EIC302      0.0047
      8  C8        10.9180   -4.4860   20.9370 C.3   302  EIC302      0.0257
      9  C9        10.1800   -5.3710   21.9440 C.2   302  EIC302     -0.0304
     10  C10       10.5410   -6.5270   22.5450 C.2   302  EIC302     -0.0260
     11  C11       11.8300   -7.3200   22.3870 C.3   302  EIC302      0.0513
     12  C12       12.0550   -8.1970   23.6050 C.2   302  EIC302     -0.0260
     13  C13       11.3300   -9.2820   23.8990 C.2   302  EIC302     -0.0304
     14  C14       10.1790   -9.7880   23.0540 C.3   302  EIC302      0.0257
     15  C15        8.8420   -9.4360   23.7100 C.3   302  EIC302      0.0047
     16  C16        7.8400   -8.8170   22.7300 C.3   302  EIC302      0.0003
     17  C17        6.7310   -8.0240   23.4300 C.3   302  EIC302      0.0000
     18  C18        6.1330   -6.9900   22.4960 C.3   302  EIC302      0.0000
     19  O1        19.2790   -4.0160   18.2390 O.3   302  EIC302     -0.2204
@<TRIPOS>BOND
     1    19     1    1
     2     2     1    1
     3     2     3    1
     4     4     3    1
     5     4     5    1
     6     6     5    1
     7     6     7    1
     8     7     8    1
     9     8     9    1
    10     9    10    2
    11    11    10    1
    12    11    12    1
    13    18    17    1
    14    16    17    1
    15    16    15    1
    16    14    15    1
    17    14    13    1
    18    12    13    2
