@<TRIPOS>MOLECULE
2evl_GAL_A_1.pdb
 12 12 0 0 0
SMALL
GASTEIGER

@<TRIPOS>ATOM
      1  C1        22.8980    0.3900   18.3120 C.3   300  GAL300      0.3024
      2  C2        22.2770    1.7350   18.6580 C.3   300  GAL300      0.2434
      3  C3        22.9330    2.8130   17.7870 C.3   300  GAL300      0.2199
      4  C4        24.4690    2.7580   17.8530 C.3   300  GAL300      0.2144
      5  C5        24.9130    1.3460   17.4930 C.3   300  GAL300      0.1836
      6  C6        26.4380    1.1950   17.5340 C.3   300  GAL300      0.2142
      7  O1        22.4040   -0.6220   19.1620 O.3   300  GAL300     -0.1869
      8  O2        20.8720    1.6740   18.4300 O.3   300  GAL300     -0.2148
      9  O3        22.4530    4.0840   18.1320 O.3   300  GAL300     -0.2174
     10  O4        24.9280    3.0750   19.1590 O.3   300  GAL300     -0.2176
     11  O5        24.3090    0.4040   18.3690 O.3   300  GAL300     -0.3236
     12  O6        26.7210   -0.0320   16.8870 O.3   300  GAL300     -0.2176
@<TRIPOS>BOND
     1    12     6    1
     2     5     6    1
     3     5     4    1
     4     5    11    1
     5     3     4    1
     6     3     9    1
     7     3     2    1
     8     4    10    1
     9     1    11    1
    10     1     2    1
    11     1     7    1
    12     8     2    1
