@<TRIPOS>MOLECULE
2evm_FC2_A_1.pdb
 16 17 0 0 0
SMALL
GASTEIGER

@<TRIPOS>ATOM
      1  OA        -1.7070   -0.8130    8.3700 O.2   999  FC2999     -0.4468
      2  CA        -0.6130   -0.5690    9.1090 C.ar  999  FC2999      0.2246
      3  C          0.7290   -0.4710    8.5280 C.2   999  FC2999      0.4216
      4  OB         0.8520   -0.6230    7.2880 O.co2 999  FC2999     -0.2371
      5  CB        -1.0000   -0.4430   10.4300 C.ar  999  FC2999      0.0475
      6  CG        -2.4190   -0.6300   10.4580 C.ar  999  FC2999      0.0409
      7  CD        -2.8070   -0.8550    9.1550 C.ar  999  FC2999      0.1465
      8  OXT        1.7290   -0.2460    9.2360 O.co2 999  FC2999     -0.2371
      9  C1        -4.1450   -1.1170    8.5930 C.ar  999  FC2999      0.0460
     10  C2        -5.3680   -0.5780    9.1260 C.ar  999  FC2999      0.0606
     11  C3        -6.5990   -0.9010    8.4890 C.ar  999  FC2999      0.0124
     12  C4        -6.6170   -1.7440    7.3370 C.ar  999  FC2999      0.0123
     13  C5        -5.4070   -2.2650    6.8180 C.ar  999  FC2999      0.0578
     14  C6        -4.1820   -1.9550    7.4420 C.ar  999  FC2999      0.0153
     15 CL1        -5.3810    0.4410   10.4970 Cl    999  FC2999     -0.0821
     16 CL2        -5.4010   -3.2710    5.4330 Cl    999  FC2999     -0.0822
@<TRIPOS>BOND
     1    16    13    1
     2    13    12   ar
     3    13    14   ar
     4     4     3   ar
     5    12    11   ar
     6    14     9   ar
     7     1     2   ar
     8     1     7   ar
     9    11    10   ar
    10     3     2    1
    11     3     8   ar
    12     9    10   ar
    13     9     7    1
    14     2     5   ar
    15    10    15    1
    16     7     6   ar
    17     5     6   ar
