@<TRIPOS>MOLECULE
2evo_CT0_A_1.pdb
 16 17 0 0 0
SMALL
GASTEIGER

@<TRIPOS>ATOM
      1  O         -3.9250    2.1300   38.5270 O.2   503  CT0503     -0.2629
      2  C1        -3.7830    1.7280   37.3500 C.2   503  CT0503      0.3260
      3  N2        -2.8770    2.3250   36.4850 N.am  503  CT0503     -0.1466
      4  C3        -2.0880    3.3710   36.8300 C.ar  503  CT0503      0.1863
      5  N         -1.2060    3.9750   36.0320 N.ar  503  CT0503     -0.2209
      6  S         -2.0200    4.1420   38.3150 S.2   503  CT0503     -0.0491
      7  C5        -0.8580    5.2730   37.9590 C.ar  503  CT0503      0.0588
      8  C4        -0.5030    5.0470   36.6410 C.ar  503  CT0503      0.1079
      9  O2        -4.4540    0.1800   35.6890 O.2   503  CT0503     -0.2633
     10  C6        -4.5980    0.5850   36.8610 C.2   503  CT0503      0.3205
     11  N7        -5.4970   -0.0140   37.7150 N.am  503  CT0503     -0.1995
     12  C8        -6.3190   -1.1520   37.2810 C.3   503  CT0503      0.0958
     13  C9        -5.9970   -2.5120   37.9180 C.3   503  CT0503      0.0217
     14  C10       -7.8310   -1.0560   37.5400 C.3   503  CT0503      0.0217
     15  C11       -8.0120   -1.5870   38.9730 C.3   503  CT0503      0.0018
     16  C12       -6.8180   -2.5290   39.2230 C.3   503  CT0503      0.0018
@<TRIPOS>BOND
     1     9    10    2
     2     5     8   ar
     3     5     4   ar
     4     3     4    1
     5     3     2   am
     6     8     7   ar
     7     4     6   ar
     8    10     2    1
     9    10    11   am
    10    12    14    1
    11    12    11    1
    12    12    13    1
    13     2     1    2
    14    14    15    1
    15    13    16    1
    16     7     6   ar
    17    15    16    1
