@<TRIPOS>MOLECULE
2evp_HEM_A_1.pdb
 43 50 0 0 0
SMALL
GASTEIGER

@<TRIPOS>ATOM
      1 FE         -6.1580   29.9000   -8.5210 Fe    154  HEM154      0.0000
      2  CHA       -6.2400   33.2040   -9.5610 C.2   154  HEM154      0.0000
      3  CHB       -5.1630   31.0490   -5.3130 C.2   154  HEM154      0.0000
      4  CHC       -4.9190   26.7270   -7.5680 C.2   154  HEM154      0.0000
      5  CHD       -6.0210   28.8680  -11.8130 C.2   154  HEM154      0.0000
      6  NA        -5.7140   31.8140   -7.5870 N.2   154  HEM154      0.0000
      7  C1A       -5.9730   33.0250   -8.1860 C.2   154  HEM154      0.0000
      8  C2A       -5.9030   34.0820   -7.1550 C.2   154  HEM154      0.0000
      9  C3A       -5.6030   33.4630   -5.9690 C.2   154  HEM154      0.0000
     10  C4A       -5.4890   32.0400   -6.2640 C.2   154  HEM154      0.0000
     11  CMA       -5.4020   34.0780   -4.6050 C.3   154  HEM154      0.0000
     12  CAA       -6.1200   35.5700   -7.4010 C.3   154  HEM154      0.0000
     13  CBA       -7.6180   35.8120   -7.1980 C.3   154  HEM154      0.0000
     14  CGA       -8.5410   35.1790   -8.2200 C.2   154  HEM154      0.0000
     15  O1A       -9.3650   34.3390   -7.8200 O.co2 154  HEM154      0.0000
     16  O2A       -8.4310   35.5360   -9.4280 O.co2 154  HEM154      0.0000
     17  NB        -5.1410   29.0340   -6.7360 N.ar  154  HEM154      0.0000
     18  C1B       -4.9950   29.6750   -5.5210 C.ar  154  HEM154      0.0000
     19  C2B       -4.6120   28.6990   -4.4980 C.ar  154  HEM154      0.0000
     20  C3B       -4.5440   27.4800   -5.1450 C.ar  154  HEM154      0.0000
     21  C4B       -4.8820   27.7100   -6.5490 C.ar  154  HEM154      0.0000
     22  CMB       -4.3490   29.0140   -3.0470 C.3   154  HEM154      0.0000
     23  CAB       -4.1960   26.1350   -4.5970 C.2   154  HEM154      0.0000
     24  CBB       -3.0260   25.7480   -4.1390 C.2   154  HEM154      0.0000
     25  NC        -5.5120   28.0750   -9.5310 N.2   154  HEM154      0.0000
     26  C1C       -5.2020   26.8880   -8.9320 C.2   154  HEM154      0.0000
     27  C2C       -5.1840   25.8310   -9.9530 C.2   154  HEM154      0.0000
     28  C3C       -5.4930   26.4350  -11.1560 C.2   154  HEM154      0.0000
     29  C4C       -5.7070   27.8670  -10.8660 C.2   154  HEM154      0.0000
     30  CMC       -4.8740   24.3780   -9.6650 C.3   154  HEM154      0.0000
     31  CAC       -5.6050   25.8290  -12.5060 C.2   154  HEM154      0.0000
     32  CBC       -5.1500   24.7810  -13.1690 C.2   154  HEM154      0.0000
     33  ND        -6.0890   30.8940  -10.3950 N.ar  154  HEM154      0.0000
     34  C1D       -6.1920   30.2540  -11.6060 C.ar  154  HEM154      0.0000
     35  C2D       -6.4610   31.2400  -12.6390 C.ar  154  HEM154      0.0000
     36  C3D       -6.5110   32.4700  -11.9950 C.ar  154  HEM154      0.0000
     37  C4D       -6.2860   32.2280  -10.5850 C.ar  154  HEM154      0.0000
     38  CMD       -6.6240   30.9530  -14.1130 C.3   154  HEM154      0.0000
     39  CAD       -6.7390   33.8070  -12.6330 C.2   154  HEM154      0.0000
     40  CBD       -5.6220   34.8030  -12.9850 C.2   154  HEM154      0.0000
     41  CGD       -5.0740   36.0750  -13.6200 C.2   154  HEM154      0.0000
     42  O1D       -5.5140   36.4210  -14.7440 O.co2 154  HEM154      0.0000
     43  O2D       -4.2070   36.7320  -12.9620 O.co2 154  HEM154      0.0000
@<TRIPOS>BOND
     1    42    41   ar
     2    38    35    1
     3    41    40    1
     4    41    43   ar
     5    32    31    2
     6    40    39    2
     7    35    36   ar
     8    35    34   ar
     9    39    36    1
    10    31    28    1
    11    36    37   ar
    12     5    34    2
    13     5    29    1
    14    34    33   ar
    15    28    29    1
    16    28    27    2
    17    29    25    2
    18    37    33   ar
    19    37     2    2
    20    33     1    1
    21    27    30    1
    22    27    26    1
    23     2     7    1
    24    25    26    1
    25    25     1    1
    26    16    14   ar
    27    26     4    2
    28     1     6    1
    29     1    17    1
    30    14    15   ar
    31    14    13    1
    32     7     6    2
    33     7     8    1
    34     6    10    1
    35     4    21    1
    36    12    13    1
    37    12     8    1
    38     8     9    2
    39    17    21   ar
    40    17    18   ar
    41    21    20   ar
    42    10     9    1
    43    10     3    2
    44     9    11    1
    45    18     3    1
    46    18    19   ar
    47    20    23    1
    48    20    19   ar
    49    23    24    2
    50    19    22    1
