@<TRIPOS>MOLECULE
2evs_GLC_A_1.pdb
 12 12 0 0 0
SMALL
GASTEIGER

@<TRIPOS>ATOM
      1  C1        67.8040   -7.4180   21.6780 C.3   300  GLC300      0.3024
      2  C2        67.5340   -5.9080   21.5090 C.3   300  GLC300      0.2434
      3  C3        68.1510   -5.0430   22.6030 C.3   300  GLC300      0.2199
      4  C4        68.1810   -5.8010   23.9260 C.3   300  GLC300      0.2144
      5  C5        69.0620   -7.0060   23.7770 C.3   300  GLC300      0.1836
      6  C6        69.0750   -7.8960   25.0240 C.3   300  GLC300      0.2142
      7  O1        68.2490   -8.0500   20.4900 O.3   300  GLC300     -0.1869
      8  O2        67.8390   -5.4290   20.2120 O.3   300  GLC300     -0.2148
      9  O3        67.4180   -3.8420   22.7780 O.3   300  GLC300     -0.2174
     10  O4        68.7950   -4.9740   24.8940 O.3   300  GLC300     -0.2176
     11  O5        68.7600   -7.8000   22.6440 O.3   300  GLC300     -0.3236
     12  O6        70.4080   -8.3080   25.2360 O.3   300  GLC300     -0.2176
@<TRIPOS>BOND
     1     8     2    1
     2     7     1    1
     3     2     1    1
     4     2     3    1
     5     1    11    1
     6     3     9    1
     7     3     4    1
     8    11     5    1
     9     5     4    1
    10     5     6    1
    11     4    10    1
    12     6    12    1
