@<TRIPOS>MOLECULE
2evw_CAG_X_1.pdb
 43 46 0 0 0
SMALL
GASTEIGER

@<TRIPOS>ATOM
      1  PG        20.0350   66.3040   -7.4340 P.3   367  CAG367      0.2191
      2  O1G       21.1530   65.4390   -7.9550 O.2   367  CAG367     -0.5170
      3  O2G       18.6010   65.8920   -7.6050 O.3   367  CAG367     -0.4371
      4  O3G       20.2520   67.7920   -7.9700 O.3   367  CAG367     -0.3118
      5  PB        20.9260   65.2360   -4.8640 P.3   367  CAG367      0.2237
      6  O1B       19.7150   64.3860   -4.5020 O.3   367  CAG367     -0.4369
      7  O2B       22.1450   64.6250   -5.5150 O.2   367  CAG367     -0.5168
      8  O3B       20.2920   66.3840   -5.8710 O.3   367  CAG367     -0.2701
      9  PA        22.7810   66.6040   -3.0790 P.3   367  CAG367      0.2189
     10  O1A       23.3180   65.4100   -2.3920 O.3   367  CAG367     -0.4371
     11  O2A       23.4690   67.2900   -4.2490 O.2   367  CAG367     -0.5170
     12  O3A       21.2840   66.1130   -3.5310 O.3   367  CAG367     -0.2701
     13  O5'       22.4970   67.7070   -1.9700 O.3   367  CAG367     -0.3112
     14  C5B       21.7040   68.8720   -2.1770 C.3   367  CAG367      0.1813
     15  C4B       21.9310   69.8870   -1.0620 C.3   367  CAG367      0.1799
     16  O4'       21.5190   69.3560    0.2080 O.3   367  CAG367     -0.3326
     17  C3B       23.3980   70.3280   -0.9240 C.3   367  CAG367      0.2158
     18  O3'       23.4700   71.7050   -0.5020 O.3   367  CAG367     -0.2175
     19  C2B       23.8570   69.4000    0.1930 C.3   367  CAG367      0.2310
     20  O2'       24.9150   69.9570    0.9680 O.3   367  CAG367     -0.2158
     21  C1B       22.6220   69.2050    1.0920 C.3   367  CAG367      0.2293
     22  N9        22.5530   67.9060    1.8410 N.pl3 367  CAG367     -0.2354
     23  C8        22.5940   66.6400    1.3290 C.3   367  CAG367      0.2246
     24  N7        22.5040   65.7050    2.3080 N.2   367  CAG367     -0.2322
     25  C5        22.3870   66.3760    3.4740 C.2   367  CAG367      0.2182
     26  C6        22.2440   66.0180    4.8970 C.1   367  CAG367      0.2372
     27  O6        22.2030   64.8300    5.3160 O.2   367  CAG367     -0.2069
     28  N1        22.1480   67.0300    5.7820 N.2   367  CAG367     -0.2485
     29  C2        22.1850   68.3350    5.4510 C.1   367  CAG367      0.2531
     30  N2        22.0900   69.2710    6.4260 N.pl3 367  CAG367     -0.0226
     31  N3        22.3000   68.7380    4.1580 N.2   367  CAG367     -0.3074
     32  C4        22.4170   67.8110    3.1740 C.2   367  CAG367      0.2300
     33  C'        19.2810   68.8180   -7.7710 C.3   367  CAG367      0.1457
     34  CM'       19.2440   69.6730   -9.0140 C.3   367  CAG367      0.0375
     35  C1'       19.6730   69.6560   -6.6070 C.ar  367  CAG367      0.0274
     36  C2'       18.6940   70.3190   -5.7210 C.ar  367  CAG367      0.1412
     37  N2'       17.3130   70.1960   -5.9440 N.pl3 367  CAG367      0.0574
     38  O'L       16.8510   69.8110   -6.9880 O.2   367  CAG367     -0.1261
     39  O'M       16.5120   70.5380   -5.0790 O.2   367  CAG367     -0.1261
     40  C3'       19.1740   71.0880   -4.6610 C.ar  367  CAG367      0.0238
     41  C4'       20.5430   71.2290   -4.4720 C.ar  367  CAG367      0.0017
     42  C5'       21.4700   70.5980   -5.2950 C.ar  367  CAG367     -0.0001
     43  C6'       21.0340   69.8150   -6.3460 C.ar  367  CAG367     -0.0003
@<TRIPOS>BOND
     1    34    33    1
     2     4    33    1
     3     4     1    1
     4     2     1    2
     5    33    35    1
     6     3     1    1
     7     1     8    1
     8    38    37    2
     9    35    43   ar
    10    35    36   ar
    11    43    42   ar
    12    37    36    1
    13    37    39    2
    14     8     5    1
    15    36    40   ar
    16     7     5    2
    17    42    41   ar
    18     5     6    1
    19     5    12    1
    20    40    41   ar
    21    11     9    2
    22    12     9    1
    23     9    10    1
    24     9    13    1
    25    14    13    1
    26    14    15    1
    27    15    17    1
    28    15    16    1
    29    17    18    1
    30    17    19    1
    31    19    20    1
    32    19    21    1
    33    16    21    1
    34    21    22    1
    35    23    22    1
    36    23    24    1
    37    22    32    1
    38    24    25    2
    39    32    25    1
    40    32    31    2
    41    25    26    1
    42    31    29    2
    43    26    27    2
    44    26    28    2
    45    29    28    2
    46    29    30    1
