@<TRIPOS>MOLECULE
2evw_XY2_X_1.pdb
 21 22 0 0 0
SMALL
GASTEIGER

@<TRIPOS>ATOM
      1  C1        15.8760   75.8530   -9.5170 C.ar  332  XY2332      0.1653
      2  C2        16.5610   76.7030   -8.6560 C.ar  332  XY2332      0.1667
      3  C3        17.8800   77.1060   -8.9670 C.ar  332  XY2332      0.1580
      4  C19       23.1090   74.7240   -8.3790 C.3   332  XY2332      0.0948
      5  C17       21.9230   74.6870   -9.3290 C.2   332  XY2332      0.2262
      6  O18       20.8700   74.2000   -8.9520 O.2   332  XY2332     -0.2749
      7  N15       22.0800   75.1630  -10.5790 N.am  332  XY2332     -0.2760
      8  C16       23.3160   75.7380  -11.1130 C.3   332  XY2332      0.1149
      9  C14       20.9830   75.1370  -11.5400 C.3   332  XY2332      0.1148
     10  C13       20.4210   76.5450  -11.7190 C.3   332  XY2332      0.1124
     11  N11       19.7890   77.0050  -10.4830 N.pl3 332  XY2332     -0.3028
     12  C12       20.5860   77.9000   -9.6500 C.3   332  XY2332      0.1123
     13  N5        16.1480   77.2480   -7.4860 N.ar  332  XY2332     -0.0465
     14  O6        17.2540   78.0230   -7.0540 O.2   332  XY2332     -0.2414
     15  N7        18.3300   77.9220   -7.9800 N.ar  332  XY2332     -0.0469
     16  N8        14.5710   75.4600   -9.2150 N.pl3 332  XY2332      0.0593
     17  O10       14.2460   75.2010   -8.0630 O.2   332  XY2332     -0.1261
     18  O9        13.7500   75.3790  -10.1140 O.2   332  XY2332     -0.1261
     19  C21       16.4780   75.4020  -10.6800 C.ar  332  XY2332      0.0271
     20  C20       17.7710   75.7870  -10.9890 C.ar  332  XY2332      0.0180
     21  C4        18.5000   76.6450  -10.1470 C.ar  332  XY2332      0.0708
@<TRIPOS>BOND
     1    10     9    1
     2    10    11    1
     3     9     7    1
     4     8     7    1
     5    20    19   ar
     6    20    21   ar
     7    19     1   ar
     8     7     5   am
     9    11    21    1
    10    11    12    1
    11    21     3   ar
    12    18    16    2
    13     1    16    1
    14     1     2   ar
    15     5     6    2
    16     5     4    1
    17    16    17    2
    18     3     2   ar
    19     3    15   ar
    20     2    13   ar
    21    15    14   ar
    22    13    14   ar
