@<TRIPOS>MOLECULE
2ew1_GNP_A_1.pdb
 32 34 0 0 0
SMALL
GASTEIGER

@<TRIPOS>ATOM
      1  PG        -7.7810   -5.8860   -5.5510 P.3   700  GNP700      0.4884
      2  O1G       -7.4470   -5.9240   -7.0340 O.2   700  GNP700     -0.2331
      3  O2G       -7.9590   -7.2310   -4.8330 O.3   700  GNP700     -0.1240
      4  O3G       -9.1160   -5.1260   -5.4030 O.3   700  GNP700     -0.1240
      5  N3B       -6.6330   -4.9170   -4.8580 N.3   700  GNP700     -0.0163
      6  PB        -6.3950   -4.6810   -3.2780 P.3   700  GNP700      0.4669
      7  O1B       -7.0500   -3.5110   -2.7470 O.2   700  GNP700     -0.2351
      8  O2B       -6.7980   -5.9430   -2.6030 O.3   700  GNP700     -0.1253
      9  O3A       -4.8830   -4.3390   -3.0270 O.3   700  GNP700     -0.2360
     10  PA        -3.6380   -5.2720   -2.7340 P.3   700  GNP700      0.2220
     11  O1A       -3.6310   -5.6250   -1.3010 O.3   700  GNP700     -0.4370
     12  O2A       -3.6380   -6.3400   -3.7290 O.2   700  GNP700     -0.5170
     13  O5'       -2.4080   -4.3630   -2.9650 O.3   700  GNP700     -0.3111
     14  C5'       -2.2760   -3.5060   -4.1330 C.3   700  GNP700      0.1813
     15  C4'       -0.8160   -3.1130   -4.3260 C.3   700  GNP700      0.1799
     16  O4'       -0.4540   -2.0920   -3.3640 O.3   700  GNP700     -0.3326
     17  C3'        0.1290   -4.2990   -4.1190 C.3   700  GNP700      0.2158
     18  O3'        1.2630   -4.0950   -4.9180 O.3   700  GNP700     -0.2175
     19  C2'        0.4680   -4.1700   -2.6370 C.3   700  GNP700      0.2310
     20  O2'        1.8110   -4.5720   -2.3960 O.3   700  GNP700     -0.2158
     21  C1'        0.4230   -2.6670   -2.4120 C.3   700  GNP700      0.2293
     22  N9         0.1540   -2.2440   -1.0340 N.pl3 700  GNP700     -0.2354
     23  C8        -0.8630   -2.6600   -0.2210 C.3   700  GNP700      0.2246
     24  N7        -0.8380   -2.1000    0.9320 N.2   700  GNP700     -0.2322
     25  C5         0.2810   -1.2870    0.8790 C.2   700  GNP700      0.2182
     26  C6         0.8050   -0.4310    1.8520 C.1   700  GNP700      0.2372
     27  O6         0.3800   -0.2470    2.9660 O.2   700  GNP700     -0.2069
     28  N1         1.9190    0.2460    1.4420 N.2   700  GNP700     -0.2485
     29  C2         2.5120    0.1150    0.2240 C.1   700  GNP700      0.2531
     30  N2         3.6000    0.8760    0.0790 N.pl3 700  GNP700     -0.0226
     31  N3         2.0360   -0.6560   -0.7280 N.2   700  GNP700     -0.3074
     32  C4         0.9250   -1.3520   -0.3210 C.2   700  GNP700      0.2300
@<TRIPOS>BOND
     1     2     1    2
     2     1     4    1
     3     1     5    1
     4     1     3    1
     5    18    17    1
     6     5     6    1
     7    15    14    1
     8    15    17    1
     9    15    16    1
    10    14    13    1
    11    17    19    1
    12    12    10    2
    13    16    21    1
    14     6     9    1
    15     6     7    2
    16     6     8    1
    17     9    10    1
    18    13    10    1
    19    10    11    1
    20    19    21    1
    21    19    20    1
    22    21    22    1
    23    22    32    1
    24    22    23    1
    25    31    32    2
    26    31    29    2
    27    32    25    1
    28    23    24    1
    29    30    29    1
    30    29    28    2
    31    25    24    2
    32    25    26    1
    33    28    26    2
    34    26    27    2
