@<TRIPOS>MOLECULE
2ew5_Y12_A_1.pdb
 27 28 0 0 0
SMALL
GASTEIGER

@<TRIPOS>ATOM
      1  C2       -74.4280  -66.8300   56.4590 C.ar  200  Y12200     -0.0000
      2  C3       -75.5880  -67.6330   56.6460 C.ar  200  Y12200     -0.0003
      3  C4       -76.8750  -67.0260   56.7000 C.ar  200  Y12200     -0.0042
      4  C5       -77.0170  -65.6160   56.5700 C.ar  200  Y12200     -0.0204
      5  C7       -78.4160  -64.9790   56.6230 C.3   200  Y12200      0.0498
      6  C8       -79.2440  -65.5160   55.4410 C.3   200  Y12200      0.1201
      7  N9       -78.9060  -64.8820   54.1500 N.am  200  Y12200     -0.2013
      8  C10      -79.5560  -65.3170   53.0320 C.2   200  Y12200      0.2649
      9  O27      -80.3970  -66.2240   53.1270 O.2   200  Y12200     -0.2684
     10  C11      -79.2790  -64.7070   51.6880 C.2   200  Y12200      0.0595
     11  C12      -79.8960  -65.1140   50.5320 C.2   200  Y12200      0.0048
     12  C13      -79.7640  -64.4780   49.1260 C.ar  200  Y12200      0.0034
     13  C18      -80.7100  -64.7880   48.0900 C.ar  200  Y12200      0.0408
     14  C17      -80.6520  -64.1710   46.7990 C.ar  200  Y12200      0.1828
     15  O23      -81.6310  -64.5190   45.8150 O.3   200  Y12200     -0.4210
     16  C24      -82.7120  -63.7130   45.5380 C.2   200  Y12200      0.3221
     17  O26      -82.9700  -62.6200   46.0790 O.2   200  Y12200     -0.2497
     18  C25      -83.6150  -64.2640   44.4840 C.3   200  Y12200      0.1216
     19  C16      -79.6200  -63.2120   46.5170 C.ar  200  Y12200      0.1828
     20  O19      -79.5680  -62.5670   45.2400 O.3   200  Y12200     -0.4210
     21  C20      -78.7610  -63.0120   44.2500 C.2   200  Y12200      0.3221
     22  O22      -78.0240  -63.9750   44.3370 O.2   200  Y12200     -0.2497
     23  C21      -78.8320  -62.2120   42.9880 C.3   200  Y12200      0.1216
     24  C15      -78.6460  -62.8910   47.5440 C.ar  200  Y12200      0.0408
     25  C14      -78.7290  -63.5250   48.8430 C.ar  200  Y12200      0.0033
     26  C6       -75.8540  -64.8140   56.3860 C.ar  200  Y12200     -0.0042
     27  C1       -74.5640  -65.4260   56.3300 C.ar  200  Y12200     -0.0003
@<TRIPOS>BOND
     1    23    21    1
     2    21    22    2
     3    21    20    1
     4    18    16    1
     5    20    19    1
     6    16    15    1
     7    16    17    2
     8    15    14    1
     9    19    14   ar
    10    19    24   ar
    11    14    13   ar
    12    24    25   ar
    13    13    12   ar
    14    25    12   ar
    15    12    11    1
    16    11    10    2
    17    10     8    1
    18     8     9    2
    19     8     7   am
    20     7     6    1
    21     6     5    1
    22    27    26   ar
    23    27     1   ar
    24    26     4   ar
    25     1     2   ar
    26     4     5    1
    27     4     3   ar
    28     2     3   ar
