@<TRIPOS>MOLECULE
2ew6_Y13_A_1.pdb
 22 23 0 0 0
SMALL
GASTEIGER

@<TRIPOS>ATOM
      1  C2       -53.5650  -92.9760  101.8340 C.ar  200  Y13200      0.1957
      2  O16      -52.2630  -93.4760  101.7900 O.3   200  Y13200     -0.2866
      3  C1       -53.8990  -91.7290  101.2340 C.ar  200  Y13200      0.0417
      4  C6       -55.2320  -91.2440  101.2920 C.ar  200  Y13200     -0.0009
      5  C5       -56.2470  -91.9960  101.9500 C.ar  200  Y13200     -0.0202
      6  C7       -57.6850  -91.4660  102.0040 C.3   200  Y13200      0.0498
      7  C8       -58.5160  -92.0950  100.8640 C.3   200  Y13200      0.1201
      8  N9       -58.1290  -91.4580   99.6030 N.am  200  Y13200     -0.2013
      9  C10      -58.7450  -91.8940   98.5500 C.2   200  Y13200      0.2649
     10  C11      -58.3820  -91.2670   97.2450 C.2   200  Y13200      0.0595
     11  C12      -58.9350  -91.6130   96.0560 C.2   200  Y13200      0.0048
     12  C13      -58.6220  -91.0030   94.6880 C.ar  200  Y13200      0.0035
     13  C14      -59.2490  -91.5870   93.5430 C.ar  200  Y13200      0.0035
     14  C15      -59.0130  -91.0730   92.2360 C.ar  200  Y13200      0.0454
     15  C16      -58.1410  -89.9590   92.0430 C.ar  200  Y13200      0.2343
     16  O19      -57.8990  -89.4420   90.7530 O.3   200  Y13200     -0.2831
     17  C17      -57.5040  -89.3610   93.1800 C.ar  200  Y13200      0.2343
     18  O23      -56.6500  -88.2720   92.9900 O.3   200  Y13200     -0.2831
     19  C18      -57.7460  -89.8830   94.4910 C.ar  200  Y13200      0.0454
     20  O27      -59.6000  -92.7830   98.5750 O.2   200  Y13200     -0.2684
     21  C4       -55.9120  -93.2430  102.5520 C.ar  200  Y13200     -0.0009
     22  C3       -54.5760  -93.7280  102.4930 C.ar  200  Y13200      0.0417
@<TRIPOS>BOND
     1    16    15    1
     2    15    14   ar
     3    15    17   ar
     4    14    13   ar
     5    18    17    1
     6    17    19   ar
     7    13    12   ar
     8    19    12   ar
     9    12    11    1
    10    11    10    2
    11    10     9    1
    12     9    20    2
    13     9     8   am
    14     8     7    1
    15     7     6    1
    16     3     4   ar
    17     3     1   ar
    18     4     5   ar
    19     2     1    1
    20     1    22   ar
    21     5     6    1
    22     5    21   ar
    23    22    21   ar
