@<TRIPOS>MOLECULE
2ewa_SB2_A_1.pdb
 27 30 0 0 0
SMALL
GASTEIGER

@<TRIPOS>ATOM
      1  O2        -0.3300    9.2600   24.1280 O.2   361  SB2361     -0.2514
      2  C1        -1.4230   10.5410   21.8210 C.3   361  SB2361      0.1110
      3  S1        -1.6730    9.4110   23.2440 S.O   361  SB2361      0.0658
      4  CA1       -2.4570    5.3800   22.9950 C.ar  361  SB2361      0.0126
      5  CA2       -2.0380    6.6730   23.4850 C.ar  361  SB2361      0.0094
      6  CA3       -2.2040    7.8440   22.6250 C.ar  361  SB2361      0.0562
      7  CA4       -2.7880    7.7500   21.2820 C.ar  361  SB2361      0.0094
      8  CA5       -3.2060    6.4460   20.8020 C.ar  361  SB2361      0.0126
      9  CA6       -3.0530    5.2140   21.6420 C.ar  361  SB2361      0.0856
     10  NB1       -3.6120   -2.3390   22.7720 N.ar  361  SB2361     -0.2423
     11  CB2       -4.0950   -1.3450   23.6270 C.ar  361  SB2361      0.0990
     12  CB3       -4.1700    0.0440   23.1630 C.ar  361  SB2361      0.0233
     13  CB4       -3.7210    0.3530   21.7690 C.ar  361  SB2361      0.0362
     14  CB5       -3.2110   -0.7840   20.9120 C.ar  361  SB2361      0.0233
     15  CB6       -3.1790   -2.1190   21.4670 C.ar  361  SB2361      0.0990
     16  NC1       -3.2780    2.7930   21.9870 N.2   361  SB2361     -0.3372
     17  CC2       -3.4490    3.9120   21.1770 C.1   361  SB2361      0.1379
     18  NC3       -4.0120    3.6940   19.9220 N.2   361  SB2361     -0.3372
     19  CC4       -4.2270    2.2950   19.9070 C.2   361  SB2361      0.1740
     20  CC5       -3.7570    1.7240   21.2200 C.2   361  SB2361      0.1741
     21  CD1       -4.1230    1.7920   17.4690 C.ar  361  SB2361      0.0050
     22  CD2       -4.6410    1.1720   16.2760 C.ar  361  SB2361      0.0297
     23  CD3       -5.8550    0.3820   16.3300 C.ar  361  SB2361      0.1401
     24  CD4       -6.5790    0.2000   17.6010 C.ar  361  SB2361      0.0297
     25  CD5       -6.0610    0.8240   18.8110 C.ar  361  SB2361      0.0050
     26  CD6       -4.8050    1.6420   18.7620 C.ar  361  SB2361      0.0333
     27  FD3       -6.2980   -0.1800   15.1720 F     361  SB2361     -0.2042
@<TRIPOS>BOND
     1    27    23    1
     2    22    23   ar
     3    22    21   ar
     4    23    24   ar
     5    21    26   ar
     6    24    25   ar
     7    26    25   ar
     8    26    19    1
     9    19    18    2
    10    19    20    1
    11    18    17    2
    12     8     7   ar
    13     8     9   ar
    14    14    15   ar
    15    14    13   ar
    16    17     9    1
    17    17    16    2
    18    20    13    1
    19    20    16    2
    20     7     6   ar
    21    15    10   ar
    22     9     4   ar
    23    13    12   ar
    24     2     3    1
    25     6     3    1
    26     6     5   ar
    27    10    11   ar
    28     4     5   ar
    29    12    11   ar
    30     3     1    2
