@<TRIPOS>MOLECULE
2ewb_ZED_A_1.pdb
 21 22 0 0 0
SMALL
GASTEIGER

@<TRIPOS>ATOM
      1  CZ1       70.8920   50.9340   21.6910 C.ar  2000  ZED2000     0.0061
      2  CZ2       69.5490   50.6460   21.9880 C.ar  2000  ZED2000     0.0252
      3  CZ3       69.2400   49.4540   22.6750 C.ar  2000  ZED2000     0.0061
      4  CZ4       70.2630   48.5460   23.0640 C.ar  2000  ZED2000     0.0005
      5  CZ5       71.6150   48.8420   22.7620 C.ar  2000  ZED2000     0.0000
      6  CZ6       71.9330   50.0410   22.0750 C.ar  2000  ZED2000     0.0005
      7  CZ7       66.2400   49.9210   19.6000 C.3   2000  ZED2000     0.1799
      8  CZ8       65.8970   49.4130   21.0150 C.2   2000  ZED2000     0.3825
      9  CZ9       67.7420   49.9840   19.3070 C.3   2000  ZED2000     0.0443
     10  CZA       68.1060   51.4100   19.7000 C.3   2000  ZED2000     0.0740
     11  CZB       66.9760   52.1600   19.0450 C.3   2000  ZED2000     0.1050
     12  CZC       62.6680   53.2860   19.3200 C.3   2000  ZED2000     0.0105
     13  CZD       64.0380   52.9360   18.6940 C.3   2000  ZED2000     0.0883
     14  CZE       64.4920   51.5100   19.0410 C.2   2000  ZED2000     0.2264
     15  CZF       64.0020   53.2110   17.1850 C.3   2000  ZED2000     0.0777
     16  OZ1       66.1820   48.2540   21.3310 O.co2 2000  ZED2000    -0.2438
     17  OZ2       65.3420   50.1800   21.8110 O.co2 2000  ZED2000    -0.2438
     18  OZ3       63.6610   50.5940   19.0620 O.2   2000  ZED2000    -0.2748
     19  NZ1       65.8040   51.3010   19.3300 N.am  2000  ZED2000    -0.2704
     20  SZ1       68.2350   51.7890   21.4790 S.3   2000  ZED2000    -0.1127
     21  SZ2       63.0650   52.0510   16.2040 S.3   2000  ZED2000    -0.0816
@<TRIPOS>BOND
     1    21    15    1
     2    15    13    1
     3    13    14    1
     4    13    12    1
     5    14    18    2
     6    14    19   am
     7    11    19    1
     8    11    10    1
     9     9     7    1
    10     9    10    1
    11    19     7    1
    12     7     8    1
    13    10    20    1
    14     8    16   ar
    15     8    17   ar
    16    20     2    1
    17     1     2   ar
    18     1     6   ar
    19     2     3   ar
    20     6     5   ar
    21     3     4   ar
    22     5     4   ar
