@<TRIPOS>MOLECULE
2ewd_A3D_A_1.pdb
 44 48 0 0 0
SMALL
GASTEIGER

@<TRIPOS>ATOM
      1  PA        15.4170   48.3050   66.7010 P.3   401  A3D401      0.2189
      2  O1A       14.5100   47.5740   67.4990 O.3   401  A3D401     -0.4371
      3  O2A       15.1390   48.7060   65.3000 O.2   401  A3D401     -0.5170
      4  O5B       15.9080   49.5720   67.4390 O.3   401  A3D401     -0.3112
      5  C5B       16.8140   50.6250   66.9410 C.3   401  A3D401      0.1813
      6  C4B       16.4070   51.8760   67.7870 C.3   401  A3D401      0.1821
      7  O4B       17.2440   52.9240   67.2280 O.3   401  A3D401     -0.3135
      8  C3B       14.9220   52.3940   67.5360 C.3   401  A3D401      0.2184
      9  O3B       14.1120   52.4120   68.6710 O.3   401  A3D401     -0.2174
     10  C2B       15.1560   53.7240   66.8860 C.3   401  A3D401      0.2570
     11  O2B       14.2100   54.7880   67.0220 O.3   401  A3D401     -0.2130
     12  C1B       16.4720   54.1120   67.4010 C.3   401  A3D401      0.3186
     13  N9A       17.1750   55.1280   66.6900 N.pl3 401  A3D401     -0.1439
     14  C8A       17.3430   55.4930   65.4020 C.3   401  A3D401      0.3377
     15  N7A       18.0020   56.4390   64.8870 N.2   401  A3D401     -0.2095
     16  C5A       18.4290   56.8990   66.0810 C.2   401  A3D401      0.2526
     17  C6A       19.2840   58.0260   66.4030 C.2   401  A3D401      0.4393
     18  N6A       19.8070   58.8370   65.4470 N.pl3 401  A3D401      0.2180
     19  N1A       19.5630   58.2580   67.7720 N.2   401  A3D401      0.0021
     20  C2A       19.0170   57.4100   68.7640 C.3   401  A3D401      0.5254
     21  N3A       18.2300   56.3690   68.5510 N.2   401  A3D401     -0.0055
     22  C4A       17.9660   56.1490   67.1930 C.2   401  A3D401      0.3518
     23  O3        16.9260   47.6170   66.6910 O.3   401  A3D401     -0.2703
     24  PN        17.4690   46.3900   67.5960 P.3   401  A3D401      0.2189
     25  O1N       16.8100   45.1340   67.3310 O.2   401  A3D401     -0.5170
     26  O2N       17.4960   46.9110   68.9690 O.3   401  A3D401     -0.4371
     27  O5D       18.9460   46.3500   67.0090 O.3   401  A3D401     -0.3112
     28  C5D       19.7620   47.4730   67.1620 C.3   401  A3D401      0.1813
     29  C4D       21.1100   47.3280   66.4770 C.3   401  A3D401      0.1799
     30  O4D       21.8880   46.2430   67.0610 O.3   401  A3D401     -0.3327
     31  C3D       21.1060   46.9660   64.9290 C.3   401  A3D401      0.2158
     32  O3D       22.0830   47.7020   64.2430 O.3   401  A3D401     -0.2175
     33  C2D       21.3710   45.4830   64.9610 C.3   401  A3D401      0.2309
     34  O2D       21.8100   44.9020   63.7180 O.3   401  A3D401     -0.2158
     35  C1D       22.3640   45.3940   66.0240 C.3   401  A3D401      0.2263
     36  N1N       22.5000   44.0930   66.5740 N.pl3 401  A3D401     -0.2787
     37  C2N       23.8740   43.7590   66.6370 C.3   401  A3D401      0.1226
     38  C3N       24.2070   42.5130   67.1200 C.2   401  A3D401      0.0324
     39  C7N       25.6360   41.9680   67.3140 C.2   401  A3D401      0.1712
     40  O7N       25.7260   40.8550   67.7500 O.2   401  A3D401     -0.2916
     41  C8N       26.6470   42.8180   67.0040 C.3   401  A3D401      0.0770
     42  C4N       23.1710   41.5470   67.5470 C.2   401  A3D401      0.0015
     43  C5N       21.7670   41.9910   67.4590 C.2   401  A3D401      0.0157
     44  C6N       21.3800   43.2450   66.9880 C.2   401  A3D401      0.0633
@<TRIPOS>BOND
     1    34    33    1
     2    32    31    1
     3    15    14    1
     4    15    16    2
     5    31    33    1
     6    31    29    1
     7    33    35    1
     8     3     1    2
     9    14    13    1
    10    18    17    1
    11    35    36    1
    12    35    30    1
    13    16    17    1
    14    16    22    1
    15    17    19    2
    16    29    30    1
    17    29    28    1
    18    36    37    1
    19    36    44    1
    20    37    38    1
    21    13    22    1
    22    13    12    1
    23    23     1    1
    24    23    24    1
    25     1     4    1
    26     1     2    1
    27    10    11    1
    28    10    12    1
    29    10     8    1
    30     5     4    1
    31     5     6    1
    32    44    43    2
    33    41    39    1
    34    27    28    1
    35    27    24    1
    36    38    39    1
    37    38    42    2
    38    22    21    2
    39     7    12    1
    40     7     6    1
    41    39    40    2
    42    25    24    2
    43    43    42    1
    44     8     6    1
    45     8     9    1
    46    24    26    1
    47    19    20    1
    48    21    20    1
