@<TRIPOS>MOLECULE
2ewe_ADA_A_1.pdb
 13 13 0 0 0
SMALL
GASTEIGER

@<TRIPOS>ATOM
      1  C1        15.9870    9.6440    1.1680 C.3   901  ADA901      0.3028
      2  C2        16.2320   10.6720    2.2820 C.3   901  ADA901      0.2435
      3  C3        15.5600   11.9860    1.9310 C.3   901  ADA901      0.2204
      4  C4        16.1090   12.4870    0.5980 C.3   901  ADA901      0.2229
      5  C5        15.7660   11.4160   -0.4610 C.3   901  ADA901      0.2530
      6  C6        16.1110   11.8060   -1.9090 C.2   901  ADA901      0.3941
      7  O1        14.6310    9.2530    1.1690 O.3   901  ADA901     -0.1869
      8  O2        15.7100   10.1880    3.5120 O.3   901  ADA901     -0.2148
      9  O3        15.7880   12.9370    2.9570 O.3   901  ADA901     -0.2174
     10  O4        17.5480   12.6280    0.7130 O.3   901  ADA901     -0.2171
     11  O5        16.4000   10.1690   -0.1030 O.3   901  ADA901     -0.3149
     12  O6B       15.7050   12.9460   -2.2600 O.co2 901  ADA901     -0.2429
     13  O6A       16.7120   10.9100   -2.5370 O.co2 901  ADA901     -0.2429
@<TRIPOS>BOND
     1    13     6   ar
     2    12     6   ar
     3     6     5    1
     4     5    11    1
     5     5     4    1
     6    11     1    1
     7     4    10    1
     8     4     3    1
     9     1     7    1
    10     1     2    1
    11     3     2    1
    12     3     9    1
    13     2     8    1
