@<TRIPOS>MOLECULE
2ewg_M0N_A_1.pdb
 20 21 0 0 0
SMALL
GASTEIGER

@<TRIPOS>ATOM
      1  O         25.9460    1.7970    9.9010 O.3   3001  M0N3001    -0.2104
      2  C9        25.2970    0.4980    9.7460 C.3   3001  M0N3001     0.2214
      3  C8        26.0360   -0.5770   10.1240 C.3   3001  M0N3001     0.0904
      4  C2        27.0140   -0.5610   11.2650 C.ar  3001  M0N3001     0.0652
      5  C1        27.7070    0.5050   11.7620 C.ar  3001  M0N3001     0.1137
      6  N1        28.4810    0.1190   12.8290 N.ar  3001  M0N3001    -0.2252
      7  C7        28.2920   -1.2170   13.0560 C.ar  3001  M0N3001     0.1476
      8  C6        28.8370   -2.0760   14.0070 C.ar  3001  M0N3001     0.0374
      9  C5        28.4670   -3.3920   13.9910 C.ar  3001  M0N3001     0.0046
     10  C4        27.5640   -3.8710   13.0410 C.ar  3001  M0N3001     0.0191
     11  C3        27.0240   -3.0270   12.0910 C.ar  3001  M0N3001     0.0811
     12  N2        27.3730   -1.6780   12.0840 N.ar  3001  M0N3001    -0.2924
     13  P1        23.8850    0.6710   10.8560 P.3   3001  M0N3001     0.1515
     14  O2        24.2060    0.3900   12.2790 O.3   3001  M0N3001    -0.3553
     15  O3        22.8650   -0.4690   10.5450 O.3   3001  M0N3001    -0.3553
     16  O1        23.3200    2.0170   10.3080 O.2   3001  M0N3001    -0.4572
     17  P2        24.9090    0.3550    7.9820 P.3   3001  M0N3001     0.1515
     18  O5        24.2990    1.6050    7.4230 O.3   3001  M0N3001    -0.3553
     19  O6        26.3180    0.1220    7.3390 O.2   3001  M0N3001    -0.4572
     20  O4        24.0400   -0.8680    7.7740 O.3   3001  M0N3001    -0.3553
@<TRIPOS>BOND
     1    19    17    2
     2    18    17    1
     3    20    17    1
     4    17     2    1
     5     2     1    1
     6     2     3    1
     7     2    13    1
     8     3     4    1
     9    16    13    2
    10    15    13    1
    11    13    14    1
    12     4     5   ar
    13     4    12   ar
    14     5     6   ar
    15    12    11   ar
    16    12     7   ar
    17    11    10   ar
    18     6     7   ar
    19    10     9   ar
    20     7     8   ar
    21     9     8   ar
