@<TRIPOS>MOLECULE
2ewi_HEM_A_1.pdb
 43 50 0 0 0
SMALL
GASTEIGER

@<TRIPOS>ATOM
      1 FE         23.8630   39.2340   26.2390 Fe    1004  HEM1004     0.0000
      2  CHA       21.9000   41.9530   25.6330 C.2   1004  HEM1004     0.0000
      3  CHB       21.6260   37.2620   24.6760 C.2   1004  HEM1004     0.0000
      4  CHC       25.7610   36.4450   26.9860 C.2   1004  HEM1004     0.0000
      5  CHD       26.2060   41.2270   27.6610 C.2   1004  HEM1004     0.0000
      6  NA        22.0710   39.5470   25.3790 N.ar  1004  HEM1004     0.0000
      7  C1A       21.3910   40.6990   25.2500 C.ar  1004  HEM1004     0.0000
      8  C2A       20.1250   40.4920   24.6660 C.ar  1004  HEM1004     0.0000
      9  C3A       20.0690   39.1540   24.3940 C.ar  1004  HEM1004     0.0000
     10  C4A       21.2620   38.6090   24.8470 C.ar  1004  HEM1004     0.0000
     11  CMA       18.9110   38.3990   23.7240 C.3   1004  HEM1004     0.0000
     12  CAA       19.0920   41.5280   24.2370 C.3   1004  HEM1004     0.0000
     13  CBA       19.1860   41.8460   22.7690 C.3   1004  HEM1004     0.0000
     14  CGA       18.0080   42.6740   22.2570 C.2   1004  HEM1004     0.0000
     15  O1A       16.8460   42.2790   22.5390 O.co2 1004  HEM1004     0.0000
     16  O2A       18.2240   43.7110   21.6170 O.co2 1004  HEM1004     0.0000
     17  NB        23.7580   37.2410   25.8410 N.2   1004  HEM1004     0.0000
     18  C1B       22.8210   36.6540   25.0510 C.2   1004  HEM1004     0.0000
     19  C2B       23.1770   35.3290   24.7320 C.2   1004  HEM1004     0.0000
     20  C3B       24.3620   35.0740   25.4200 C.2   1004  HEM1004     0.0000
     21  C4B       24.6470   36.2920   26.1060 C.2   1004  HEM1004     0.0000
     22  CMB       22.4100   34.4040   23.8220 C.3   1004  HEM1004     0.0000
     23  CAB       25.2010   33.8590   25.4220 C.3   1004  HEM1004     0.0000
     24  CBB       25.9650   33.6680   24.1690 C.3   1004  HEM1004     0.0000
     25  NC        25.6140   38.9120   27.1850 N.ar  1004  HEM1004     0.0000
     26  C1C       26.1500   37.6980   27.5170 C.ar  1004  HEM1004     0.0000
     27  C2C       27.2140   37.8620   28.4200 C.ar  1004  HEM1004     0.0000
     28  C3C       27.3810   39.2390   28.6010 C.ar  1004  HEM1004     0.0000
     29  C4C       26.3770   39.8330   27.7950 C.ar  1004  HEM1004     0.0000
     30  CMC       27.9790   36.7200   29.0490 C.3   1004  HEM1004     0.0000
     31  CAC       28.3840   39.9410   29.4400 C.3   1004  HEM1004     0.0000
     32  CBC       29.8190   39.5250   29.1900 C.3   1004  HEM1004     0.0000
     33  ND        24.0270   41.2140   26.5470 N.2   1004  HEM1004     0.0000
     34  C1D       25.1220   41.8530   27.0360 C.2   1004  HEM1004     0.0000
     35  C2D       24.9710   43.2580   26.9800 C.2   1004  HEM1004     0.0000
     36  C3D       23.7060   43.4690   26.4460 C.2   1004  HEM1004     0.0000
     37  C4D       23.1580   42.2050   26.2120 C.2   1004  HEM1004     0.0000
     38  CMD       25.9690   44.2820   27.4370 C.3   1004  HEM1004     0.0000
     39  CAD       23.0050   44.8110   26.2530 C.3   1004  HEM1004     0.0000
     40  CBD       22.2630   45.2760   27.5090 C.3   1004  HEM1004     0.0000
     41  CGD       21.3290   46.4360   27.2430 C.2   1004  HEM1004     0.0000
     42  O1D       21.8190   47.5180   26.8100 O.co2 1004  HEM1004     0.0000
     43  O2D       20.1030   46.2660   27.4620 O.co2 1004  HEM1004     0.0000
@<TRIPOS>BOND
     1    16    14   ar
     2    14    15   ar
     3    14    13    1
     4    13    12    1
     5    11     9    1
     6    22    19    1
     7    24    23    1
     8    12     8    1
     9     9     8   ar
    10     9    10   ar
    11     8     7   ar
    12     3    10    2
    13     3    18    1
    14    19    18    1
    15    19    20    2
    16    10     6   ar
    17    18    17    2
    18     7     6   ar
    19     7     2    2
    20     6     1    1
    21    20    23    1
    22    20    21    1
    23     2    37    1
    24    17    21    1
    25    17     1    1
    26    21     4    2
    27    37    36    1
    28    37    33    2
    29     1    33    1
    30     1    25    1
    31    39    36    1
    32    39    40    1
    33    36    35    2
    34    33    34    1
    35    42    41   ar
    36    35    34    1
    37    35    38    1
    38     4    26    1
    39    34     5    2
    40    25    26   ar
    41    25    29   ar
    42    41    43   ar
    43    41    40    1
    44    26    27   ar
    45     5    29    1
    46    29    28   ar
    47    27    28   ar
    48    27    30    1
    49    28    31    1
    50    32    31    1
