@<TRIPOS>MOLECULE
2ewk_HEM_A_1.pdb
 43 50 0 0 0
SMALL
GASTEIGER

@<TRIPOS>ATOM
      1  CHA       22.0310   41.9870   25.5420 C.2   1004  HEM1004     0.0000
      2  CHB       21.7410   37.2740   24.5230 C.2   1004  HEM1004     0.0000
      3  CHC       25.8540   36.4660   26.8470 C.2   1004  HEM1004     0.0000
      4  CHD       26.3420   41.2360   27.5590 C.2   1004  HEM1004     0.0000
      5  C1A       21.5400   40.7450   25.1610 C.ar  1004  HEM1004     0.0000
      6  C2A       20.2400   40.5730   24.5660 C.ar  1004  HEM1004     0.0000
      7  C3A       20.1820   39.1830   24.2920 C.ar  1004  HEM1004     0.0000
      8  C4A       21.3940   38.6120   24.7410 C.ar  1004  HEM1004     0.0000
      9  CMA       19.0560   38.4110   23.6060 C.3   1004  HEM1004     0.0000
     10  CAA       19.2280   41.5640   24.1970 C.3   1004  HEM1004     0.0000
     11  CBA       19.3410   41.9250   22.6960 C.3   1004  HEM1004     0.0000
     12  CGA       18.1540   42.7820   22.1920 C.2   1004  HEM1004     0.0000
     13  O1A       16.9980   42.4050   22.4890 O.co2 1004  HEM1004     0.0000
     14  O2A       18.3820   43.8080   21.5490 O.co2 1004  HEM1004     0.0000
     15  C1B       22.9060   36.6850   24.9290 C.2   1004  HEM1004     0.0000
     16  C2B       23.2560   35.3420   24.6440 C.2   1004  HEM1004     0.0000
     17  C3B       24.4510   35.0800   25.2850 C.2   1004  HEM1004     0.0000
     18  C4B       24.7910   36.3040   25.9900 C.2   1004  HEM1004     0.0000
     19  CMB       22.4440   34.4550   23.6880 C.3   1004  HEM1004     0.0000
     20  CAB       25.2740   33.8680   25.2950 C.3   1004  HEM1004     0.0000
     21  CBB       26.1090   33.7130   24.0340 C.3   1004  HEM1004     0.0000
     22  C1C       26.2410   37.6690   27.3820 C.ar  1004  HEM1004     0.0000
     23  C2C       27.3330   37.8260   28.2850 C.ar  1004  HEM1004     0.0000
     24  C3C       27.5100   39.1930   28.4680 C.ar  1004  HEM1004     0.0000
     25  C4C       26.4920   39.8230   27.6990 C.ar  1004  HEM1004     0.0000
     26  CMC       28.1040   36.6590   28.9200 C.3   1004  HEM1004     0.0000
     27  CAC       28.5240   39.8990   29.3190 C.3   1004  HEM1004     0.0000
     28  CBC       29.9860   39.4980   29.0410 C.3   1004  HEM1004     0.0000
     29  C1D       25.2920   41.8350   26.9470 C.2   1004  HEM1004     0.0000
     30  C2D       25.1370   43.2760   26.8890 C.2   1004  HEM1004     0.0000
     31  C3D       23.8770   43.4920   26.3740 C.2   1004  HEM1004     0.0000
     32  C4D       23.2990   42.1940   26.1190 C.2   1004  HEM1004     0.0000
     33  CMD       26.1200   44.2790   27.3480 C.3   1004  HEM1004     0.0000
     34  CAD       23.1800   44.8410   26.1840 C.3   1004  HEM1004     0.0000
     35  CBD       22.4730   45.3120   27.4690 C.3   1004  HEM1004     0.0000
     36  CGD       21.5520   46.4700   27.2280 C.2   1004  HEM1004     0.0000
     37  O1D       22.0280   47.5480   26.7780 O.co2 1004  HEM1004     0.0000
     38  O2D       20.3160   46.2910   27.4560 O.co2 1004  HEM1004     0.0000
     39  NA        22.2420   39.5710   25.2930 N.ar  1004  HEM1004     0.0000
     40  NB        23.8710   37.2920   25.7100 N.2   1004  HEM1004     0.0000
     41  NC        25.6940   38.9010   27.0460 N.ar  1004  HEM1004     0.0000
     42  ND        24.1700   41.1980   26.4410 N.2   1004  HEM1004     0.0000
     43 FE         23.9920   39.2450   26.1270 Fe    1004  HEM1004     0.0000
@<TRIPOS>BOND
     1    14    12   ar
     2    12    13   ar
     3    12    11    1
     4    11    10    1
     5     9     7    1
     6    19    16    1
     7    21    20    1
     8    10     6    1
     9     7     6   ar
    10     7     8   ar
    11     2     8    2
    12     2    15    1
    13     6     5   ar
    14    16    15    1
    15    16    17    2
    16     8    39   ar
    17    15    40    2
    18     5    39   ar
    19     5     1    2
    20    17    20    1
    21    17    18    1
    22    39    43    1
    23     1    32    1
    24    40    18    1
    25    40    43    1
    26    18     3    2
    27    32    31    1
    28    32    42    2
    29    43    42    1
    30    43    41    1
    31    34    31    1
    32    34    35    1
    33    31    30    2
    34    42    29    1
    35    37    36   ar
    36     3    22    1
    37    30    29    1
    38    30    33    1
    39    29     4    2
    40    41    22   ar
    41    41    25   ar
    42    36    38   ar
    43    36    35    1
    44    22    23   ar
    45     4    25    1
    46    25    24   ar
    47    23    24   ar
    48    23    26    1
    49    24    27    1
    50    28    27    1
