@<TRIPOS>MOLECULE
2ewm_NAD_A_1.pdb
 44 48 0 0 0
SMALL
GASTEIGER

@<TRIPOS>ATOM
      1  PA        36.5440  -63.2880 -134.5380 P.3   257  NAD257      0.2189
      2  O1A       35.5890  -62.1860 -134.4520 O.3   257  NAD257     -0.4371
      3  O2A       37.1750  -63.6030 -135.8860 O.2   257  NAD257     -0.5170
      4  O5B       35.8670  -64.6140 -133.9620 O.3   257  NAD257     -0.3112
      5  C5B       36.6110  -65.7800 -133.6340 C.3   257  NAD257      0.1813
      6  C4B       36.5880  -66.7960 -134.7910 C.3   257  NAD257      0.1821
      7  O4B       36.8390  -68.0500 -134.1590 O.3   257  NAD257     -0.3135
      8  C3B       35.2740  -66.9290 -135.5640 C.3   257  NAD257      0.2184
      9  O3B       35.5030  -67.1770 -136.9530 O.3   257  NAD257     -0.2174
     10  C2B       34.5710  -68.0760 -134.8570 C.3   257  NAD257      0.2570
     11  O2B       33.6320  -68.7870 -135.6270 O.3   257  NAD257     -0.2130
     12  C1B       35.7530  -68.9400 -134.4240 C.3   257  NAD257      0.3186
     13  N9A       35.5330  -69.8380 -133.2700 N.pl3 257  NAD257     -0.1439
     14  C8A       35.0400  -69.5630 -132.0150 C.3   257  NAD257      0.3377
     15  N7A       34.9260  -70.7240 -131.3310 N.2   257  NAD257     -0.2095
     16  C5A       35.3350  -71.7400 -132.1230 C.2   257  NAD257      0.2526
     17  C6A       35.3970  -73.1420 -131.9800 C.2   257  NAD257      0.4393
     18  N6A       35.0330  -73.7300 -130.8450 N.pl3 257  NAD257      0.2180
     19  N1A       35.8350  -73.9270 -133.0540 N.2   257  NAD257      0.0021
     20  C2A       36.2970  -73.3210 -134.2240 C.3   257  NAD257      0.5254
     21  N3A       36.2820  -71.9400 -134.3530 N.2   257  NAD257     -0.0055
     22  C4A       35.7680  -71.1800 -133.3340 C.2   257  NAD257      0.3518
     23  O3        37.7190  -63.0170 -133.4810 O.3   257  NAD257     -0.2703
     24  PN        39.1260  -62.2450 -133.6910 P.3   257  NAD257      0.2189
     25  O1N       39.1090  -60.9830 -132.9230 O.3   257  NAD257     -0.4371
     26  O2N       39.3320  -61.9540 -135.1150 O.2   257  NAD257     -0.5170
     27  O5D       40.3160  -63.1660 -133.1660 O.3   257  NAD257     -0.3112
     28  C5D       40.1230  -63.8550 -131.9620 C.3   257  NAD257      0.1813
     29  C4D       41.4370  -64.2540 -131.3060 C.3   257  NAD257      0.1799
     30  O4D       42.2160  -63.0920 -131.0740 O.3   257  NAD257     -0.3327
     31  C3D       41.2000  -64.8930 -129.9470 C.3   257  NAD257      0.2158
     32  O3D       42.2050  -65.8570 -129.6900 O.3   257  NAD257     -0.2175
     33  C2D       41.2660  -63.7210 -128.9950 C.3   257  NAD257      0.2309
     34  O2D       41.5740  -64.1050 -127.6800 O.3   257  NAD257     -0.2158
     35  C1D       42.3300  -62.8430 -129.6830 C.3   257  NAD257      0.2263
     36  N1N       42.2950  -61.3720 -129.4200 N.pl3 257  NAD257     -0.2787
     37  C2N       41.2930  -60.6100 -130.0290 C.3   257  NAD257      0.1244
     38  C3N       41.1640  -59.2440 -129.7070 C.2   257  NAD257      0.0544
     39  C7N       40.0900  -58.4140 -130.3630 C.2   257  NAD257      0.2818
     40  O7N       40.0380  -57.0730 -130.0540 O.2   257  NAD257     -0.2670
     41  N7N       39.2030  -58.9000 -131.2100 N.am  257  NAD257     -0.0839
     42  C4N       42.0430  -58.6830 -128.7480 C.2   257  NAD257      0.0033
     43  C5N       43.0630  -59.4580 -128.1620 C.2   257  NAD257      0.0157
     44  C6N       43.1790  -60.8110 -128.5120 C.2   257  NAD257      0.0633
@<TRIPOS>BOND
     1     9     8    1
     2     3     1    2
     3    11    10    1
     4     8    10    1
     5     8     6    1
     6    26    24    2
     7    10    12    1
     8     6     7    1
     9     6     5    1
    10     1     2    1
    11     1     4    1
    12     1    23    1
    13    12     7    1
    14    12    13    1
    15    21    20    1
    16    21    22    2
    17    20    19    1
    18     4     5    1
    19    24    23    1
    20    24    27    1
    21    24    25    1
    22    22    13    1
    23    22    16    1
    24    13    14    1
    25    27    28    1
    26    19    17    2
    27    16    17    1
    28    16    15    2
    29    14    15    1
    30    17    18    1
    31    28    29    1
    32    29    30    1
    33    29    31    1
    34    41    39   am
    35    30    35    1
    36    39    40    2
    37    39    38    1
    38    37    38    1
    39    37    36    1
    40    31    32    1
    41    31    33    1
    42    38    42    2
    43    35    36    1
    44    35    33    1
    45    36    44    1
    46    33    34    1
    47    42    43    1
    48    44    43    2
