@<TRIPOS>MOLECULE
2ewn_BTX_A_1.pdb
 37 41 0 0 0
SMALL
GASTEIGER

@<TRIPOS>ATOM
      1  P          2.4540   44.5150  -28.8200 P.3   501  BTX501      0.2141
      2  O1P        3.5300   43.6650  -28.1920 O.2   501  BTX501     -0.5172
      3  O2P        1.9770   45.6440  -27.8740 O.3   501  BTX501     -0.4373
      4  O5'        1.1930   43.5990  -29.3150 O.3   501  BTX501     -0.3114
      5  C5'        0.4110   42.8100  -28.4730 C.3   501  BTX501      0.1813
      6  C4'       -0.8740   42.4430  -29.0130 C.3   501  BTX501      0.1821
      7  O4'       -1.2690   43.0230  -30.2260 O.3   501  BTX501     -0.3135
      8  C3'       -1.0240   41.0480  -29.3060 C.3   501  BTX501      0.2184
      9  O3'       -0.7540   40.0830  -28.3170 O.3   501  BTX501     -0.2174
     10  C2'       -2.4000   41.0140  -29.8710 C.3   501  BTX501      0.2570
     11  O2'       -3.3110   40.9190  -28.8140 O.3   501  BTX501     -0.2130
     12  C1'       -2.4690   42.3110  -30.6830 C.3   501  BTX501      0.3186
     13  N9        -2.3660   42.2360  -32.1570 N.pl3 501  BTX501     -0.1439
     14  C8        -1.7270   41.2990  -32.9370 C.3   501  BTX501      0.3377
     15  N7        -1.8600   41.6430  -34.2330 N.2   501  BTX501     -0.2095
     16  C5        -2.5960   42.7990  -34.2970 C.2   501  BTX501      0.2526
     17  C6        -2.9840   43.5710  -35.3950 C.2   501  BTX501      0.4393
     18  N6        -2.6560   43.2090  -36.6540 N.pl3 501  BTX501      0.2180
     19  N1        -3.7520   44.7490  -35.1180 N.2   501  BTX501      0.0021
     20  C2        -4.0940   45.1440  -33.8190 C.3   501  BTX501      0.5254
     21  N3        -3.6770   44.3480  -32.7330 N.2   501  BTX501     -0.0055
     22  C4        -2.9180   43.1970  -33.0070 C.2   501  BTX501      0.3518
     23  CBB        3.8500   45.8570  -30.5400 C.3   501  BTX501      0.1491
     24  OBB        2.8700   45.1050  -30.1150 O.3   501  BTX501     -0.3141
     25  CAB        3.9060   46.0640  -32.0320 C.3   501  BTX501      0.0325
     26  C9B        3.8810   44.8890  -33.0130 C.3   501  BTX501      0.0026
     27  C8B        4.9520   45.0580  -34.0830 C.3   501  BTX501      0.0010
     28  C7B        4.4930   44.6480  -35.4770 C.3   501  BTX501      0.0128
     29  C2B        5.4820   44.9420  -36.6160 C.3   501  BTX501      0.0729
     30  S1B        4.9740   44.2550  -38.1980 S.3   501  BTX501     -0.1369
     31  C6B        6.5000   44.8070  -38.9220 C.3   501  BTX501      0.0848
     32  C5B        7.5260   44.3720  -37.8630 C.3   501  BTX501      0.1509
     33  N1B        7.9120   42.9520  -37.9790 N.2   501  BTX501     -0.1859
     34  C3B        7.6370   42.2930  -36.8230 C.1   501  BTX501      0.2386
     35  O3B        7.8710   41.0660  -36.6060 O.2   501  BTX501     -0.2023
     36  N2B        7.0750   43.1360  -35.8900 N.2   501  BTX501     -0.1860
     37  C4B        6.9470   44.4730  -36.4300 C.3   501  BTX501      0.1500
@<TRIPOS>BOND
     1    31    30    1
     2    31    32    1
     3    30    29    1
     4    33    32    1
     5    33    34    2
     6    32    37    1
     7    34    35    2
     8    34    36    2
     9    18    17    1
    10    29    37    1
    11    29    28    1
    12    37    36    1
    13    28    27    1
    14    17    19    2
    15    17    16    1
    16    19    20    1
    17    16    15    2
    18    16    22    1
    19    15    14    1
    20    27    26    1
    21    20    21    1
    22    26    25    1
    23    22    21    2
    24    22    13    1
    25    14    13    1
    26    13    12    1
    27    25    23    1
    28    12     7    1
    29    12    10    1
    30    23    24    1
    31     7     6    1
    32    24     1    1
    33    10     8    1
    34    10    11    1
    35     4     1    1
    36     4     5    1
    37     8     6    1
    38     8     9    1
    39     6     5    1
    40     1     2    2
    41     1     3    1
