@<TRIPOS>MOLECULE
2ewp_TXF_A_1.pdb
 31 33 0 0 0
SMALL
GASTEIGER

@<TRIPOS>ATOM
      1  O29       25.1870    3.2040   27.5250 O.3   501  TXF501     -0.2866
      2  C26       24.1260    2.5960   28.1510 C.ar  501  TXF501      0.1957
      3  C25       23.2560    3.2750   29.0030 C.ar  501  TXF501      0.0420
      4  C24       22.1930    2.5950   29.6160 C.ar  501  TXF501      0.0033
      5  C27       23.9270    1.2480   27.9280 C.ar  501  TXF501      0.0420
      6  C28       22.8770    0.5700   28.5290 C.ar  501  TXF501      0.0033
      7  C23       22.0110    1.2200   29.4030 C.ar  501  TXF501     -0.0001
      8  C11       20.8550    0.4410   30.0040 C.2   501  TXF501     -0.0040
      9  C12       20.9520   -0.7150   30.7100 C.2   501  TXF501     -0.0221
     10  C17       19.7570   -1.4600   31.2430 C.ar  501  TXF501     -0.0040
     11  C22       19.4050   -1.4360   32.5730 C.ar  501  TXF501     -0.0003
     12  C21       18.3050   -2.1540   33.0290 C.ar  501  TXF501     -0.0000
     13  C20       17.5490   -2.9090   32.1470 C.ar  501  TXF501     -0.0000
     14  C19       17.9110   -2.9500   30.8080 C.ar  501  TXF501     -0.0000
     15  C18       19.0080   -2.2310   30.3600 C.ar  501  TXF501     -0.0003
     16  C13       22.2600   -1.4090   30.9980 C.3   501  TXF501      0.0290
     17  C14       22.2880   -2.7960   30.3670 C.3   501  TXF501      0.0402
     18  C15       23.6710   -3.4200   30.5150 C.3   501  TXF501      0.1825
     19  O16       24.1060   -3.2970   31.8650 O.3   501  TXF501     -0.2204
     20  C8        19.5400    1.1000   29.7570 C.ar  501  TXF501     -0.0001
     21  C7        18.7710    1.5010   30.8460 C.ar  501  TXF501      0.0031
     22  C6        17.5620    2.1470   30.6490 C.ar  501  TXF501      0.0369
     23  C9        19.1250    1.3980   28.4670 C.ar  501  TXF501      0.0031
     24  C10       17.9030    2.0450   28.2700 C.ar  501  TXF501      0.0369
     25  C5        17.1250    2.4380   29.3550 C.ar  501  TXF501      0.1386
     26  O4        15.9100    3.0620   29.1720 O.3   501  TXF501     -0.4740
     27  C3        15.6850    4.3120   28.5400 C.3   501  TXF501      0.2226
     28  C2        14.6030    5.0320   29.3380 C.3   501  TXF501      0.1201
     29  N1        13.6650    5.7190   28.4320 N.3   501  TXF501     -0.2672
     30  C31       12.8230    6.6760   29.1910 C.3   501  TXF501      0.0898
     31  C30       12.8060    4.7430   27.7410 C.3   501  TXF501      0.0898
@<TRIPOS>BOND
     1     1     2    1
     2    31    29    1
     3     5     2   ar
     4     5     6   ar
     5     2     3   ar
     6    24    23   ar
     7    24    25   ar
     8    29    30    1
     9    29    28    1
    10    23    20   ar
    11     6     7   ar
    12    27    26    1
    13    27    28    1
    14     3     4   ar
    15    26    25    1
    16    25    22   ar
    17     7     4   ar
    18     7     8    1
    19    20     8    1
    20    20    21   ar
    21     8     9    2
    22    15    14   ar
    23    15    10   ar
    24    17    18    1
    25    17    16    1
    26    18    19    1
    27    22    21   ar
    28     9    16    1
    29     9    10    1
    30    14    13   ar
    31    10    11   ar
    32    13    12   ar
    33    11    12   ar
