@<TRIPOS>MOLECULE
2ews_ANP_A_1.pdb
 31 33 0 0 0
SMALL
GASTEIGER

@<TRIPOS>ATOM
      1  PG        19.1260   24.5240   -0.4790 P.3   1001  ANP1001     0.4884
      2  O1G       19.5070   25.4890    0.6100 O.3   1001  ANP1001    -0.1240
      3  O2G       18.6610   23.2060    0.0600 O.3   1001  ANP1001    -0.1240
      4  O3G       20.3230   24.1550   -1.3870 O.2   1001  ANP1001    -0.2331
      5  PB        17.1640   24.8150   -2.7860 P.3   1001  ANP1001     0.4669
      6  O1B       17.7180   23.6320   -3.3500 O.2   1001  ANP1001    -0.2351
      7  O2B       15.6650   24.6830   -2.5850 O.3   1001  ANP1001    -0.1253
      8  N3B       17.8700   25.2100   -1.3140 N.3   1001  ANP1001    -0.0163
      9  PA        17.1730   26.2570   -5.3440 P.3   1001  ANP1001     0.2220
     10  O1A       18.5210   26.1740   -6.1390 O.2   1001  ANP1001    -0.5170
     11  O2A       16.1420   25.2760   -5.8070 O.3   1001  ANP1001    -0.4370
     12  O3A       17.4840   26.0520   -3.7800 O.3   1001  ANP1001    -0.2360
     13  O5'       16.6320   27.7660   -5.4630 O.3   1001  ANP1001    -0.3111
     14  C5'       15.4000   28.0970   -4.7860 C.3   1001  ANP1001     0.1813
     15  C4'       15.0090   29.5140   -5.2090 C.3   1001  ANP1001     0.1821
     16  O4'       14.6320   29.4450   -6.5960 O.3   1001  ANP1001    -0.3135
     17  C3'       13.7730   30.0210   -4.5170 C.3   1001  ANP1001     0.2184
     18  O3'       14.1130   30.6520   -3.2790 O.3   1001  ANP1001    -0.2174
     19  C2'       13.1940   30.8980   -5.5660 C.3   1001  ANP1001     0.2570
     20  O2'       13.7740   32.2250   -5.4620 O.3   1001  ANP1001    -0.2130
     21  C1'       13.5820   30.2670   -6.8540 C.3   1001  ANP1001     0.3186
     22  N9        12.5270   29.5350   -7.6100 N.pl3 1001  ANP1001    -0.1439
     23  C8        12.5850   29.0810   -8.8600 C.3   1001  ANP1001     0.3377
     24  N7        11.4750   28.4930   -9.2730 N.2   1001  ANP1001    -0.2095
     25  C5        10.6220   28.5610   -8.2050 C.2   1001  ANP1001     0.2526
     26  C6         9.2450   28.1130   -8.0040 C.2   1001  ANP1001     0.4393
     27  N6         8.4450   27.5050   -8.7970 N.pl3 1001  ANP1001     0.2180
     28  N1         8.7920   28.4060   -6.7540 N.2   1001  ANP1001     0.0021
     29  C2         9.5040   29.0520   -5.7690 C.3   1001  ANP1001     0.5254
     30  N3        10.7450   29.4670   -5.9340 N.2   1001  ANP1001    -0.0055
     31  C4        11.2640   29.2070   -7.1690 C.2   1001  ANP1001     0.3518
@<TRIPOS>BOND
     1    24    23    1
     2    24    25    2
     3    23    22    1
     4    27    26    1
     5    25    26    1
     6    25    31    1
     7    26    28    2
     8    22    31    1
     9    22    21    1
    10    31    30    2
    11    21    16    1
    12    21    19    1
    13    28    29    1
    14    16    15    1
    15    10     9    2
    16    30    29    1
    17    11     9    1
    18    19    20    1
    19    19    17    1
    20    13     9    1
    21    13    14    1
    22     9    12    1
    23    15    14    1
    24    15    17    1
    25    17    18    1
    26    12     5    1
    27     6     5    2
    28     5     7    1
    29     5     8    1
    30     4     1    2
    31     8     1    1
    32     1     3    1
    33     1     2    1
