@<TRIPOS>MOLECULE
2ewu_HEM_A_1.pdb
 43 50 0 0 0
SMALL
GASTEIGER

@<TRIPOS>ATOM
      1 FE         23.7930   39.2940   26.3540 Fe    1004  HEM1004     0.0000
      2  CHA       21.8070   42.0330   25.7350 C.2   1004  HEM1004     0.0000
      3  CHB       21.5510   37.3050   24.8000 C.2   1004  HEM1004     0.0000
      4  CHC       25.6990   36.5290   27.0850 C.2   1004  HEM1004     0.0000
      5  CHD       26.1240   41.2970   27.7520 C.2   1004  HEM1004     0.0000
      6  NA        21.9870   39.6090   25.4940 N.ar  1004  HEM1004     0.0000
      7  C1A       21.3110   40.7750   25.3700 C.ar  1004  HEM1004     0.0000
      8  C2A       20.0600   40.5430   24.7540 C.ar  1004  HEM1004     0.0000
      9  C3A       19.9640   39.1860   24.5170 C.ar  1004  HEM1004     0.0000
     10  C4A       21.1730   38.6410   24.9990 C.ar  1004  HEM1004     0.0000
     11  CMA       18.8550   38.4020   23.8530 C.3   1004  HEM1004     0.0000
     12  CAA       19.0440   41.5970   24.3340 C.3   1004  HEM1004     0.0000
     13  CBA       19.1360   41.9130   22.8520 C.3   1004  HEM1004     0.0000
     14  CGA       17.9480   42.6760   22.3420 C.2   1004  HEM1004     0.0000
     15  O1A       16.7990   42.2840   22.6210 O.co2 1004  HEM1004     0.0000
     16  O2A       18.1450   43.7310   21.7220 O.co2 1004  HEM1004     0.0000
     17  NB        23.6910   37.2670   25.9460 N.2   1004  HEM1004     0.0000
     18  C1B       22.7660   36.6900   25.1570 C.2   1004  HEM1004     0.0000
     19  C2B       23.0870   35.3610   24.9030 C.2   1004  HEM1004     0.0000
     20  C3B       24.2820   35.1080   25.5880 C.2   1004  HEM1004     0.0000
     21  C4B       24.6100   36.3250   26.2330 C.2   1004  HEM1004     0.0000
     22  CMB       22.2750   34.4200   24.0240 C.3   1004  HEM1004     0.0000
     23  CAB       25.1080   33.9230   25.5850 C.3   1004  HEM1004     0.0000
     24  CBB       25.9100   33.7480   24.3420 C.3   1004  HEM1004     0.0000
     25  NC        25.5540   38.9770   27.3000 N.ar  1004  HEM1004     0.0000
     26  C1C       26.0960   37.7860   27.6220 C.ar  1004  HEM1004     0.0000
     27  C2C       27.1450   37.9360   28.5510 C.ar  1004  HEM1004     0.0000
     28  C3C       27.3450   39.3070   28.6870 C.ar  1004  HEM1004     0.0000
     29  C4C       26.3260   39.9200   27.9030 C.ar  1004  HEM1004     0.0000
     30  CMC       27.9050   36.8000   29.2000 C.3   1004  HEM1004     0.0000
     31  CAC       28.3290   40.0200   29.5120 C.3   1004  HEM1004     0.0000
     32  CBC       29.7670   39.6140   29.2970 C.3   1004  HEM1004     0.0000
     33  ND        23.9580   41.3010   26.6440 N.2   1004  HEM1004     0.0000
     34  C1D       25.0550   41.9230   27.1250 C.2   1004  HEM1004     0.0000
     35  C2D       24.8880   43.3050   27.0570 C.2   1004  HEM1004     0.0000
     36  C3D       23.6280   43.5240   26.5280 C.2   1004  HEM1004     0.0000
     37  C4D       23.0820   42.2630   26.2970 C.2   1004  HEM1004     0.0000
     38  CMD       25.9000   44.3640   27.4880 C.3   1004  HEM1004     0.0000
     39  CAD       22.9290   44.8730   26.3310 C.3   1004  HEM1004     0.0000
     40  CBD       22.2150   45.3370   27.6070 C.3   1004  HEM1004     0.0000
     41  CGD       21.2770   46.5080   27.3530 C.2   1004  HEM1004     0.0000
     42  O1D       21.7530   47.5770   26.8840 O.co2 1004  HEM1004     0.0000
     43  O2D       20.0520   46.3360   27.6000 O.co2 1004  HEM1004     0.0000
@<TRIPOS>BOND
     1    16    14   ar
     2    14    15   ar
     3    14    13    1
     4    13    12    1
     5    11     9    1
     6    22    19    1
     7    12     8    1
     8    24    23    1
     9     9     8   ar
    10     9    10   ar
    11     8     7   ar
    12     3    10    2
    13     3    18    1
    14    19    18    1
    15    19    20    2
    16    10     6   ar
    17    18    17    2
    18     7     6   ar
    19     7     2    2
    20     6     1    1
    21    23    20    1
    22    20    21    1
    23     2    37    1
    24    17    21    1
    25    17     1    1
    26    21     4    2
    27    37    36    1
    28    37    33    2
    29    39    36    1
    30    39    40    1
    31     1    33    1
    32     1    25    1
    33    36    35    2
    34    33    34    1
    35    42    41   ar
    36    35    34    1
    37    35    38    1
    38     4    26    1
    39    34     5    2
    40    25    26   ar
    41    25    29   ar
    42    41    43   ar
    43    41    40    1
    44    26    27   ar
    45     5    29    1
    46    29    28   ar
    47    27    28   ar
    48    27    30    1
    49    28    31    1
    50    32    31    1
