@<TRIPOS>MOLECULE
2ewv_ADP_A_1.pdb
 27 29 0 0 0
SMALL
GASTEIGER

@<TRIPOS>ATOM
      1  PB        -4.9310   38.6290    8.7030 P.3   500  ADP500      0.5373
      2  O1B       -3.9280   37.5390    8.6850 O.3   500  ADP500     -0.1143
      3  O2B       -5.2790   39.0540    7.1750 O.2   500  ADP500     -0.2221
      4  O3B       -6.2330   38.0660    9.4430 O.3   500  ADP500     -0.1143
      5  PA        -5.4960   40.9570   10.0490 P.3   500  ADP500      0.2231
      6  O1A       -6.7960   40.7420    9.3860 O.2   500  ADP500     -0.5169
      7  O2A       -5.6620   40.7890   11.6570 O.3   500  ADP500     -0.4370
      8  O3A       -4.3370   39.9180    9.5150 O.3   500  ADP500     -0.2261
      9  O5'       -5.0260   42.4720    9.7280 O.3   500  ADP500     -0.3111
     10  C5'       -3.8000   42.7350   10.4530 C.3   500  ADP500      0.1813
     11  C4'       -3.5800   44.2510   10.6380 C.3   500  ADP500      0.1821
     12  O4'       -4.0110   45.0000    9.4510 O.3   500  ADP500     -0.3135
     13  C3'       -4.3880   44.7710   11.8450 C.3   500  ADP500      0.2184
     14  O3'       -3.5920   45.6530   12.6320 O.3   500  ADP500     -0.2174
     15  C2'       -5.5940   45.4780   11.1840 C.3   500  ADP500      0.2570
     16  O2'       -6.1260   46.5460   11.9750 O.3   500  ADP500     -0.2130
     17  C1'       -5.0580   45.9490    9.8210 C.3   500  ADP500      0.3186
     18  N9        -6.1430   45.9320    8.8000 N.pl3 500  ADP500     -0.1439
     19  C8        -6.9890   44.8780    8.5210 C.3   500  ADP500      0.3377
     20  N7        -7.8310   45.1930    7.5730 N.2   500  ADP500     -0.2095
     21  C5        -7.5890   46.4670    7.1660 C.2   500  ADP500      0.2526
     22  C6        -8.1710   47.3450    6.1990 C.2   500  ADP500      0.4393
     23  N6        -9.2270   46.9240    5.4110 N.pl3 500  ADP500      0.2180
     24  N1        -7.6550   48.5970    6.0630 N.2   500  ADP500      0.0021
     25  C2        -6.6340   49.0240    6.8140 C.3   500  ADP500      0.5254
     26  N3        -6.0590   48.2310    7.7420 N.2   500  ADP500     -0.0055
     27  C4        -6.5030   46.9680    7.9560 C.2   500  ADP500      0.3518
@<TRIPOS>BOND
     1    23    22    1
     2    24    22    2
     3    24    25    1
     4    22    21    1
     5    25    26    1
     6    21    20    2
     7    21    27    1
     8     3     1    2
     9    20    19    1
    10    26    27    2
    11    27    18    1
    12    19    18    1
    13     2     1    1
    14     1     4    1
    15     1     8    1
    16    18    17    1
    17     6     5    2
    18    12    17    1
    19    12    11    1
    20     8     5    1
    21     9     5    1
    22     9    10    1
    23    17    15    1
    24     5     7    1
    25    10    11    1
    26    11    13    1
    27    15    13    1
    28    15    16    1
    29    13    14    1
