@<TRIPOS>MOLECULE
2eww_ATP_A_1.pdb
 31 33 0 0 0
SMALL
GASTEIGER

@<TRIPOS>ATOM
      1  PG        -5.3910   36.4630   10.2450 P.3   500  ATP500      0.5373
      2  O1G       -4.0520   36.0100    9.6870 O.2   500  ATP500     -0.2221
      3  O2G       -5.3520   36.9810   11.6700 O.3   500  ATP500     -0.1143
      4  O3G       -6.4940   35.4570    9.9940 O.3   500  ATP500     -0.1143
      5  PB        -4.7650   38.4990    8.3530 P.3   500  ATP500      0.2277
      6  O1B       -3.3700   38.2240    8.8630 O.3   500  ATP500     -0.4368
      7  O2B       -5.1180   38.1360    6.9310 O.2   500  ATP500     -0.5168
      8  O3B       -5.8000   37.7680    9.3630 O.3   500  ATP500     -0.2258
      9  PA        -5.5500   40.7910    9.8610 P.3   500  ATP500      0.2189
     10  O1A       -7.0470   40.9230    9.7930 O.2   500  ATP500     -0.5170
     11  O2A       -4.9170   40.1450   11.0660 O.3   500  ATP500     -0.4371
     12  O3A       -5.0580   40.0770    8.5040 O.3   500  ATP500     -0.2700
     13  O5'       -4.9110   42.2560    9.6730 O.3   500  ATP500     -0.3112
     14  C5'       -3.5130   42.5270    9.8450 C.3   500  ATP500      0.1813
     15  C4'       -3.2800   43.9490   10.3750 C.3   500  ATP500      0.1821
     16  O4'       -3.6830   44.9210    9.4070 O.3   500  ATP500     -0.3135
     17  C3'       -4.0860   44.2290   11.6330 C.3   500  ATP500      0.2184
     18  O3'       -3.2690   44.9150   12.5880 O.3   500  ATP500     -0.2174
     19  C2'       -5.2480   45.0920   11.1750 C.3   500  ATP500      0.2570
     20  O2'       -5.5850   46.0940   12.1330 O.3   500  ATP500     -0.2130
     21  C1'       -4.7910   45.7050    9.8610 C.3   500  ATP500      0.3186
     22  N9        -5.8770   45.6500    8.8490 N.pl3 500  ATP500     -0.1439
     23  C8        -6.6980   44.6030    8.6370 C.3   500  ATP500      0.3377
     24  N7        -7.5880   44.8490    7.6410 N.2   500  ATP500     -0.2095
     25  C5        -7.3360   46.0870    7.1840 C.2   500  ATP500      0.2526
     26  C6        -7.9070   46.9650    6.1350 C.2   500  ATP500      0.4393
     27  N6        -8.9430   46.5430    5.3700 N.pl3 500  ATP500      0.2180
     28  N1        -7.3620   48.1930    5.9730 N.2   500  ATP500      0.0021
     29  C2        -6.3340   48.6070    6.7360 C.3   500  ATP500      0.5254
     30  N3        -5.7650   47.8640    7.7050 N.2   500  ATP500     -0.0055
     31  C4        -6.2100   46.6130    7.9790 C.2   500  ATP500      0.3518
@<TRIPOS>BOND
     1    27    26    1
     2    28    26    2
     3    28    29    1
     4    26    25    1
     5    29    30    1
     6     7     5    2
     7    25    24    2
     8    25    31    1
     9    24    23    1
    10    30    31    2
    11    31    22    1
    12     5    12    1
    13     5     6    1
    14     5     8    1
    15    12     9    1
    16    23    22    1
    17    22    21    1
    18     8     1    1
    19    16    21    1
    20    16    15    1
    21    13    14    1
    22    13     9    1
    23     2     1    2
    24    10     9    2
    25    14    15    1
    26    21    19    1
    27     9    11    1
    28     4     1    1
    29     1     3    1
    30    15    17    1
    31    19    17    1
    32    19    20    1
    33    17    18    1
