@<TRIPOS>MOLECULE
2ewy_DBO_A_1.pdb
 38 42 0 0 0
SMALL
GASTEIGER

@<TRIPOS>ATOM
      1  N1       107.1910   25.7420    1.6240 N.am  1001  DBO1001    -0.2004
      2  C3       107.8880   26.1820    2.8810 C.3   1001  DBO1001     0.1316
      3  C5       107.0370   27.1410    3.7160 C.3   1001  DBO1001     0.1894
      4  O7       107.7130   27.5260    4.8490 O.3   1001  DBO1001    -0.2197
      5  C9       105.7550   26.5120    4.1790 C.3   1001  DBO1001     0.1237
      6  N12      104.9630   27.4260    4.9820 N.3   1001  DBO1001    -0.2105
      7  C14      104.1060   26.8440    6.0400 C.3   1001  DBO1001     0.1151
      8  C17      104.7210   25.7210    6.9250 C.ar  1001  DBO1001    -0.0051
      9  C18      105.9330   25.9350    7.8400 C.ar  1001  DBO1001    -0.0071
     10  C20      106.4990   24.8120    8.6880 C.ar  1001  DBO1001    -0.0221
     11  C21      105.8360   23.4350    8.6220 C.ar  1001  DBO1001    -0.0043
     12  C23      104.6230   23.2080    7.7090 C.ar  1001  DBO1001    -0.0006
     13  C25      104.0760   24.3490    6.8710 C.ar  1001  DBO1001    -0.0029
     14  C27      107.7270   25.0800    9.5990 C.3   1001  DBO1001     0.0310
     15  C31      109.2070   26.7720    2.4010 C.3   1001  DBO1001     0.0507
     16  C34      110.0880   25.8130    1.5740 C.ar  1001  DBO1001    -0.0204
     17  C35      110.7600   26.3290    0.3420 C.ar  1001  DBO1001    -0.0042
     18  C37      111.6410   25.4220   -0.5050 C.ar  1001  DBO1001    -0.0003
     19  C39      111.8280   23.9860   -0.0810 C.ar  1001  DBO1001    -0.0000
     20  C41      111.1550   23.4710    1.1530 C.ar  1001  DBO1001    -0.0003
     21  C43      110.3080   24.3500    1.9640 C.ar  1001  DBO1001    -0.0042
     22  C45      106.5330   24.5220    1.4260 C.2   1001  DBO1001     0.2649
     23  O46      106.4450   23.6250    2.3010 O.2   1001  DBO1001    -0.2684
     24  C47      105.8990   24.2200    0.1560 C.2   1001  DBO1001     0.0581
     25  C48      104.5530   23.8510    0.1950 C.2   1001  DBO1001     0.0077
     26  C50      103.6850   23.4850   -0.9760 C.ar  1001  DBO1001     0.0347
     27  C51      103.8370   24.1910   -2.3400 C.ar  1001  DBO1001     0.1452
     28  C52      102.9800   23.8200   -3.4690 C.ar  1001  DBO1001     0.0375
     29  C54      101.9740   22.7690   -3.2870 C.ar  1001  DBO1001     0.0031
     30  C56      101.8210   22.0760   -1.9530 C.ar  1001  DBO1001     0.0002
     31  C58      102.6880   22.4450   -0.7970 C.ar  1001  DBO1001     0.0030
     32  O60      104.8060   25.2120   -2.5160 O.3   1001  DBO1001    -0.4535
     33  C61      106.1290   24.8240   -2.5070 C.ar  1001  DBO1001     0.1453
     34  C62      106.7690   24.3140   -1.2080 C.ar  1001  DBO1001     0.0390
     35  C63      108.2210   23.9150   -1.2970 C.ar  1001  DBO1001     0.0032
     36  C65      108.9950   24.0190   -2.6100 C.ar  1001  DBO1001     0.0002
     37  C67      108.3240   24.5270   -3.8660 C.ar  1001  DBO1001     0.0031
     38  C69      106.8800   24.9290   -3.8030 C.ar  1001  DBO1001     0.0375
@<TRIPOS>BOND
     1    37    38   ar
     2    37    36   ar
     3    38    33   ar
     4    28    29   ar
     5    28    27   ar
     6    29    30   ar
     7    36    35   ar
     8    32    33    1
     9    32    27    1
    10    33    34   ar
    11    27    26   ar
    12    30    31   ar
    13    35    34   ar
    14    34    24    1
    15    26    31   ar
    16    26    25    1
    17    18    19   ar
    18    18    17   ar
    19    19    20   ar
    20    24    25    2
    21    24    22    1
    22    17    16   ar
    23    20    21   ar
    24    22     1   am
    25    22    23    2
    26    16    21   ar
    27    16    15    1
    28     1     2    1
    29    15     2    1
    30     2     3    1
    31     3     5    1
    32     3     4    1
    33     5     6    1
    34     6     7    1
    35     7     8    1
    36    13     8   ar
    37    13    12   ar
    38     8     9   ar
    39    12    11   ar
    40     9    10   ar
    41    11    10   ar
    42    10    14    1
