@<TRIPOS>MOLECULE
2ex1_C5P_A_1.pdb
 21 22 0 0 0
SMALL
GASTEIGER

@<TRIPOS>ATOM
      1  O3P       14.1190   -4.5680   33.3740 O.3   1427  C5P1427    -0.1145
      2  P         14.0990   -3.8290   31.9870 P.3   1427  C5P1427     0.5327
      3  O1P       15.3930   -3.3090   31.6380 O.2   1427  C5P1427    -0.2224
      4  O2P       12.9060   -2.8310   31.8410 O.3   1427  C5P1427    -0.1145
      5  O5'       13.7550   -4.9810   30.8930 O.3   1427  C5P1427    -0.2675
      6  C5'       13.6320   -4.7390   29.5230 C.3   1427  C5P1427     0.1859
      7  C4'       13.4410   -6.0740   28.9360 C.3   1427  C5P1427     0.1801
      8  O4'       14.3730   -7.1690   29.2470 O.3   1427  C5P1427    -0.3320
      9  C3'       11.9890   -6.6990   29.1090 C.3   1427  C5P1427     0.2158
     10  O3'       10.9260   -6.3210   28.2290 O.3   1427  C5P1427    -0.2175
     11  C2'       12.3010   -8.1600   29.3300 C.3   1427  C5P1427     0.2319
     12  O2'       12.2610   -8.6050   27.9680 O.3   1427  C5P1427    -0.2157
     13  C1'       13.7080   -8.4040   29.4180 C.3   1427  C5P1427     0.2400
     14  N1        14.0580   -8.7530   30.8930 N.am  1427  C5P1427    -0.1778
     15  C2        14.0960  -10.1800   31.2420 C.1   1427  C5P1427     0.2756
     16  N3        14.3670  -10.5910   32.5170 N.2   1427  C5P1427    -0.3024
     17  C4        14.6270   -9.6470   33.5740 C.2   1427  C5P1427     0.2346
     18  C5        14.6200   -8.2210   33.3330 C.2   1427  C5P1427     0.0687
     19  C6        14.3360   -7.8610   32.0110 C.2   1427  C5P1427     0.0836
     20  O2        13.8620  -11.0370   30.3350 O.2   1427  C5P1427    -0.1925
     21  N4        14.8800  -10.0670   34.8270 N.pl3 1427  C5P1427    -0.0921
@<TRIPOS>BOND
     1    12    11    1
     2    10     9    1
     3     7     9    1
     4     7     8    1
     5     7     6    1
     6     9    11    1
     7     8    13    1
     8    11    13    1
     9    13    14    1
    10     6     5    1
    11    20    15    2
    12     5     2    1
    13    14    15   am
    14    14    19    1
    15    15    16    2
    16     3     2    2
    17     4     2    1
    18     2     1    1
    19    19    18    2
    20    16    17    2
    21    18    17    1
    22    17    21    1
