@<TRIPOS>MOLECULE
2ex4_SAH_A_1.pdb
 26 28 0 0 0
SMALL
GASTEIGER

@<TRIPOS>ATOM
      1  N          0.7280   -1.2120    4.7930 N.3   1401  SAH1401    -0.1208
      2  CA         1.2330   -0.6810    6.0990 C.3   1401  SAH1401     0.1952
      3  CB         0.1100   -0.3540    7.0760 C.3   1401  SAH1401     0.0422
      4  CG        -0.8440   -1.5150    7.3470 C.3   1401  SAH1401     0.0597
      5  SD        -2.1730   -1.0910    8.4840 S.3   1401  SAH1401    -0.1375
      6  C          2.2070   -1.6540    6.7370 C.2   1401  SAH1401     0.3819
      7  O          2.2260   -2.8340    6.3840 O.co2 1401  SAH1401    -0.2441
      8  OXT        2.9660   -1.2400    7.6100 O.co2 1401  SAH1401    -0.2441
      9  C5'       -3.3860   -0.7660    7.1430 C.3   1401  SAH1401     0.0899
     10  C4'       -3.3900    0.6810    6.6050 C.3   1401  SAH1401     0.1630
     11  O4'       -4.4440    0.8200    5.6400 O.3   1401  SAH1401    -0.3153
     12  C3'       -3.6290    1.8060    7.6260 C.3   1401  SAH1401     0.2168
     13  O3'       -2.6010    2.7690    7.5460 O.3   1401  SAH1401    -0.2175
     14  C2'       -4.9780    2.4090    7.2410 C.3   1401  SAH1401     0.2569
     15  O2'       -5.0770    3.8070    7.4780 O.3   1401  SAH1401    -0.2130
     16  C1'       -4.9800    2.1300    5.7480 C.3   1401  SAH1401     0.3185
     17  N9        -6.2880    2.0330    5.1100 N.pl3 1401  SAH1401    -0.1439
     18  C8        -7.4030    1.3660    5.5800 C.3   1401  SAH1401     0.3377
     19  N7        -8.3640    1.4490    4.6160 N.2   1401  SAH1401    -0.2095
     20  C5        -7.8620    2.1390    3.5570 C.2   1401  SAH1401     0.2526
     21  C6        -8.4020    2.5150    2.3300 C.2   1401  SAH1401     0.4393
     22  N6        -9.6480    2.2170    1.9980 N.pl3 1401  SAH1401     0.2180
     23  N1        -7.6180    3.2040    1.4300 N.2   1401  SAH1401     0.0021
     24  C2        -6.3200    3.5470    1.7540 C.3   1401  SAH1401     0.5254
     25  N3        -5.7830    3.1920    2.9780 N.2   1401  SAH1401    -0.0055
     26  C4        -6.5610    2.5040    3.8590 C.2   1401  SAH1401     0.3518
@<TRIPOS>BOND
     1    23    24    1
     2    23    21    2
     3    24    25    1
     4    22    21    1
     5    21    20    1
     6    25    26    2
     7    20    26    1
     8    20    19    2
     9    26    17    1
    10    19    18    1
    11     1     2    1
    12    17    18    1
    13    17    16    1
    14    11    16    1
    15    11    10    1
    16    16    14    1
    17     2     6    1
    18     2     3    1
    19     7     6   ar
    20    10     9    1
    21    10    12    1
    22     6     8   ar
    23     3     4    1
    24     9     5    1
    25    14    15    1
    26    14    12    1
    27     4     5    1
    28    13    12    1
