@<TRIPOS>MOLECULE
2ex6_AIC_A_1.pdb
 24 25 0 0 0
SMALL
GASTEIGER

@<TRIPOS>ATOM
      1  C8        91.3150   -6.1200   43.2500 C.ar  501  AIC501     -0.0003
      2  C5        90.7050   -4.6670   45.0600 C.ar  501  AIC501      0.0038
      3  C6        88.5370   -2.7570   41.5460 C.3   501  AIC501      0.0658
      4  N1        87.7290   -3.4930   45.4100 N.am  501  AIC501     -0.1953
      5  C2        87.0080   -4.5810   40.7480 C.2   501  AIC501      0.3811
      6  N3        86.3500   -3.2240   42.6500 N.3   501  AIC501     -0.1957
      7  C4        89.8290   -4.3390   46.2520 C.3   501  AIC501      0.1915
      8  C1        88.1380   -1.9300   40.3070 C.3   501  AIC501      0.0129
      9  C3        88.9040   -3.1580   45.9490 C.2   501  AIC501      0.2635
     10  C7        90.4960   -5.8360   44.3320 C.ar  501  AIC501     -0.0024
     11  C9        92.3380   -5.2570   42.8840 C.ar  501  AIC501     -0.0000
     12  C10       92.5600   -4.1000   43.6140 C.ar  501  AIC501     -0.0003
     13  C11       91.7410   -3.7920   44.6920 C.ar  501  AIC501     -0.0024
     14  C12       87.5140   -3.8530   41.9800 C.3   501  AIC501      0.1857
     15  C13       86.8030   -2.1530   43.5560 C.3   501  AIC501      0.1479
     16  C14       86.7200   -2.4710   45.0690 C.3   501  AIC501      0.1856
     17  C15       85.3060   -2.9710   45.4300 C.2   501  AIC501      0.2311
     18  C16       89.9690   -3.2810   41.3620 C.3   501  AIC501      0.0129
     19  N2        90.6770   -3.8920   47.3520 N.3   501  AIC501     -0.1182
     20  O1        85.9240   -4.1840   40.2590 O.co2 501  AIC501     -0.2441
     21  O2        87.7420   -5.4810   40.3040 O.co2 501  AIC501     -0.2441
     22  O3        89.2480   -2.0110   46.1990 O.2   501  AIC501     -0.2714
     23  O4        85.1050   -4.1000   45.8630 O.2   501  AIC501     -0.2863
     24  S1        88.4640   -1.7010   42.9960 S.3   501  AIC501     -0.1212
@<TRIPOS>BOND
     1    20     5   ar
     2    21     5   ar
     3     8     3    1
     4     5    14    1
     5    18     3    1
     6     3    14    1
     7     3    24    1
     8    14     6    1
     9     6    15    1
    10    11     1   ar
    11    11    12   ar
    12    24    15    1
    13     1    10   ar
    14    15    16    1
    15    12    13   ar
    16    10     2   ar
    17    13     2   ar
    18     2     7    1
    19    16     4    1
    20    16    17    1
    21     4     9   am
    22    17    23    2
    23     9    22    2
    24     9     7    1
    25     7    19    1
