@<TRIPOS>MOLECULE
2ex8_PNM_A_1.pdb
 23 24 0 0 0
SMALL
GASTEIGER

@<TRIPOS>ATOM
      1  O8        85.1120   -3.8540   46.0350 O.2   501  PNM501     -0.2863
      2  C7        85.3910   -2.6690   45.8690 C.2   501  PNM501      0.2311
      3  N4        85.5700   -3.1590   43.3360 N.3   501  PNM501     -0.1957
      4  C3        86.1730   -4.3740   42.7430 C.3   501  PNM501      0.1857
      5  C11       85.0020   -5.0900   42.0590 C.2   501  PNM501      0.3811
      6  O13       85.1380   -6.3070   41.8670 O.co2 501  PNM501     -0.2441
      7  O12       84.0200   -4.3790   41.7370 O.co2 501  PNM501     -0.2441
      8  C2        87.1700   -3.9180   41.6690 C.3   501  PNM501      0.0658
      9  C10       88.1780   -5.0080   41.2860 C.3   501  PNM501      0.0129
     10  C9        86.4590   -3.4980   40.3760 C.3   501  PNM501      0.0129
     11  S1        87.9630   -2.5750   42.6170 S.3   501  PNM501     -0.1212
     12  C5        86.5720   -2.1660   43.7310 C.3   501  PNM501      0.1479
     13  C6        86.7290   -2.2500   45.2760 C.3   501  PNM501      0.1855
     14  N14       87.7070   -3.2280   45.7450 N.am  501  PNM501     -0.1965
     15  C15       88.9660   -2.8620   45.8860 C.2   501  PNM501      0.2462
     16  O16       89.3530   -1.7370   45.5770 O.2   501  PNM501     -0.2730
     17  C17       89.9530   -3.9290   46.4020 C.3   501  PNM501      0.1131
     18  C18       90.8270   -4.4300   45.2680 C.ar  501  PNM501     -0.0130
     19  C19       90.5120   -5.5970   44.5760 C.ar  501  PNM501     -0.0038
     20  C20       91.3210   -6.0420   43.5320 C.ar  501  PNM501     -0.0003
     21  C21       92.4540   -5.3250   43.1620 C.ar  501  PNM501     -0.0000
     22  C22       92.7990   -4.1650   43.8530 C.ar  501  PNM501     -0.0003
     23  C23       91.9730   -3.7300   44.8880 C.ar  501  PNM501     -0.0038
@<TRIPOS>BOND
     1    10     8    1
     2     9     8    1
     3     8    11    1
     4     8     4    1
     5     7     5   ar
     6     6     5   ar
     7     5     4    1
     8    11    12    1
     9     4     3    1
    10    21    20   ar
    11    21    22   ar
    12     3    12    1
    13    20    19   ar
    14    12    13    1
    15    22    23   ar
    16    19    18   ar
    17    23    18   ar
    18    18    17    1
    19    13    14    1
    20    13     2    1
    21    16    15    2
    22    14    15   am
    23     2     1    2
    24    15    17    1
