@<TRIPOS>MOLECULE
2ex9_PNV_A_1.pdb
 24 25 0 0 0
SMALL
GASTEIGER

@<TRIPOS>ATOM
      1  C24       90.2130   -7.1880   44.9260 C.ar  501  PNV501      0.0369
      2  C23       90.9190   -8.3760   45.1480 C.ar  501  PNV501      0.0031
      3  C22       91.9790   -8.4090   46.0620 C.ar  501  PNV501      0.0002
      4  C21       92.3180   -7.2530   46.7710 C.ar  501  PNV501      0.0031
      5  C20       91.6060   -6.0660   46.5580 C.ar  501  PNV501      0.0369
      6  C19       90.5590   -6.0290   45.6430 C.ar  501  PNV501      0.1393
      7  O1        89.8270   -4.8840   45.4360 O.3   501  PNV501     -0.4656
      8  C2        90.0330   -3.8050   46.3190 C.3   501  PNV501      0.2911
      9  C3        88.8860   -2.8030   46.0820 C.2   501  PNV501      0.2863
     10  O18       89.1170   -1.6240   46.3600 O.2   501  PNV501     -0.2693
     11  N4        87.6900   -3.2080   45.6170 N.am  501  PNV501     -0.1936
     12  C5        86.6370   -2.2160   45.3850 C.3   501  PNV501      0.1856
     13  C6        85.2580   -2.7710   45.7220 C.2   501  PNV501      0.2311
     14  O17       85.1040   -3.9430   46.0350 O.2   501  PNV501     -0.2863
     15  C8        86.6560   -1.8540   43.8860 C.3   501  PNV501      0.1479
     16  N7        86.2540   -2.9600   43.0190 N.3   501  PNV501     -0.1957
     17  S11       88.3250   -1.3770   43.3130 S.3   501  PNV501     -0.1212
     18  C10       88.5540   -2.5370   42.0140 C.3   501  PNV501      0.0658
     19  C12       88.3310   -1.7920   40.6890 C.3   501  PNV501      0.0129
     20  C15       90.0140   -3.0960   42.0710 C.3   501  PNV501      0.0129
     21  C9        87.4830   -3.5650   42.4000 C.3   501  PNV501      0.1857
     22  C13       87.1630   -4.3920   41.1840 C.2   501  PNV501      0.3811
     23  O14       86.1480   -4.0510   40.5340 O.co2 501  PNV501     -0.2441
     24  O16       87.9900   -5.3100   40.9170 O.co2 501  PNV501     -0.2441
@<TRIPOS>BOND
     1    23    22   ar
     2    19    18    1
     3    24    22   ar
     4    22    21    1
     5    18    20    1
     6    18    21    1
     7    18    17    1
     8    21    16    1
     9    16    15    1
    10    17    15    1
    11    15    12    1
    12     1     2   ar
    13     1     6   ar
    14     2     3   ar
    15    12    11    1
    16    12    13    1
    17     7     6    1
    18     7     8    1
    19    11     9   am
    20     6     5   ar
    21    13    14    2
    22     3     4   ar
    23     9     8    1
    24     9    10    2
    25     5     4   ar
