@<TRIPOS>MOLECULE
2exa_FPM_A_1.pdb
 19 20 0 0 0
SMALL
GASTEIGER

@<TRIPOS>ATOM
      1  C2        88.8990   -3.0440   42.4530 C.3   501  FPM501      0.1226
      2  C6        86.6460   -3.0190   45.3460 C.3   501  FPM501      0.1278
      3  C5        86.9670   -2.3410   44.0370 C.3   501  FPM501      0.1605
      4  C7        85.1810   -3.4800   45.3320 C.2   501  FPM501      0.2124
      5  N4        86.6550   -3.1860   42.8800 N.2   501  FPM501     -0.2577
      6  C3        87.7330   -3.8550   42.4080 C.2   501  FPM501      0.1461
      7  S1        88.7790   -2.2030   43.9530 S.3   501  FPM501     -0.1086
      8  C31       87.4370   -4.8640   41.2560 C.2   501  FPM501      0.4016
      9  O7        84.8390   -4.6270   45.5920 O.2   501  FPM501     -0.2881
     10  C61       86.9110   -1.9050   46.4020 C.3   501  FPM501      0.1621
     11  O62       86.5420   -2.3090   47.6930 O.3   501  FPM501     -0.2226
     12  C62       88.3770   -1.5010   46.3840 C.3   501  FPM501      0.0361
     13  C14       90.3140   -3.5400   42.0560 C.3   501  FPM501      0.1310
     14  C15       90.9530   -2.7160   40.9230 C.3   501  FPM501      0.0334
     15  C16       92.4690   -2.8800   41.1710 C.3   501  FPM501      0.0346
     16  C17       92.5810   -3.6050   42.5330 C.3   501  FPM501      0.1422
     17  O18       91.2900   -3.3880   43.1540 O.3   501  FPM501     -0.3550
     18  O32       88.0830   -5.9450   41.2120 O.co2 501  FPM501     -0.2392
     19  O31       86.3600   -4.6820   40.6340 O.co2 501  FPM501     -0.2392
@<TRIPOS>BOND
     1    19     8   ar
     2    14    15    1
     3    14    13    1
     4    15    16    1
     5    18     8   ar
     6     8     6    1
     7    13     1    1
     8    13    17    1
     9     6     1    1
    10     6     5    2
    11     1     7    1
    12    16    17    1
    13     5     3    1
    14     7     3    1
    15     3     2    1
    16     4     2    1
    17     4     9    2
    18     2    10    1
    19    12    10    1
    20    10    11    1
