@<TRIPOS>MOLECULE
2exb_FXM_A_1.pdb
 38 39 0 0 0
SMALL
GASTEIGER

@<TRIPOS>ATOM
      1  C31       86.0600   -9.9650   38.2690 C.3   501  FXM501      0.0111
      2  C30       85.8890   -8.4410   38.2690 C.3   501  FXM501      0.0897
      3  C32       84.7870   -8.0380   39.2690 C.3   501  FXM501      0.0111
      4  C33       85.4750   -7.9660   36.8540 C.3   501  FXM501      0.0111
      5  C27       87.2550   -7.8070   38.6860 C.2   501  FXM501      0.3186
      6  O29       87.9160   -7.1310   37.8900 O.2   501  FXM501     -0.2500
      7  O28       87.7700   -7.9930   39.9450 O.3   501  FXM501     -0.4081
      8  C26       88.2050   -6.7070   40.5170 C.3   501  FXM501      0.4334
      9  O9        87.1320   -6.0320   41.2340 O.3   501  FXM501     -0.4041
     10  C8        86.7280   -4.8780   40.6340 C.2   501  FXM501      0.3573
     11  O10       85.7560   -4.8990   39.8860 O.2   501  FXM501     -0.2435
     12  C2        87.0940   -3.5690   41.3210 C.2   501  FXM501      0.1329
     13  N3        86.4020   -3.2360   42.4400 N.2   501  FXM501     -0.2569
     14  C1        87.9680   -2.6900   40.6620 C.3   501  FXM501      0.0869
     15  C16       89.0720   -3.3120   39.7870 C.3   501  FXM501      0.1533
     16  O17       90.2430   -3.7290   40.3520 O.3   501  FXM501     -0.3136
     17  C18       91.3140   -2.8730   39.8530 C.3   501  FXM501      0.3669
     18  O20       91.9220   -3.4680   38.6820 O.3   501  FXM501     -0.1671
     19  N19       92.3190   -2.4540   40.8650 N.3   501  FXM501     -0.0669
     20  C6        88.2480   -1.2770   41.1830 C.3   501  FXM501      0.0681
     21  S5        88.4750   -1.4620   42.9790 S.3   501  FXM501     -0.1144
     22  C4        86.8030   -2.1350   43.3490 C.3   501  FXM501      0.1777
     23  C7        86.5490   -2.4280   44.8470 C.3   501  FXM501      0.1923
     24  C11       85.2190   -3.2100   45.0720 C.2   501  FXM501      0.2316
     25  O12       85.1510   -4.2960   45.6620 O.2   501  FXM501     -0.2863
     26  N14       87.7030   -3.0370   45.5550 N.am  501  FXM501     -0.1924
     27  C13       87.5630   -3.3030   46.8670 C.2   501  FXM501      0.2671
     28  O15       86.5100   -3.0650   47.4710 O.2   501  FXM501     -0.2683
     29  C34       88.7330   -3.9590   47.6580 C.2   501  FXM501      0.0771
     30  C35       88.5150   -4.2170   49.0220 C.2   501  FXM501     -0.0193
     31  C36       87.3290   -3.9430   49.7080 C.3   501  FXM501      0.0263
     32  C37       87.1320   -4.7160   51.0000 C.3   501  FXM501      0.0050
     33  C21       89.9920   -4.2580   47.1380 C.2   501  FXM501      0.1267
     34  N22       90.4170   -4.0720   45.8540 N.2   501  FXM501     -0.3811
     35  C25       90.9470   -4.7370   47.9770 C.3   501  FXM501      0.1249
     36  S24       92.3810   -4.9870   47.1050 S.3   501  FXM501     -0.0564
     37  C23       91.7130   -4.4270   45.6280 C.2   501  FXM501      0.2460
     38  N38       92.3870   -4.3430   44.4640 N.pl3 501  FXM501     -0.0867
@<TRIPOS>BOND
     1     4     2    1
     2     6     5    2
     3     2     1    1
     4     2     5    1
     5     2     3    1
     6    18    17    1
     7     5     7    1
     8    15    16    1
     9    15    14    1
    10    17    16    1
    11    17    19    1
    12    11    10    2
    13     7     8    1
    14     8     9    1
    15    10     9    1
    16    10    12    1
    17    14    20    1
    18    14    12    1
    19    20    21    1
    20    12    13    2
    21    13    22    1
    22    21    22    1
    23    22    23    1
    24    38    37    1
    25    23    24    1
    26    23    26    1
    27    24    25    2
    28    26    27   am
    29    37    34    2
    30    37    36    1
    31    34    33    2
    32    27    28    2
    33    27    29    1
    34    36    35    1
    35    33    29    1
    36    33    35    1
    37    29    30    2
    38    30    31    1
    39    31    32    1
