@<TRIPOS>MOLECULE
2exc_JNK_X_1.pdb
 31 34 0 0 0
SMALL
GASTEIGER

@<TRIPOS>ATOM
      1  C1        20.3590    9.8190   31.7810 C.ar  600  JNK600      0.0045
      2  C2        19.9760    8.3760   31.8640 C.ar  600  JNK600      0.0045
      3  C3        19.6360   10.8230   32.4470 C.ar  600  JNK600      0.0361
      4  C4        21.4360   10.2130   30.9710 C.ar  600  JNK600      0.0208
      5  C5        20.9030    7.3940   31.5310 C.ar  600  JNK600      0.0362
      6  C6        18.6770    7.9660   32.2180 C.ar  600  JNK600      0.0208
      7  C7        20.0230   12.1580   32.2980 C.ar  600  JNK600      0.1517
      8  C8        21.7610   11.5420   30.8620 C.ar  600  JNK600      0.1004
      9  C9        20.5520    6.0600   31.5350 C.ar  600  JNK600      0.1545
     10  C10       18.4010    6.6150   32.2430 C.ar  600  JNK600      0.1004
     11  N11       19.3450   13.2130   32.9410 N.pl3 600  JNK600     -0.1941
     12  N12       21.0650   12.4520   31.5150 N.ar  600  JNK600     -0.2274
     13  N13       21.5330    5.0810   31.2990 N.am  600  JNK600     -0.1604
     14  N14       19.3330    5.7290   31.9260 N.ar  600  JNK600     -0.2273
     15  C15       18.3470   13.0670   33.9230 C.ar  600  JNK600      0.0723
     16  C16       22.8080    5.3190   30.8290 C.2   600  JNK600      0.2464
     17  C17       17.1540   13.8090   33.8170 C.ar  600  JNK600      0.0189
     18  C18       18.5400   12.2010   35.0140 C.ar  600  JNK600      0.0189
     19  C19       23.8450    4.2210   30.7520 C.3   600  JNK600      0.0788
     20  O20       23.1790    6.4350   30.4870 O.2   600  JNK600     -0.2730
     21  C21       16.1770   13.6510   34.8040 C.ar  600  JNK600      0.0310
     22  C22       17.5520   12.0490   35.9870 C.ar  600  JNK600      0.0310
     23  C23       23.4200    2.9630   31.5270 C.3   600  JNK600      0.0116
     24  C24       24.3940    3.8740   29.3590 C.3   600  JNK600      0.0116
     25  C25       16.3570   12.7720   35.8920 C.ar  600  JNK600      0.1402
     26  C26       24.6630    2.0830   31.7920 C.3   600  JNK600      0.0300
     27  C27       25.5890    2.8940   29.6000 C.3   600  JNK600      0.0300
     28  C28       25.9260    2.4670   30.9630 C.3   600  JNK600      0.1154
     29  O29       26.7150    3.4670   31.6600 O.3   600  JNK600     -0.3536
     30  C30       28.1340    3.1990   31.6770 C.3   600  JNK600      0.1740
     31  F31       15.3970   12.6240   36.8520 F     600  JNK600     -0.2042
@<TRIPOS>BOND
     1    24    27    1
     2    24    19    1
     3    27    28    1
     4    20    16    2
     5    19    16    1
     6    19    23    1
     7    16    13   am
     8     8     4   ar
     9     8    12   ar
    10    28    29    1
    11    28    26    1
    12     4     1   ar
    13    13     9    1
    14    12     7   ar
    15    23    26    1
    16     5     9   ar
    17     5     2   ar
    18     9    14   ar
    19    29    30    1
    20     1     2    1
    21     1     3   ar
    22     2     6   ar
    23    14    10   ar
    24     6    10   ar
    25     7     3   ar
    26     7    11    1
    27    11    15    1
    28    17    15   ar
    29    17    21   ar
    30    15    18   ar
    31    21    25   ar
    32    18    22   ar
    33    25    22   ar
    34    25    31    1
