@<TRIPOS>MOLECULE
2exg_STF_A_1.pdb
 26 27 0 0 0
SMALL
GASTEIGER

@<TRIPOS>ATOM
      1  C8         4.4670    6.8190    6.8410 C.3   102  STF102      0.1278
      2  S12        5.5010    7.7170    5.5910 S.3   102  STF102     -0.0645
      3  C11        3.9970    8.4950    4.8760 C.2   102  STF102      0.1926
      4  N10        2.8340    8.1630    5.4750 N.2   102  STF102     -0.3234
      5  C9         3.0120    7.1670    6.5700 C.1   102  STF102      0.1848
      6  O17        2.0870    6.9030    7.3040 O.2   102  STF102     -0.2137
      7  S18        4.2060    9.6910    3.6310 S.3   102  STF102     -0.1028
      8  C7         4.6840    5.3460    6.7220 C.3   102  STF102     -0.0001
      9  C1         3.9960    4.7020    5.5680 C.ar  102  STF102     -0.0452
     10  C6         4.4360    4.8070    4.2550 C.ar  102  STF102     -0.0580
     11  C5         3.7380    4.2260    3.1810 C.ar  102  STF102     -0.0499
     12  C4         2.6000    3.4290    3.4280 C.ar  102  STF102      0.0548
     13  C3         2.2490    3.1830    4.7720 C.ar  102  STF102     -0.0499
     14  C2         2.9460    3.7590    5.8220 C.ar  102  STF102     -0.0580
     15  C13        1.8140    2.8250    2.2670 C.3   102  STF102      0.4174
     16  F16        1.7220    3.7360    1.2320 F     102  STF102     -0.1659
     17  F15        0.5550    2.4580    2.6320 F     102  STF102     -0.1659
     18  F14        2.4630    1.7050    1.8090 F     102  STF102     -0.1659
     19  H7         4.7570    7.1860    7.8290 H     102  STF102      0.0599
     20  H19        5.2330    9.5940    3.5470 H     102  STF102      0.1101
     21  H6         5.7830    5.1260    6.6720 H     102  STF102      0.0335
     22  H5         4.3610    4.8280    7.6750 H     102  STF102      0.0335
     23  H4         5.3190    5.4230    4.0340 H     102  STF102      0.0620
     24  H3         4.0580    4.3900    2.1660 H     102  STF102      0.0623
     25  H2         1.4010    2.5210    4.9850 H     102  STF102      0.0623
     26  H1         2.6650    3.5470    6.8430 H     102  STF102      0.0620
@<TRIPOS>BOND
     1    16    15    1
     2    18    15    1
     3    24    11    1
     4    15    17    1
     5    15    12    1
     6    11    12   ar
     7    11    10   ar
     8    12    13   ar
     9    20     7    1
    10     7     3    1
    11    23    10    1
    12    10     9   ar
    13    13    25    1
    14    13    14   ar
    15     3     4    2
    16     3     2    1
    17     4     5    2
    18     9    14   ar
    19     9     8    1
    20     2     1    1
    21    14    26    1
    22     5     1    1
    23     5     6    2
    24    21     8    1
    25     8     1    1
    26     8    22    1
    27     1    19    1
