@<TRIPOS>MOLECULE
2exj_XYS_A_2.pdb
 10 10 0 0 0
SMALL
GASTEIGER

@<TRIPOS>ATOM
      1  C1       -35.0370   56.0150  112.2920 C.3   2006  XYS2006     0.3024
      2  C2       -36.3570   56.8280  112.1000 C.3   2006  XYS2006     0.2434
      3  C3       -36.2770   57.9290  111.0140 C.3   2006  XYS2006     0.2199
      4  C4       -34.8810   58.6010  110.9280 C.3   2006  XYS2006     0.2143
      5  C5       -33.8270   57.4890  110.7290 C.3   2006  XYS2006     0.1804
      6  O1       -34.8380   55.7460  113.6940 O.3   2006  XYS2006    -0.1869
      7  O2       -37.4280   55.9150  111.7860 O.3   2006  XYS2006    -0.2148
      8  O3       -37.2840   58.9110  111.2500 O.3   2006  XYS2006    -0.2174
      9  O4       -34.6710   59.7570  109.9790 O.3   2006  XYS2006    -0.2176
     10  O5       -33.7610   56.5980  111.8830 O.3   2006  XYS2006    -0.3237
@<TRIPOS>BOND
     1     9     4    1
     2     5     4    1
     3     5    10    1
     4     4     3    1
     5     3     8    1
     6     3     2    1
     7     7     2    1
     8    10     1    1
     9     2     1    1
    10     1     6    1
