@<TRIPOS>MOLECULE
2exk_XYS_A_2.pdb
 10 10 0 0 0
SMALL
GASTEIGER

@<TRIPOS>ATOM
      1  C1       -35.6400   55.3740  112.2240 C.3   2006  XYS2006     0.3024
      2  C2       -36.8850   56.1600  111.7520 C.3   2006  XYS2006     0.2434
      3  C3       -36.5540   57.1840  110.6280 C.3   2006  XYS2006     0.2199
      4  C4       -35.2170   57.9140  110.8970 C.3   2006  XYS2006     0.2143
      5  C5       -34.1310   56.8190  110.7980 C.3   2006  XYS2006     0.1804
      6  O1       -35.9180   55.0750  113.6270 O.3   2006  XYS2006    -0.1869
      7  O2       -37.8870   55.2100  111.3510 O.3   2006  XYS2006    -0.2148
      8  O3       -37.5890   58.1500  110.5060 O.3   2006  XYS2006    -0.2174
      9  O4       -34.9050   59.1950  110.1850 O.3   2006  XYS2006    -0.2176
     10  O5       -34.2900   56.0070  112.0120 O.3   2006  XYS2006    -0.3237
@<TRIPOS>BOND
     1     9     4    1
     2     8     3    1
     3     3     4    1
     4     3     2    1
     5     5     4    1
     6     5    10    1
     7     7     2    1
     8     2     1    1
     9    10     1    1
    10     1     6    1
