@<TRIPOS>MOLECULE
2exl_GDM_A_1.pdb
 40 41 0 0 0
SMALL
GASTEIGER

@<TRIPOS>ATOM
      1  O1        20.2660    7.9200  -10.4340 O.2   301  GDM301     -0.2096
      2  O2        22.9610    4.9000   -5.2040 O.3   301  GDM301     -0.3495
      3  O3        21.3190    5.4330   -2.9880 O.3   301  GDM301     -0.4294
      4  O4        21.4690    3.8490   -1.4090 O.2   301  GDM301     -0.2227
      5  O5        16.4810    0.0750   -4.3140 O.3   301  GDM301     -0.2202
      6  O6        18.0430   -0.6250   -6.5580 O.3   301  GDM301     -0.3510
      7  O7        15.0240    3.9060   -6.5630 O.2   301  GDM301     -0.4687
      8  O8        15.6380    6.3370   -5.7810 O.2   301  GDM301     -0.2877
      9  O9        17.8750    4.5180  -10.1830 O.2   301  GDM301     -0.2844
     10  N1        18.4530    7.1970   -9.3360 N.2   301  GDM301     -0.3338
     11  N2        21.7300    5.9930   -0.7920 N.am  301  GDM301     -0.0475
     12  C1        19.7060    7.0460   -9.7740 C.1   301  GDM301      0.2000
     13  C2        20.4810    5.7580   -9.4660 C.2   301  GDM301      0.0685
     14  C3        20.7090    5.3460   -8.1560 C.2   301  GDM301     -0.0178
     15  C4        21.4080    4.2070   -7.7670 C.3   301  GDM301      0.0291
     16  C5        21.1010    3.7640   -6.3330 C.3   301  GDM301      0.0383
     17  C6        21.5310    4.7830   -5.2720 C.3   301  GDM301      0.1595
     18  C7        21.0780    4.3390   -3.8890 C.3   301  GDM301      0.2155
     19  C8        19.6130    3.8900   -3.8460 C.2   301  GDM301     -0.0063
     20  C9        19.3250    2.5280   -3.8360 C.2   301  GDM301     -0.0288
     21  C10       17.8880    2.0010   -3.7890 C.3   301  GDM301      0.0544
     22  C11       17.7930    0.6150   -4.4960 C.3   301  GDM301      0.1828
     23  C12       18.1010    0.6940   -5.9950 C.3   301  GDM301      0.1458
     24  C13       17.0650    1.5920   -6.6770 C.3   301  GDM301      0.0325
     25  C14       17.3000    1.7150   -8.2030 C.3   301  GDM301      0.0071
     26  C15       16.2690    2.6660   -8.8220 C.3   301  GDM301      0.0330
     27  C16       16.5040    4.1230   -8.4110 C.2   301  GDM301      0.0558
     28  C17       15.9080    4.6600   -7.2700 C.2   301  GDM301      0.1727
     29  C18       16.1840    5.9480   -6.8130 C.2   301  GDM301      0.2136
     30  C19       17.0730    6.7900   -7.4730 C.3   301  GDM301      0.1355
     31  C20       17.7060    6.3490   -8.6300 C.2   301  GDM301      0.1682
     32  C21       17.3900    4.9230   -9.1270 C.2   301  GDM301      0.2212
     33  C22       21.0350    4.9400  -10.6380 C.3   301  GDM301      0.0444
     34  C23       23.4760    5.8130   -6.1760 C.3   301  GDM301      0.1742
     35  C24       21.5050    5.0450   -1.6970 C.2   301  GDM301      0.4413
     36  C25       18.4940    4.9330   -3.7950 C.3   301  GDM301      0.0297
     37  C26       17.4360    1.9050   -2.3300 C.3   301  GDM301      0.0074
     38  C27       19.2950   -1.2940   -6.3770 C.3   301  GDM301      0.1741
     39  C28       18.6610    1.7280   -8.9030 C.3   301  GDM301      0.0004
     40  C29       13.6850    4.0820   -7.0380 C.3   301  GDM301      0.2526
@<TRIPOS>BOND
     1    33    13    1
     2     1    12    2
     3     9    32    2
     4    12    13    1
     5    12    10    2
     6    13    14    2
     7    10    31    2
     8    32    31    1
     9    32    27    1
    10    39    25    1
    11    26    27    1
    12    26    25    1
    13    31    30    1
    14    27    28    2
    15    25    24    1
    16    14    15    1
    17    15    16    1
    18    30    29    1
    19    28    29    1
    20    28     7    1
    21    40     7    1
    22    29     8    2
    23    24    23    1
    24     6    38    1
    25     6    23    1
    26    16    17    1
    27    34     2    1
    28    23    22    1
    29    17     2    1
    30    17    18    1
    31    22     5    1
    32    22    21    1
    33    18    19    1
    34    18     3    1
    35    19    20    2
    36    19    36    1
    37    20    21    1
    38    21    37    1
    39     3    35    1
    40    35     4    2
    41    35    11   am
