@<TRIPOS>MOLECULE
2exm_ZIP_A_1.pdb
 15 16 0 0 0
SMALL
GASTEIGER

@<TRIPOS>ATOM
      1  C14       98.5460   97.0330   80.8880 C.3   400  ZIP400      0.0001
      2  C13       99.1350   98.4420   81.0110 C.3   400  ZIP400      0.0043
      3  C15       98.4400   99.2800   82.0650 C.3   400  ZIP400      0.0001
      4  C12       99.7840   99.0100   79.9600 C.3   400  ZIP400      0.0554
      5  C11      101.2360   98.9240   79.5100 C.3   400  ZIP400      0.2513
      6  N10      102.3640   99.2620   80.4040 N.pl3 400  ZIP400     -0.0297
      7  C6       103.4110  100.1920   80.0820 C.2   400  ZIP400      0.3854
      8  C5       104.7200  100.2370   80.6810 C.2   400  ZIP400      0.2255
      9  N9       105.3290   99.4630   81.6920 N.2   400  ZIP400     -0.2268
     10  C4       105.6200  101.2160   80.3090 C.1   400  ZIP400      0.0578
     11  N7       106.7730  101.0650   80.9900 N.2   400  ZIP400     -0.1914
     12  C8       106.5090  100.0380   81.8390 C.3   400  ZIP400      0.2618
     13  N3       105.2290  102.1550   79.2940 N.2   400  ZIP400     -0.1640
     14  C2       104.0390  102.0050   78.7480 C.3   400  ZIP400      0.4006
     15  N1       103.1920  101.1030   79.1230 N.2   400  ZIP400     -0.0304
@<TRIPOS>BOND
     1    14    15    1
     2    14    13    1
     3    15     7    2
     4    13    10    2
     5     5     4    1
     6     5     6    1
     7     4     2    1
     8     7     6    1
     9     7     8    1
    10    10     8    1
    11    10    11    2
    12     8     9    2
    13     1     2    1
    14    11    12    1
    15     2     3    1
    16     9    12    1
