@<TRIPOS>MOLECULE
2exs_TRP_A_1.pdb
 15 16 0 0 0
SMALL
GASTEIGER

@<TRIPOS>ATOM
      1  N         31.6840   93.3370   24.1250 N.3   100  TRP100     -0.1205
      2  CA        32.7040   93.0770   23.0310 C.3   100  TRP100      0.1984
      3  C         34.0830   93.6120   23.4250 C.2   100  TRP100      0.3822
      4  O         34.1180   94.7430   23.9090 O.co2 100  TRP100     -0.2440
      5  CB        32.2670   93.7270   21.7070 C.3   100  TRP100      0.0549
      6  CG        33.1170   93.3210   20.4770 C.2   100  TRP100     -0.0138
      7  CD1       34.1240   94.0580   19.8840 C.2   100  TRP100      0.0907
      8  CD2       33.0400   92.0920   19.7270 C.3   100  TRP100      0.0819
      9  NE1       34.6570   93.3710   18.8160 N.2   100  TRP100     -0.2482
     10  CE2       34.0030   92.1710   18.6850 C.2   100  TRP100      0.0665
     11  CE3       32.2000   90.9560   19.7780 C.2   100  TRP100     -0.0164
     12  CZ2       34.1740   91.1410   17.7320 C.2   100  TRP100      0.0153
     13  CZ3       32.3810   89.9380   18.8440 C.2   100  TRP100     -0.0038
     14  CH2       33.3630   90.0390   17.8330 C.2   100  TRP100      0.0009
     15  OXT       35.1390   92.9570   23.1980 O.co2 100  TRP100     -0.2440
@<TRIPOS>BOND
     1    12    14    2
     2    12    10    1
     3    14    13    1
     4    10     9    2
     5    10     8    1
     6     9     7    1
     7    13    11    2
     8     8    11    1
     9     8     6    1
    10     7     6    2
    11     6     5    1
    12     5     2    1
    13     2     3    1
    14     2     1    1
    15    15     3   ar
    16     3     4   ar
