@<TRIPOS>MOLECULE
2ext_TRP_B_1.pdb
 15 16 0 0 0
SMALL
GASTEIGER

@<TRIPOS>ATOM
      1  N         31.5630   93.1610   24.2630 N.3   100  TRP100     -0.1205
      2  CA        32.5330   92.8510   23.1380 C.3   100  TRP100      0.1987
      3  C         33.9270   93.4310   23.4490 C.2   100  TRP100      0.3822
      4  O         33.9970   94.5710   23.9580 O.co2 100  TRP100     -0.2440
      5  CB        31.9870   93.4160   21.8020 C.3   100  TRP100      0.0585
      6  CG        32.8660   93.0820   20.6100 C.2   100  TRP100      0.0001
      7  CD1       33.8640   93.8840   20.0720 C.2   100  TRP100      0.0946
      8  CD2       32.8290   91.8980   19.7940 C.2   100  TRP100      0.0113
      9  NE1       34.4500   93.2480   19.0010 N.2   100  TRP100     -0.2442
     10  CE2       33.8410   92.0420   18.7960 C.2   100  TRP100      0.0804
     11  CE3       32.0300   90.7270   19.7900 C.2   100  TRP100     -0.0202
     12  CZ2       34.0850   91.0630   17.7990 C.2   100  TRP100      0.0148
     13  CZ3       32.2850   89.7410   18.8050 C.3   100  TRP100      0.0521
     14  CH2       33.2960   89.9360   17.8180 C.2   100  TRP100     -0.0199
     15  OXT       34.9780   92.7870   23.1810 O.co2 100  TRP100     -0.2440
@<TRIPOS>BOND
     1    12    14    2
     2    12    10    1
     3    14    13    1
     4    10     9    2
     5    10     8    1
     6    13    11    1
     7     9     7    1
     8    11     8    2
     9     8     6    1
    10     7     6    2
    11     6     5    1
    12     5     2    1
    13     2     3    1
    14     2     1    1
    15    15     3   ar
    16     3     4   ar
