@<TRIPOS>MOLECULE
2exv_HEC_A_1.pdb
 43 50 0 0 0
SMALL
GASTEIGER

@<TRIPOS>ATOM
      1 FE        -12.4940   18.0580   -3.0210 Fe     83  HEC83       0.0000
      2  CHA      -10.2730   17.6760   -0.5280 C.2    83  HEC83       0.0000
      3  CHB      -15.0280   17.1560   -0.8900 C.2    83  HEC83       0.0000
      4  CHC      -14.7520   18.9020   -5.3260 C.2    83  HEC83       0.0000
      5  CHD       -9.9950   18.1510   -5.3910 C.2    83  HEC83       0.0000
      6  NA       -12.6250   17.5200   -1.0440 N.2    83  HEC83       0.0000
      7  C1A      -11.5680   17.4170   -0.1790 C.2    83  HEC83       0.0000
      8  C2A      -12.0540   16.9870    1.1180 C.2    83  HEC83       0.0000
      9  C3A      -13.3860   16.8450    1.0010 C.2    83  HEC83       0.0000
     10  C4A      -13.7590   17.1720   -0.3720 C.2    83  HEC83       0.0000
     11  CMA      -14.3990   16.4020    2.0740 C.3    83  HEC83       0.0000
     12  CAA      -11.1530   16.7460    2.3640 C.3    83  HEC83       0.0000
     13  CBA      -10.8630   18.0370    3.1300 C.3    83  HEC83       0.0000
     14  CGA       -9.8100   18.9060    2.4630 C.2    83  HEC83       0.0000
     15  O1A      -10.1080   20.0980    2.1860 O.co2  83  HEC83       0.0000
     16  O2A       -8.6960   18.4070    2.2000 O.co2  83  HEC83       0.0000
     17  NB       -14.5360   18.0640   -3.0650 N.ar   83  HEC83       0.0000
     18  C1B      -15.4210   17.6950   -2.0970 C.ar   83  HEC83       0.0000
     19  C2B      -16.7780   18.0610   -2.5190 C.ar   83  HEC83       0.0000
     20  C3B      -16.6830   18.5060   -3.7770 C.ar   83  HEC83       0.0000
     21  C4B      -15.2790   18.5430   -4.1140 C.ar   83  HEC83       0.0000
     22  CMB      -18.0640   17.7270   -1.7100 C.3    83  HEC83       0.0000
     23  CAB      -17.7460   19.0350   -4.7580 C.3    83  HEC83       0.0000
     24  CBB      -18.5470   20.2220   -4.1490 C.3    83  HEC83       0.0000
     25  NC       -12.3700   18.4230   -4.9790 N.2    83  HEC83       0.0000
     26  C1C      -13.4460   18.8040   -5.7410 C.2    83  HEC83       0.0000
     27  C2C      -12.9490   19.2230   -7.0670 C.2    83  HEC83       0.0000
     28  C3C      -11.6520   18.9210   -7.1350 C.2    83  HEC83       0.0000
     29  C4C      -11.2730   18.4530   -5.7980 C.2    83  HEC83       0.0000
     30  CMC      -13.9290   19.5900   -8.2160 C.3    83  HEC83       0.0000
     31  CAC      -10.6880   18.8380   -8.3930 C.3    83  HEC83       0.0000
     32  CBC      -10.3470   20.2300   -8.9380 C.3    83  HEC83       0.0000
     33  ND       -10.5010   17.9420   -2.9800 N.ar   83  HEC83       0.0000
     34  C1D       -9.6430   18.0030   -4.0720 C.ar   83  HEC83       0.0000
     35  C2D       -8.2890   17.9120   -3.6040 C.ar   83  HEC83       0.0000
     36  C3D       -8.3850   17.7740   -2.1210 C.ar   83  HEC83       0.0000
     37  C4D       -9.7850   17.7930   -1.8110 C.ar   83  HEC83       0.0000
     38  CMD       -7.0230   17.9730   -4.4510 C.3    83  HEC83       0.0000
     39  CAD       -7.2240   17.6880   -1.1330 C.3    83  HEC83       0.0000
     40  CBD       -6.9560   19.1580   -0.7670 C.3    83  HEC83       0.0000
     41  CGD       -5.8860   19.2940    0.2900 C.2    83  HEC83       0.0000
     42  O1D       -4.9520   18.4610    0.3650 O.co2  83  HEC83       0.0000
     43  O2D       -5.9080   20.2850    1.0690 O.co2  83  HEC83       0.0000
@<TRIPOS>BOND
     1    32    31    1
     2    31    28    1
     3    30    27    1
     4    28    27    2
     5    28    29    1
     6    27    26    1
     7    29     5    1
     8    29    25    2
     9    26     4    2
    10    26    25    1
    11     5    34    2
    12     4    21    1
    13    25     1    1
    14    23    24    1
    15    23    20    1
    16    38    35    1
    17    21    20   ar
    18    21    17   ar
    19    34    35   ar
    20    34    33   ar
    21    20    19   ar
    22    35    36   ar
    23    17     1    1
    24    17    18   ar
    25     1    33    1
    26     1     6    1
    27    33    37   ar
    28    19    18   ar
    29    19    22    1
    30    36    37   ar
    31    36    39    1
    32    18     3    1
    33    37     2    2
    34    39    40    1
    35     6    10    1
    36     6     7    2
    37     3    10    2
    38    40    41    1
    39     2     7    1
    40    10     9    1
    41     7     8    1
    42    41    42   ar
    43    41    43   ar
    44     9     8    2
    45     9    11    1
    46     8    12    1
    47    15    14   ar
    48    16    14   ar
    49    12    13    1
    50    14    13    1
