@<TRIPOS>MOLECULE
2ez4_TPP_A_1.pdb
 26 27 0 0 0
SMALL
GASTEIGER

@<TRIPOS>ATOM
      1  N1'       75.6860   67.0310   -1.6580 N.2   1616  TPP1616    -0.1861
      2  C2'       75.4820   67.3940   -0.3370 C.1   1616  TPP1616     0.0663
      3  CM2       75.5120   68.8270    0.0870 C.3   1616  TPP1616     0.1291
      4  N3'       75.2590   66.4420    0.6420 N.2   1616  TPP1616    -0.3368
      5  C4'       75.2160   65.1020    0.3220 C.2   1616  TPP1616     0.2292
      6  N4'       74.9580   64.2260    1.2990 N.pl3 1616  TPP1616    -0.0925
      7  C5'       75.4210   64.7100   -1.0130 C.2   1616  TPP1616     0.0654
      8  C6'       75.6610   65.6850   -1.9990 C.2   1616  TPP1616     0.1115
      9  C7'       75.4180   63.2300   -1.3820 C.3   1616  TPP1616     0.1237
     10  N3        76.6440   62.6000   -0.8550 N.pl3 1616  TPP1616    -0.2970
     11  C2        76.7340   61.8210    0.3010 C.3   1616  TPP1616     0.1543
     12  S1        78.2240   61.2510    0.6570 S.3   1616  TPP1616    -0.0951
     13  C5        78.8200   61.9740   -0.6730 C.2   1616  TPP1616     0.0164
     14  C4        77.8800   62.6800   -1.4340 C.2   1616  TPP1616     0.0279
     15  CM4       78.2420   63.4240   -2.7040 C.3   1616  TPP1616     0.0473
     16  C6        80.2950   61.7930   -0.9600 C.3   1616  TPP1616     0.0661
     17  C7        81.2120   62.3190    0.1360 C.3   1616  TPP1616     0.1544
     18  O7        82.5160   62.4560   -0.4060 O.3   1616  TPP1616    -0.3134
     19  PA        83.7440   62.7260    0.5700 P.3   1616  TPP1616     0.2230
     20  O1A       84.9980   62.9540   -0.2290 O.2   1616  TPP1616    -0.5169
     21  O2A       83.4190   63.8390    1.5090 O.3   1616  TPP1616    -0.4370
     22  O3A       83.8610   61.3870    1.4640 O.3   1616  TPP1616    -0.2261
     23  PB        84.4370   59.9360    1.0060 P.3   1616  TPP1616     0.5373
     24  O1B       83.2670   58.9940    0.8570 O.3   1616  TPP1616    -0.1143
     25  O2B       85.3150   59.5800    2.1720 O.3   1616  TPP1616    -0.1143
     26  O3B       85.2430   60.0340   -0.2700 O.2   1616  TPP1616    -0.2221
@<TRIPOS>BOND
     1    15    14    1
     2     8     1    1
     3     8     7    2
     4     1     2    2
     5    14    10    1
     6    14    13    2
     7     9     7    1
     8     9    10    1
     9     7     5    1
    10    16    13    1
    11    16    17    1
    12    10    11    1
    13    13    12    1
    14    18    17    1
    15    18    19    1
    16     2     3    1
    17     2     4    2
    18    26    23    2
    19    20    19    2
    20    11    12    1
    21     5     4    2
    22     5     6    1
    23    19    22    1
    24    19    21    1
    25    24    23    1
    26    23    22    1
    27    23    25    1
