@<TRIPOS>MOLECULE
2ez7_DHI_A_1.pdb
 11 11 0 0 0
SMALL
GASTEIGER

@<TRIPOS>ATOM
      1  N         -0.1790    2.2930   11.0110 N.3   301  DHI301     -0.1204
      2  CA         0.2590    3.5970   11.5220 C.3   301  DHI301      0.1999
      3  C          1.6920    3.8840   11.1000 C.2   301  DHI301      0.3822
      4  O          2.0620    3.5830    9.9860 O.co2 301  DHI301     -0.2440
      5  CB        -0.6690    4.7030   11.0050 C.3   301  DHI301      0.0740
      6  CG        -2.0930    4.4050   11.3910 C.2   301  DHI301      0.0651
      7  ND1       -2.8780    3.4860   10.8050 N.2   301  DHI301     -0.2310
      8  CD2       -2.8030    5.0020   12.3690 C.3   301  DHI301      0.1683
      9  CE1       -4.0420    3.4900   11.3810 C.2   301  DHI301      0.1939
     10  NE2       -4.0420    4.4210   12.3650 N.2   301  DHI301     -0.2440
     11  OXT        2.5520    4.4690   11.9460 O.co2 301  DHI301     -0.2440
@<TRIPOS>BOND
     1     4     3   ar
     2     7     9    1
     3     7     6    2
     4     5     6    1
     5     5     2    1
     6     1     2    1
     7     3     2    1
     8     3    11   ar
     9     9    10    2
    10     6     8    1
    11    10     8    1
