@<TRIPOS>MOLECULE
2ez8_TDL_A_1.pdb
 32 33 0 0 0
SMALL
GASTEIGER

@<TRIPOS>ATOM
      1  O1B       83.0820   59.1270    0.9170 O.3   1611  TDL1611    -0.1143
      2  PB        84.2650   60.0530    1.0260 P.3   1611  TDL1611     0.5373
      3  O2B       85.1260   59.8300    2.2460 O.3   1611  TDL1611    -0.1143
      4  O3B       85.0130   60.2600   -0.2690 O.2   1611  TDL1611    -0.2221
      5  O3A       83.6390   61.5170    1.4300 O.3   1611  TDL1611    -0.2261
      6  PA        83.5200   62.8770    0.5540 P.3   1611  TDL1611     0.2230
      7  O1A       84.7380   63.0870   -0.2820 O.2   1611  TDL1611    -0.5169
      8  O2A       83.1530   63.9990    1.5050 O.3   1611  TDL1611    -0.4370
      9  O7        82.2610   62.5810   -0.3700 O.3   1611  TDL1611    -0.3134
     10  C7        80.9600   62.6070    0.2180 C.3   1611  TDL1611     0.1544
     11  C6        80.0750   62.0050   -0.8630 C.3   1611  TDL1611     0.0661
     12  C5        78.5730   62.1090   -0.7250 C.2   1611  TDL1611     0.0164
     13  S1        77.8010   61.1240    0.4820 S.3   1611  TDL1611    -0.0947
     14  C4        77.6060   62.8430   -1.4470 C.2   1611  TDL1611     0.0279
     15  CM4       78.0350   63.7930   -2.5520 C.3   1611  TDL1611     0.0473
     16  N3        76.3040   62.6460   -1.0500 N.pl3 1611  TDL1611    -0.2966
     17  C2        76.2240   61.7280   -0.0060 C.3   1611  TDL1611     0.1641
     18  CLA       74.9000   61.1670    0.5310 C.3   1611  TDL1611     0.2449
     19  OL1       73.8850   62.1440    0.7120 O.3   1611  TDL1611    -0.2114
     20  CLB       75.0280   60.3620    1.8410 C.3   1611  TDL1611     0.0474
     21  CLC       74.3570   60.1830   -0.5800 C.2   1611  TDL1611     0.3941
     22  OL2       74.3490   58.9130   -0.4150 O.co2 1611  TDL1611    -0.2428
     23  OL3       73.8870   60.5970   -1.7050 O.co2 1611  TDL1611    -0.2428
     24  C7'       75.1850   63.4050   -1.6890 C.3   1611  TDL1611     0.1238
     25  C5'       75.2320   64.8800   -1.1780 C.2   1611  TDL1611     0.0654
     26  C6'       75.4730   65.9280   -2.1010 C.2   1611  TDL1611     0.1115
     27  N1'       75.5310   67.2260   -1.7190 N.2   1611  TDL1611    -0.1861
     28  C2'       75.3710   67.5590   -0.4170 C.1   1611  TDL1611     0.0663
     29  CM2       75.4460   68.9950    0.0490 C.3   1611  TDL1611     0.1291
     30  N3'       75.1420   66.6080    0.5030 N.2   1611  TDL1611    -0.3368
     31  C4'       75.0680   65.2820    0.1700 C.2   1611  TDL1611     0.2292
     32  N4'       74.8160   64.4290    1.2090 N.pl3 1611  TDL1611    -0.0925
@<TRIPOS>BOND
     1    15    14    1
     2    26    27    1
     3    26    25    2
     4    27    28    2
     5    23    21   ar
     6    24    25    1
     7    24    16    1
     8    14    16    1
     9    14    12    2
    10    25    31    1
    11    16    17    1
    12    11    12    1
    13    11    10    1
    14    12    13    1
    15    21    22   ar
    16    21    18    1
    17    28    29    1
    18    28    30    2
    19     9    10    1
    20     9     6    1
    21     7     6    2
    22     4     2    2
    23    17    13    1
    24    17    18    1
    25    31    30    2
    26    31    32    1
    27    18    19    1
    28    18    20    1
    29     6     5    1
    30     6     8    1
    31     1     2    1
    32     2     5    1
    33     2     3    1
