@<TRIPOS>MOLECULE
2ez9_TDK_A_1.pdb
 34 35 0 0 0
SMALL
GASTEIGER

@<TRIPOS>ATOM
      1  O2B       85.3960   59.7960    2.2520 O.3   1611  TDK1611    -0.1143
      2  PB        84.5120   60.0960    1.0690 P.3   1611  TDK1611     0.5373
      3  O3B       85.2970   60.2650   -0.2130 O.2   1611  TDK1611    -0.2221
      4  O1B       83.3250   59.1590    0.9400 O.3   1611  TDK1611    -0.1143
      5  O3A       83.9440   61.5580    1.4900 O.3   1611  TDK1611    -0.2261
      6  PA        83.8070   62.9030    0.5990 P.3   1611  TDK1611     0.2230
      7  O1A       84.9740   63.0340   -0.3320 O.2   1611  TDK1611    -0.5169
      8  O2A       83.5270   64.0510    1.5400 O.3   1611  TDK1611    -0.4370
      9  O7        82.5070   62.6360   -0.3130 O.3   1611  TDK1611    -0.3134
     10  C7        81.1810   62.6050    0.2520 C.3   1611  TDK1611     0.1544
     11  C6        80.3000   61.9630   -0.8090 C.3   1611  TDK1611     0.0661
     12  C5        78.7840   62.0970   -0.6820 C.2   1611  TDK1611     0.0164
     13  S1        77.9640   61.1810    0.5420 S.3   1611  TDK1611    -0.0946
     14  C4        77.8370   62.8280   -1.4030 C.2   1611  TDK1611     0.0279
     15  CM4       78.2840   63.7400   -2.5310 C.3   1611  TDK1611     0.0473
     16  N3        76.5270   62.6450   -1.0060 N.pl3 1611  TDK1611    -0.2966
     17  C2        76.4030   61.7650    0.0400 C.3   1611  TDK1611     0.1650
     18  CMA       75.0680   61.2930    0.6290 C.3   1611  TDK1611     0.2468
     19  OM1       74.1110   62.3500    0.7440 O.3   1611  TDK1611    -0.2105
     20  CMB       75.2470   60.6370    2.0000 C.3   1611  TDK1611     0.0484
     21  PC        74.3230   60.0270   -0.5140 P.3   1611  TDK1611     0.3985
     22  OM3       75.1190   58.7390   -0.4870 O.3   1611  TDK1611    -0.1376
     23  OM2       72.8860   59.5810    0.1010 O.3   1611  TDK1611    -0.2883
     24  CMC       72.1800   58.4840   -0.4920 C.3   1611  TDK1611     0.1840
     25  OM4       74.0720   60.5940   -1.8940 O.2   1611  TDK1611    -0.2529
     26  C7'       75.4200   63.4030   -1.6210 C.3   1611  TDK1611     0.1238
     27  C5'       75.5000   64.8740   -1.1300 C.2   1611  TDK1611     0.0654
     28  C6'       75.6600   65.9210   -2.0600 C.2   1611  TDK1611     0.1115
     29  N1'       75.7370   67.2130   -1.6610 N.2   1611  TDK1611    -0.1861
     30  C2'       75.6660   67.5380   -0.3530 C.1   1611  TDK1611     0.0663
     31  CM2       75.7580   68.9830    0.0590 C.3   1611  TDK1611     0.1291
     32  N3'       75.5240   66.5820    0.5890 N.2   1611  TDK1611    -0.3368
     33  C4'       75.4350   65.2590    0.2220 C.2   1611  TDK1611     0.2292
     34  N4'       75.2840   64.3660    1.2290 N.pl3 1611  TDK1611    -0.0925
@<TRIPOS>BOND
     1    15    14    1
     2    28    29    1
     3    28    27    2
     4    25    21    2
     5    29    30    2
     6    26    27    1
     7    26    16    1
     8    14    16    1
     9    14    12    2
    10    27    33    1
    11    16    17    1
    12    11    12    1
    13    11    10    1
    14    12    13    1
    15    21    22    1
    16    21    23    1
    17    21    18    1
    18    24    23    1
    19    30    31    1
    20    30    32    2
    21     7     6    2
    22     9    10    1
    23     9     6    1
    24     3     2    2
    25    17    13    1
    26    17    18    1
    27    33    32    2
    28    33    34    1
    29     6     5    1
    30     6     8    1
    31    18    19    1
    32    18    20    1
    33     4     2    1
    34     2     5    1
    35     2     1    1
