@<TRIPOS>MOLECULE
2ezt_TDM_A_1.pdb
 29 30 0 0 0
SMALL
GASTEIGER

@<TRIPOS>ATOM
      1  O1A       85.0100   62.8430   -0.2430 O.2   1611  TDM1611    -0.5169
      2  PA        83.7440   62.6470    0.5610 P.3   1611  TDM1611     0.2230
      3  O2A       83.3900   63.7020    1.5610 O.3   1611  TDM1611    -0.4370
      4  O3A       83.8560   61.2790    1.3770 O.3   1611  TDM1611    -0.2261
      5  PB        84.5450   59.8670    1.0190 P.3   1611  TDM1611     0.5373
      6  O2B       85.4110   59.6030    2.2610 O.3   1611  TDM1611    -0.1143
      7  O3B       85.3600   59.9990   -0.2580 O.2   1611  TDM1611    -0.2221
      8  O1B       83.3240   58.9820    0.9600 O.3   1611  TDM1611    -0.1143
      9  O7        82.4780   62.4380   -0.3620 O.3   1611  TDM1611    -0.3134
     10  C7        81.1940   62.2290    0.2280 C.3   1611  TDM1611     0.1544
     11  C6        80.3570   61.6680   -0.9120 C.3   1611  TDM1611     0.0664
     12  C5        78.8640   61.8560   -0.7270 C.2   1611  TDM1611     0.0205
     13  S1        78.1320   61.0300    0.6270 S.3   1611  TDM1611    -0.0726
     14  C2        76.5450   61.6310    0.1440 C.2   1611  TDM1611     0.1170
     15  C27       75.3870   61.1780    1.0030 C.2   1611  TDM1611     0.1931
     16  C29       75.6130   60.2720    2.1760 C.3   1611  TDM1611     0.0792
     17  O28       74.1320   61.5770    0.7880 O.2   1611  TDM1611    -0.2895
     18  N3        76.6170   62.4490   -0.9690 N.pl3 1611  TDM1611    -0.2786
     19  C4        77.8970   62.5780   -1.4650 C.2   1611  TDM1611     0.0320
     20  CM4       78.2650   63.3880   -2.6940 C.3   1611  TDM1611     0.0476
     21  C7'       75.4730   63.1630   -1.5830 C.3   1611  TDM1611     0.1279
     22  C5'       75.5350   64.6370   -1.1120 C.2   1611  TDM1611     0.0657
     23  C4'       75.3200   65.0340    0.2260 C.2   1611  TDM1611     0.2292
     24  N4'       75.0280   64.1510    1.2220 N.pl3 1611  TDM1611    -0.0925
     25  N3'       75.3900   66.3500    0.5660 N.2   1611  TDM1611    -0.3368
     26  C2'       75.6640   67.2950   -0.3600 C.1   1611  TDM1611     0.0663
     27  CM2       75.7440   68.7280    0.0800 C.3   1611  TDM1611     0.1291
     28  N1'       75.8750   66.9580   -1.6530 N.2   1611  TDM1611    -0.1861
     29  C6'       75.8160   65.6640   -2.0290 C.2   1611  TDM1611     0.1115
@<TRIPOS>BOND
     1    20    19    1
     2    29    28    1
     3    29    22    2
     4    28    26    2
     5    21    22    1
     6    21    18    1
     7    19    18    1
     8    19    12    2
     9    22    23    1
    10    18    14    1
    11    11    12    1
    12    11    10    1
    13    12    13    1
    14     9    10    1
    15     9     2    1
    16    26    27    1
    17    26    25    2
    18     7     5    2
    19     1     2    2
    20    14    13    1
    21    14    15    2
    22    23    25    2
    23    23    24    1
    24     2     4    1
    25     2     3    1
    26    17    15    1
    27     8     5    1
    28    15    16    1
    29     5     4    1
    30     5     6    1
