@<TRIPOS>MOLECULE
2ezu_HTL_A_1.pdb
 29 30 0 0 0
SMALL
GASTEIGER

@<TRIPOS>ATOM
      1  N1'       75.7190   67.4710   -1.6210 N.2   1614  HTL1614    -0.1861
      2  C2'       75.5670   67.7620   -0.3030 C.1   1614  HTL1614     0.0663
      3  C2A       75.6450   69.1790    0.2050 C.3   1614  HTL1614     0.1291
      4  N3'       75.3360   66.7840    0.6020 N.2   1614  HTL1614    -0.3368
      5  C4'       75.2500   65.4790    0.2190 C.2   1614  HTL1614     0.2292
      6  N4'       74.9920   64.5760    1.2050 N.pl3 1614  HTL1614    -0.0925
      7  C5'       75.4230   65.1240   -1.1360 C.2   1614  HTL1614     0.0654
      8  C6'       75.6620   66.1910   -2.0370 C.2   1614  HTL1614     0.1115
      9  C35       75.3590   63.6680   -1.6590 C.3   1614  HTL1614     0.1240
     10  N3        76.4720   62.8900   -1.0330 N.pl3 1614  HTL1614    -0.2933
     11  C2        76.3480   62.0530    0.0610 C.3   1614  HTL1614     0.1836
     12  S1        77.9040   61.3970    0.5580 S.3   1614  HTL1614    -0.0904
     13  C5        78.7180   62.2320   -0.7400 C.2   1614  HTL1614     0.0167
     14  C4        77.7800   62.9990   -1.4860 C.2   1614  HTL1614     0.0281
     15  C4A       78.2280   63.8510   -2.6740 C.3   1614  HTL1614     0.0473
     16  C5A       80.2080   62.0280   -0.8980 C.3   1614  HTL1614     0.0661
     17  C5B       81.0770   62.5770    0.2270 C.3   1614  HTL1614     0.1544
     18  O5G       82.3780   62.7560   -0.3430 O.3   1614  HTL1614    -0.3134
     19  P1        83.6450   63.0130    0.5650 P.3   1614  HTL1614     0.2230
     20  O11       83.7520   61.6510    1.4370 O.3   1614  HTL1614    -0.2261
     21  O12       84.9000   63.1200   -0.2610 O.2   1614  HTL1614    -0.5169
     22  O13       83.3280   64.0960    1.5530 O.3   1614  HTL1614    -0.4370
     23  P2        84.3880   60.2150    1.0330 P.3   1614  HTL1614     0.5373
     24  O21       85.2610   59.9700    2.2650 O.3   1614  HTL1614    -0.1143
     25  O22       83.1960   59.2870    0.9440 O.3   1614  HTL1614    -0.1143
     26  O23       85.1770   60.3120   -0.2490 O.2   1614  HTL1614    -0.2221
     27  C1'       75.1530   61.5720    0.8550 C.2   1614  HTL1614     0.1797
     28  O2'       74.0190   61.8780    0.5000 O.2   1614  HTL1614    -0.2934
     29  C3'       75.3010   60.5850    1.9980 C.3   1614  HTL1614     0.0750
@<TRIPOS>BOND
     1    15    14    1
     2     8     1    1
     3     8     7    2
     4     9     7    1
     5     9    10    1
     6     1     2    2
     7    14    10    1
     8    14    13    2
     9     7     5    1
    10    10    11    1
    11    16    13    1
    12    16    17    1
    13    13    12    1
    14    18    17    1
    15    18    19    1
    16     2     3    1
    17     2     4    2
    18    21    19    2
    19    26    23    2
    20    11    12    1
    21    11    27    1
    22     5     4    2
    23     5     6    1
    24    28    27    2
    25    19    20    1
    26    19    22    1
    27    27    29    1
    28    25    23    1
    29    23    20    1
    30    23    24    1
