@<TRIPOS>MOLECULE
2f01_BTQ_A_1.pdb
 16 17 0 0 0
SMALL
GASTEIGER

@<TRIPOS>ATOM
      1  C11       32.7710   18.1440   14.0480 C.2   5101  BTQ5101     0.3649
      2  O11       33.7020   17.4540   13.5160 O.co2 5101  BTQ5101    -0.2457
      3  O12       32.7210   19.4450   13.8670 O.co2 5101  BTQ5101    -0.2457
      4  C10       31.7790   17.4910   14.9420 C.3   5101  BTQ5101     0.1144
      5  C9        31.3320   16.1360   14.5750 C.3   5101  BTQ5101     0.0165
      6  C8        30.5270   16.1480   13.2710 C.3   5101  BTQ5101     0.0268
      7  C7        30.1960   14.7500   12.7940 C.2   5101  BTQ5101    -0.0223
      8  C2        29.1720   14.6210   11.7530 C.2   5101  BTQ5101     0.0237
      9  S1        28.3850   15.8510   10.8300 S.3   5101  BTQ5101    -0.1142
     10  C6        27.1730   14.6500   10.1760 C.3   5101  BTQ5101     0.0895
     11  C5        27.8700   13.2980   10.0920 C.3   5101  BTQ5101     0.1551
     12  N1        26.9810   12.2330   10.5690 N.2   5101  BTQ5101    -0.1856
     13  C3        27.5310   11.6360   11.6660 C.1   5101  BTQ5101     0.2390
     14  O3        26.9880   10.6820   12.2550 O.2   5101  BTQ5101    -0.2023
     15  N2        28.7180   12.1670   11.9760 N.2   5101  BTQ5101    -0.1818
     16  C4        29.0700   13.2600   11.0360 C.3   5101  BTQ5101     0.1677
@<TRIPOS>BOND
     1    11    10    1
     2    11    12    1
     3    11    16    1
     4    10     9    1
     5    12    13    2
     6     9     8    1
     7    16     8    1
     8    16    15    1
     9    13    15    2
    10    13    14    2
    11     8     7    2
    12     7     6    1
    13     6     5    1
    14     2     1   ar
    15     3     1   ar
    16     1     4    1
    17     5     4    1
