@<TRIPOS>MOLECULE
2f02_ATP_A_1.pdb
 31 33 0 0 0
SMALL
GASTEIGER

@<TRIPOS>ATOM
      1  PG        52.4740   21.0250   28.7460 P.3   411  ATP411      0.5373
      2  O1G       53.7730   21.8020   28.7020 O.3   411  ATP411     -0.1143
      3  O2G       51.2140   21.8810   28.7090 O.3   411  ATP411     -0.1143
      4  O3G       52.3940   19.8580   27.7810 O.2   411  ATP411     -0.2221
      5  PB        53.3110   20.6170   31.5660 P.3   411  ATP411      0.2277
      6  O1B       54.6170   19.8910   31.6360 O.2   411  ATP411     -0.5168
      7  O2B       53.2970   22.0920   31.8810 O.3   411  ATP411     -0.4368
      8  O3B       52.5130   20.2640   30.1880 O.3   411  ATP411     -0.2258
      9  PA        52.3580   18.5530   33.3880 P.3   411  ATP411      0.2189
     10  O1A       52.8950   17.4370   32.5380 O.2   411  ATP411     -0.5170
     11  O2A       52.9890   18.8230   34.7340 O.3   411  ATP411     -0.4371
     12  O3A       52.2350   19.9310   32.5670 O.3   411  ATP411     -0.2700
     13  O5'       50.7860   18.2930   33.5760 O.3   411  ATP411     -0.3112
     14  C5'       49.9950   19.2020   34.3420 C.3   411  ATP411      0.1813
     15  C4'       48.9580   18.4260   35.1410 C.3   411  ATP411      0.1821
     16  O4'       48.1280   17.6780   34.2520 O.3   411  ATP411     -0.3135
     17  C3'       49.5150   17.4000   36.1180 C.3   411  ATP411      0.2184
     18  O3'       49.9560   17.9760   37.3530 O.3   411  ATP411     -0.2174
     19  C2'       48.3470   16.4350   36.2730 C.3   411  ATP411      0.2570
     20  O2'       47.3390   16.8780   37.2030 O.3   411  ATP411     -0.2130
     21  C1'       47.7930   16.4180   34.8600 C.3   411  ATP411      0.3186
     22  N9        48.4210   15.3250   34.0740 N.pl3 411  ATP411     -0.1439
     23  C8        49.3200   15.4530   33.0720 C.3   411  ATP411      0.3377
     24  N7        49.6790   14.2300   32.5860 N.2   411  ATP411     -0.2095
     25  C5        48.9920   13.3120   33.2910 C.2   411  ATP411      0.2526
     26  C6        48.9010   11.8420   33.2890 C.2   411  ATP411      0.4393
     27  N6        49.6360   11.1430   32.3950 N.pl3 411  ATP411      0.2180
     28  N1        48.0790   11.2600   34.1960 N.2   411  ATP411      0.0021
     29  C2        47.3390   11.9820   35.0700 C.3   411  ATP411      0.5254
     30  N3        47.3770   13.3290   35.1200 N.2   411  ATP411     -0.0055
     31  C4        48.1670   14.0290   34.2650 C.2   411  ATP411      0.3518
@<TRIPOS>BOND
     1     4     1    2
     2     2     1    1
     3     3     1    1
     4     1     8    1
     5     8     5    1
     6     5     6    2
     7     5     7    1
     8     5    12    1
     9    27    26    1
    10    10     9    2
    11    12     9    1
    12    24    23    1
    13    24    25    2
    14    23    22    1
    15    26    25    1
    16    26    28    2
    17    25    31    1
    18     9    13    1
    19     9    11    1
    20    13    14    1
    21    22    31    1
    22    22    21    1
    23    28    29    1
    24    16    21    1
    25    16    15    1
    26    31    30    2
    27    14    15    1
    28    21    19    1
    29    29    30    1
    30    15    17    1
    31    17    19    1
    32    17    18    1
    33    19    20    1
