@<TRIPOS>MOLECULE
2f06_HIS_A_1.pdb
 11 11 0 0 0
SMALL
GASTEIGER

@<TRIPOS>ATOM
      1  N         -9.3400   35.4420   30.6020 N.3   152  HIS152     -0.1204
      2  CA        -8.3550   34.7410   31.5010 C.3   152  HIS152      0.1999
      3  C         -7.6120   35.5630   32.5140 C.2   152  HIS152      0.3822
      4  O         -7.9280   36.7030   32.8440 O.co2 152  HIS152     -0.2440
      5  CB        -7.3370   33.8880   30.7240 C.3   152  HIS152      0.0740
      6  CG        -6.5180   34.6240   29.6770 C.2   152  HIS152      0.0651
      7  ND1       -7.0400   35.0340   28.4570 N.2   152  HIS152     -0.2310
      8  CD2       -5.1850   34.8780   29.6120 C.3   152  HIS152      0.1683
      9  CE1       -6.0730   35.5680   27.7210 C.2   152  HIS152      0.1939
     10  NE2       -4.9350   35.4760   28.3990 N.2   152  HIS152     -0.2440
     11  OXT       -6.6010   35.0710   33.0350 O.co2 152  HIS152     -0.2440
@<TRIPOS>BOND
     1     9    10    2
     2     9     7    1
     3    10     8    1
     4     7     6    2
     5     8     6    1
     6     6     5    1
     7     1     2    1
     8     5     2    1
     9     2     3    1
    10     3     4   ar
    11     3    11   ar
