@<TRIPOS>MOLECULE
2f0y_FPP_B_1.pdb
 24 23 0 0 0
SMALL
GASTEIGER

@<TRIPOS>ATOM
      1  C1        63.0060   24.5050   -2.3820 C.3   1001  FPP1001     0.1750
      2  O1        63.2380   23.7560   -1.2160 O.3   1001  FPP1001    -0.3089
      3  C2        64.2870   25.2570   -2.5920 C.2   1001  FPP1001     0.0018
      4  C3        65.1330   25.2830   -3.6200 C.2   1001  FPP1001    -0.0237
      5  C4        64.9880   24.5040   -4.9040 C.3   1001  FPP1001     0.0308
      6  C5        66.3700   26.1380   -3.5480 C.2   1001  FPP1001    -0.0045
      7  C6        67.2570   26.0040   -2.3160 C.2   1001  FPP1001    -0.0010
      8  C7        68.5370   26.7470   -2.1470 C.2   1001  FPP1001    -0.0085
      9  C8        69.2830   27.0200   -1.0620 C.2   1001  FPP1001    -0.0436
     10  C10       69.0600   26.6690    0.3740 C.3   1001  FPP1001     0.0264
     11  C9        70.5840   27.7710   -1.1990 C.3   1001  FPP1001     0.0267
     12  C11       71.5070   27.2130   -2.3090 C.3   1001  FPP1001     0.0297
     13  C12       72.8040   27.9110   -2.4560 C.2   1001  FPP1001    -0.0342
     14  C13       73.8630   27.7700   -3.2620 C.2   1001  FPP1001    -0.0478
     15  C14       74.0250   26.7810   -4.3310 C.3   1001  FPP1001     0.0260
     16  C15       75.0410   28.7090   -3.0870 C.3   1001  FPP1001     0.0260
     17  PA        62.1120   22.9000   -0.5830 P.3   1001  FPP1001     0.2233
     18  O1A       60.8100   22.9320   -1.3310 O.2   1001  FPP1001    -0.5169
     19  O2A       62.7250   21.5330   -0.4990 O.3   1001  FPP1001    -0.4370
     20  O3A       62.0110   23.2610    0.9350 O.3   1001  FPP1001    -0.2261
     21  PB        61.4510   24.5050    1.6910 P.3   1001  FPP1001     0.5373
     22  O1B       61.5680   24.5240    3.1660 O.3   1001  FPP1001    -0.1143
     23  O2B       60.0300   24.5880    1.2870 O.3   1001  FPP1001    -0.1143
     24  O3B       62.2240   25.6080    1.0730 O.2   1001  FPP1001    -0.2221
@<TRIPOS>BOND
     1     5     4    1
     2    15    14    1
     3     4     6    1
     4     4     3    2
     5     6     7    2
     6    14    16    1
     7    14    13    2
     8     3     1    1
     9    13    12    1
    10     1     2    1
    11     7     8    1
    12    12    11    1
    13     8     9    2
    14    18    17    2
    15     2    17    1
    16    11     9    1
    17     9    10    1
    18    17    19    1
    19    17    20    1
    20    20    21    1
    21    24    21    2
    22    23    21    1
    23    21    22    1
