@<TRIPOS>MOLECULE
2f0y_3MN_B_1.pdb
 35 39 0 0 0
SMALL
GASTEIGER

@<TRIPOS>ATOM
      1  C2        65.8460   20.5170   -0.4490 C.3   963  3MN963      0.1094
      2  N4        66.0320   21.3480    0.7620 N.ar  963  3MN963     -0.3078
      3  C29       66.4660   20.9640    1.9770 C.ar  963  3MN963      0.1786
      4  C21       65.7680   22.7840    0.8720 C.ar  963  3MN963      0.0980
      5  C30       66.0620   23.1460    2.1180 C.ar  963  3MN963      0.1193
      6  N5        66.5190   21.9720    2.8550 N.ar  963  3MN963     -0.2223
      7  C1        66.2940   21.1560   -1.8100 C.3   963  3MN963      0.0465
      8  C16       67.6600   21.8640   -1.9280 C.3   963  3MN963      0.1045
      9  C18       69.4590   20.7150   -0.6030 C.2   963  3MN963      0.3137
     10  N2        70.5440   19.9720   -0.8370 N.am  963  3MN963     -0.2514
     11  C14       70.7520   19.7270   -2.2630 C.3   963  3MN963      0.1501
     12  C4        69.5270   20.5240   -2.8270 C.2   963  3MN963      0.2526
     13  N1        68.8630   21.0420   -1.7770 N.am  963  3MN963     -0.2125
     14  O1        69.1190   21.0300    0.5220 O.2   963  3MN963     -0.2519
     15  O2        69.2450   20.6440   -4.0130 O.2   963  3MN963     -0.2723
     16  C11       71.4360   19.4980    0.2480 C.3   963  3MN963      0.1224
     17  C19       71.3480   18.1530    0.9020 C.ar  963  3MN963     -0.0016
     18  C12       72.5830   17.6260    1.3270 C.ar  963  3MN963      0.0077
     19  C15       72.6600   16.3920    1.9750 C.ar  963  3MN963      0.0682
     20  C23       71.4890   15.6280    2.2230 C.ar  963  3MN963      0.0103
     21  C5        70.2200   16.1380    1.8000 C.ar  963  3MN963      0.0004
     22  C6        70.1460   17.4060    1.1420 C.ar  963  3MN963     -0.0026
     23  C7        73.9500   15.9410    2.3920 C.1   963  3MN963      0.1004
     24  N3        75.0030   15.6410    2.7640 N.1   963  3MN963     -0.1908
     25  C20       74.1580   19.8870   -4.1560 C.ar  963  3MN963     -0.0003
     26  C13       74.6980   21.1380   -3.8040 C.ar  963  3MN963     -0.0000
     27  C17       73.9780   22.0030   -2.9350 C.ar  963  3MN963     -0.0002
     28  C24       72.6810   21.6160   -2.3970 C.ar  963  3MN963     -0.0020
     29  C25       72.1130   20.2940   -2.7650 C.ar  963  3MN963      0.0022
     30  C26       72.9040   19.4780   -3.6500 C.ar  963  3MN963     -0.0023
     31  C27       74.5610   23.2550   -2.6070 C.ar  963  3MN963     -0.0000
     32  C8        73.8900   24.1590   -1.7480 C.ar  963  3MN963     -0.0000
     33  C9        72.6280   23.8250   -1.2060 C.ar  963  3MN963     -0.0000
     34  C10       72.0510   22.5950   -1.5220 C.ar  963  3MN963     -0.0002
     35  C28       70.4730   18.2320   -2.5710 C.3   963  3MN963      0.0340
@<TRIPOS>BOND
     1    25    26   ar
     2    25    30   ar
     3    15    12    2
     4    26    27   ar
     5    30    29   ar
     6    27    31   ar
     7    27    28   ar
     8    12    11    1
     9    12    13   am
    10    29    28   ar
    11    29    11    1
    12    31    32   ar
    13    35    11    1
    14    28    34   ar
    15    11    10    1
    16     8     7    1
    17     8    13    1
    18     7     1    1
    19    13     9   am
    20    32    33   ar
    21    34    33   ar
    22    10     9   am
    23    10    16    1
    24     9    14    2
    25     1     2    1
    26    16    17    1
    27     2     4   ar
    28     2     3   ar
    29     4     5   ar
    30    17    22   ar
    31    17    18   ar
    32    22    21   ar
    33    18    19   ar
    34    21    20   ar
    35    19    20   ar
    36    19    23    1
    37     3     6   ar
    38     5     6   ar
    39    23    24    3
