@<TRIPOS>MOLECULE
2f0z_ZMR_A_1.pdb
 23 23 0 0 0
SMALL
GASTEIGER

@<TRIPOS>ATOM
      1  C1        34.2530   27.7430   25.5550 C.2   381  ZMR381      0.3914
      2  O1A       34.5710   26.6130   24.8490 O.co2 381  ZMR381     -0.2430
      3  O1B       34.2150   28.8730   24.9340 O.co2 381  ZMR381     -0.2430
      4  C2        33.9760   27.6940   26.9340 C.3   381  ZMR381      0.2213
      5  C3        33.5770   28.9500   27.6530 C.3   381  ZMR381      0.0864
      6  C4        33.0900   28.6670   29.0860 C.3   381  ZMR381      0.2063
      7  C5        33.7970   27.4560   29.6910 C.3   381  ZMR381      0.1646
      8  N5        33.2300   27.2730   31.0320 N.am  381  ZMR381     -0.2010
      9  C10       33.9170   27.1260   32.1600 C.2   381  ZMR381      0.2420
     10  O10       35.2920   27.1310   32.2030 O.2   381  ZMR381     -0.2733
     11  C11       33.1590   26.9390   33.4550 C.3   381  ZMR381      0.0964
     12  C6        33.5650   26.2410   28.7720 C.3   381  ZMR381      0.1719
     13  O6        34.1130   26.5330   27.4770 O.3   381  ZMR381     -0.3429
     14  C7        34.2630   24.9490   29.2640 C.3   381  ZMR381      0.2135
     15  O7        35.6760   25.1540   29.3090 O.3   381  ZMR381     -0.2176
     16  C8        34.0390   23.7210   28.3490 C.3   381  ZMR381      0.2173
     17  O8        32.6450   23.4200   28.2400 O.3   381  ZMR381     -0.2175
     18  C9        34.7370   22.4350   28.8470 C.3   381  ZMR381      0.2175
     19  O9        35.6840   22.6290   29.8690 O.3   381  ZMR381     -0.2175
     20  NE        33.3450   29.8670   29.8650 N.pl3 381  ZMR381     -0.0882
     21  CZ        32.4970   30.5190   30.8700 C.cat 381  ZMR381      0.5345
     22  NH1       31.3010   30.0260   31.1990 N.pl3 381  ZMR381      0.1354
     23  NH2       32.9390   31.6250   31.4620 N.pl3 381  ZMR381      0.1354
@<TRIPOS>BOND
     1     2     1   ar
     2     3     1   ar
     3     1     4    1
     4     4    13    1
     5     4     5    1
     6    13    12    1
     7     5     6    1
     8    17    16    1
     9    16    18    1
    10    16    14    1
    11    12    14    1
    12    12     7    1
    13    18    19    1
    14     6     7    1
    15     6    20    1
    16    14    15    1
    17     7     8    1
    18    20    21    2
    19    21    22    1
    20    21    23    1
    21     8     9   am
    22     9    10    2
    23     9    11    1
