@<TRIPOS>MOLECULE
2f10_BCZ_A_1.pdb
 23 23 0 0 0
SMALL
GASTEIGER

@<TRIPOS>ATOM
      1  C2        10.3120   14.1680   27.8280 C.3   382  BCZ382      0.1858
      2  N25       11.4290   14.0600   28.7680 N.pl3 382  BCZ382     -0.0901
      3  C26       11.5180   13.0430   29.5550 C.cat 382  BCZ382      0.5345
      4  N30       10.6480   11.9860   29.6250 N.pl3 382  BCZ382      0.1354
      5  N27       12.5750   12.9880   30.4190 N.pl3 382  BCZ382      0.1354
      6  C3         9.9300   15.6610   27.5710 C.3   382  BCZ382      0.0907
      7  C10        9.2860   16.4670   28.7570 C.3   382  BCZ382      0.1010
      8  C24        8.9130   17.9660   28.3050 C.3   382  BCZ382      0.0202
      9  C37       10.1460   18.7580   27.7630 C.3   382  BCZ382      0.0017
     10  C38        9.8510   19.8100   26.6660 C.3   382  BCZ382      0.0001
     11  C36        8.2460   18.7300   29.5080 C.3   382  BCZ382      0.0017
     12  C39        6.9970   18.0470   30.1180 C.3   382  BCZ382      0.0001
     13  N11       10.2750   16.4720   29.8660 N.am  382  BCZ382     -0.2070
     14  C13        9.9840   16.0140   31.1260 C.2   382  BCZ382      0.2418
     15  C15       11.0840   16.0640   32.1660 C.3   382  BCZ382      0.0964
     16  O14        8.9110   15.5600   31.4980 O.2   382  BCZ382     -0.2733
     17  C4         9.0240   15.5810   26.3010 C.3   382  BCZ382      0.1677
     18  O9         7.6270   15.4720   26.7230 O.3   382  BCZ382     -0.2224
     19  C5         9.4820   14.2920   25.5230 C.3   382  BCZ382      0.1373
     20  C6         9.9170   14.5220   24.0840 C.2   382  BCZ382      0.3669
     21  O8        10.4830   13.6680   23.4120 O.co2 382  BCZ382     -0.2456
     22  O7         9.6710   15.7170   23.5210 O.co2 382  BCZ382     -0.2456
     23  C1        10.6170   13.6720   26.3910 C.3   382  BCZ382      0.0572
@<TRIPOS>BOND
     1    21    20   ar
     2    22    20   ar
     3    20    19    1
     4    19    17    1
     5    19    23    1
     6    17    18    1
     7    17     6    1
     8    23     1    1
     9    10     9    1
    10     6     1    1
    11     6     7    1
    12     9     8    1
    13     1     2    1
    14     8     7    1
    15     8    11    1
    16     7    13    1
    17     2     3    2
    18    11    12    1
    19     3     4    1
    20     3     5    1
    21    13    14   am
    22    14    16    2
    23    14    15    1
