@<TRIPOS>MOLECULE
2f11_IEM_A_1.pdb
 19 19 0 0 0
SMALL
GASTEIGER

@<TRIPOS>ATOM
      1  C1        34.2260   30.3830   24.4330 C.2   382  IEM382      0.3915
      2  C2        34.0110   30.3360   25.8420 C.3   382  IEM382      0.2226
      3  C3        33.1920   31.4480   26.5930 C.3   382  IEM382      0.0762
      4  C4        32.6250   30.8800   27.9430 C.3   382  IEM382      0.1798
      5  C5        33.5860   29.9090   28.6680 C.3   382  IEM382      0.1816
      6  C6        33.8940   28.7620   27.6640 C.3   382  IEM382      0.2588
      7  O7        34.8210   27.6580   28.1980 O.3   382  IEM382     -0.3292
      8  C7        35.1060   26.5480   27.1510 C.3   382  IEM382      0.1448
      9  C8        36.0500   25.4800   27.7110 C.3   382  IEM382      0.0298
     10  C9        36.4780   24.5720   26.5700 C.3   382  IEM382      0.0026
     11  C10       35.3350   24.7010   28.8050 C.3   382  IEM382      0.0026
     12  C11       33.3750   29.6070   31.1660 C.2   382  IEM382      0.2420
     13  C12       32.5800   29.0480   32.3230 C.3   382  IEM382      0.0964
     14  N5        32.9180   29.4300   29.9040 N.am  382  IEM382     -0.1993
     15  O1A       34.5410   29.2680   23.7090 O.co2 382  IEM382     -0.2430
     16  O1B       34.1420   31.5010   23.7990 O.co2 382  IEM382     -0.2430
     17  O4        32.3050   31.9910   28.7820 O.3   382  IEM382     -0.2210
     18  O6        34.5600   29.3470   26.4780 O.3   382  IEM382     -0.3200
     19  O11       34.5450   30.2760   31.4680 O.2   382  IEM382     -0.2733
@<TRIPOS>BOND
     1    15     1   ar
     2    16     1   ar
     3     1     2    1
     4     2    18    1
     5     2     3    1
     6    18     6    1
     7    10     9    1
     8     3     4    1
     9     8     9    1
    10     8     7    1
    11     6     7    1
    12     6     5    1
    13     9    11    1
    14     4     5    1
    15     4    17    1
    16     5    14    1
    17    14    12   am
    18    12    19    2
    19    12    13    1
