@<TRIPOS>MOLECULE
2f12_HTM_A_1.pdb
 19 19 0 0 0
SMALL
GASTEIGER

@<TRIPOS>ATOM
      1  O1A        8.8730   14.5520   24.0090 O.co2 1001  HTM1001    -0.2430
      2  C1         9.5910   13.5930   24.6640 C.2   1001  HTM1001     0.3915
      3  C2        10.0050   13.7770   26.0090 C.3   1001  HTM1001     0.2226
      4  C3        10.8210   12.7010   26.7370 C.3   1001  HTM1001     0.0762
      5  C4        11.2080   13.1420   28.1930 C.3   1001  HTM1001     0.1798
      6  C5        10.1740   14.1010   28.7980 C.3   1001  HTM1001     0.1816
      7  C6        10.0670   15.3450   27.8720 C.3   1001  HTM1001     0.2591
      8  C7         8.8750   17.6170   27.4650 C.3   1001  HTM1001     0.1744
      9  C8         7.7960   18.5950   27.9650 C.2   1001  HTM1001     0.0511
     10  C9         6.4690   18.3180   27.5960 C.2   1001  HTM1001     0.2322
     11  C10       10.0450   14.2400   31.3240 C.2   1001  HTM1001     0.2420
     12  C11       10.7460   14.7010   32.5800 C.3   1001  HTM1001     0.0964
     13  N5        10.6480   14.4540   30.1530 N.am  1001  HTM1001    -0.1993
     14  O1B        9.8920   12.5180   24.0220 O.co2 1001  HTM1001    -0.2430
     15  O4        11.3410   11.9360   28.9950 O.3   1001  HTM1001    -0.2210
     16  O6         9.6280   14.9190   26.5480 O.3   1001  HTM1001    -0.3199
     17  O7         9.0220   16.3650   28.3620 O.3   1001  HTM1001    -0.3242
     18  O9         5.4330   19.1220   27.9860 O.2   1001  HTM1001    -0.2834
     19  O10        8.8170   13.6220   31.4550 O.2   1001  HTM1001    -0.2733
@<TRIPOS>BOND
     1     1     2   ar
     2    14     2   ar
     3     2     3    1
     4     3    16    1
     5     3     4    1
     6    16     7    1
     7     4     5    1
     8     8     9    1
     9     8    17    1
    10    10     9    2
    11    10    18    1
    12     7    17    1
    13     7     6    1
    14     5     6    1
    15     5    15    1
    16     6    13    1
    17    13    11   am
    18    11    19    2
    19    11    12    1
