@<TRIPOS>MOLECULE
2f13_DYM_A_1.pdb
 20 20 0 0 0
SMALL
GASTEIGER

@<TRIPOS>ATOM
      1  C1        77.9910   30.3650   24.6400 C.2   1001  DYM1001     0.3915
      2  C2        77.5160   30.2080   25.9730 C.3   1001  DYM1001     0.2226
      3  C3        76.6800   31.3090   26.6900 C.3   1001  DYM1001     0.0762
      4  C4        76.2740   30.8790   28.1680 C.3   1001  DYM1001     0.1798
      5  C5        77.3180   29.9430   28.8070 C.3   1001  DYM1001     0.1816
      6  C6        77.4290   28.6720   27.9110 C.3   1001  DYM1001     0.2589
      7  C7        78.6380   26.3980   27.6030 C.3   1001  DYM1001     0.1803
      8  C8        79.7110   25.4710   28.1850 C.3   1001  DYM1001     0.2142
      9  C9        81.0470   25.9080   28.0380 C.3   1001  DYM1001     0.2174
     10  C10       77.4540   29.8040   31.3560 C.2   1001  DYM1001     0.2420
     11  C11       76.7320   29.3360   32.5970 C.3   1001  DYM1001     0.0964
     12  N5        76.8590   29.5980   30.1770 N.am  1001  DYM1001    -0.1993
     13  O1A       78.7150   29.3820   24.0310 O.co2 1001  DYM1001    -0.2430
     14  O1B       77.7490   31.4290   23.9680 O.co2 1001  DYM1001    -0.2430
     15  O4        76.1370   32.0920   28.9520 O.3   1001  DYM1001    -0.2210
     16  O6        77.8430   29.0400   26.5430 O.3   1001  DYM1001    -0.3200
     17  O7        78.4710   27.6830   28.4390 O.3   1001  DYM1001    -0.3263
     18  O8        79.6550   25.3210   29.5390 O.3   1001  DYM1001    -0.2176
     19  O9        82.1150   25.1860   28.5040 O.3   1001  DYM1001    -0.2175
     20  O10       78.6870   30.4190   31.5100 O.2   1001  DYM1001    -0.2733
@<TRIPOS>BOND
     1    14     1   ar
     2    13     1   ar
     3     1     2    1
     4     2    16    1
     5     2     3    1
     6    16     6    1
     7     3     4    1
     8     7     8    1
     9     7    17    1
    10     6    17    1
    11     6     5    1
    12     9     8    1
    13     9    19    1
    14     4     5    1
    15     4    15    1
    16     8    18    1
    17     5    12    1
    18    12    10   am
    19    10    20    2
    20    10    11    1
