@<TRIPOS>MOLECULE
2f14_FL1_A_1.pdb
 41 45 0 0 0
SMALL
GASTEIGER

@<TRIPOS>ATOM
      1  S1        -6.0170    0.8830   16.9160 S.O2  1270  FL11270     0.0935
      2  O1        -5.4540    0.9950   18.2440 O.2   1270  FL11270    -0.1503
      3  O2        -7.4500    0.9470   16.7760 O.2   1270  FL11270    -0.1503
      4  N1        -5.4910   -0.4950   16.2830 N.3   1270  FL11270     0.0392
      5  C1        -5.3360    2.2130   15.9410 C.ar  1270  FL11270     0.1250
      6  C2        -3.9700    2.1580   15.5950 C.ar  1270  FL11270     0.0197
      7  C3        -3.4470    3.1770   14.8490 C.ar  1270  FL11270    -0.0028
      8  C4        -4.2280    4.2830   14.4130 C.ar  1270  FL11270    -0.0203
      9  C5        -5.6000    4.3130   14.7760 C.ar  1270  FL11270    -0.0028
     10  C6        -6.1670    3.3020   15.5300 C.ar  1270  FL11270     0.0197
     11  C7        -3.6050    5.4090   13.5710 C.3   1270  FL11270     0.0497
     12  C29       -2.0780    5.4040   13.5800 C.3   1270  FL11270     0.1188
     13  N2        -1.5350    6.5750   12.9370 N.am  1270  FL11270    -0.2161
     14  C8        -1.6710    7.8110   13.3790 C.2   1270  FL11270     0.1745
     15  S2        -1.7480    8.1870   15.0220 S.2   1270  FL11270    -0.0152
     16  N3        -1.7370    8.7430   12.3950 N.am  1270  FL11270    -0.1906
     17  C9        -1.8810   10.1570   12.3350 C.ar  1270  FL11270     0.0726
     18  C10       -1.8400   10.9270   13.5150 C.ar  1270  FL11270     0.0166
     19  C11       -1.9750   12.3220   13.4600 C.ar  1270  FL11270     0.0015
     20  C12       -2.1570   12.9850   12.2010 C.ar  1270  FL11270     0.0064
     21  C13       -2.2040   12.1930   10.9850 C.ar  1270  FL11270     0.0811
     22  C14       -2.0630   10.7960   11.0930 C.ar  1270  FL11270     0.0231
     23  C15       -2.4000   12.7950    9.5900 C.2   1270  FL11270     0.3878
     24  O3        -1.6190   13.7140    9.2340 O.co2 1270  FL11270    -0.2406
     25  O4        -3.3300   12.3500    8.8780 O.co2 1270  FL11270    -0.2406
     26  C16       -2.2900   14.5180   12.2490 C.2   1270  FL11270     0.0025
     27  C17        0.2270   14.9040   12.7600 C.2   1270  FL11270     0.0028
     28  C18        1.2670   15.7830   13.0060 C.2   1270  FL11270     0.0416
     29  C19        1.0700   17.2170   13.0330 C.2   1270  FL11270     0.1953
     30  C20       -0.2630   17.7010   12.7900 C.2   1270  FL11270     0.0632
     31  C21       -4.8660   17.2590   11.8590 C.3   1270  FL11270     0.1328
     32  C22       -6.0720   16.5200   11.5890 C.2   1270  FL11270     0.1807
     33  C23       -6.0000   15.0520   11.5430 C.2   1270  FL11270     0.0380
     34  C24       -4.8090   14.4030   11.7520 C.2   1270  FL11270     0.0056
     35  C25       -3.5590   15.1320   12.0250 C.2   1270  FL11270     0.0302
     36  C26       -3.6700   16.5820   12.0690 C.2   1270  FL11270     0.1245
     37  C27       -1.1340   15.3640   12.5110 C.2   1270  FL11270     0.0218
     38  C28       -1.3030   16.8080   12.5460 C.3   1270  FL11270     0.2130
     39  O5        -2.5510   17.3670   12.3210 O.2   1270  FL11270    -0.4740
     40  O6         2.0890   18.0230   13.2700 O.2   1270  FL11270    -0.2868
     41  O7        -7.1920   17.1060   11.3890 O.2   1270  FL11270    -0.2909
@<TRIPOS>BOND
     1    25    23   ar
     2    24    23   ar
     3    23    21    1
     4    21    22   ar
     5    21    20   ar
     6    22    17   ar
     7    41    32    2
     8    33    32    1
     9    33    34    2
    10    32    31    1
    11    34    35    1
    12    31    36    1
    13    35    36    2
    14    35    26    1
    15    36    39    1
    16    20    26    1
    17    20    19   ar
    18    26    37    2
    19    39    38    1
    20    17    16    1
    21    17    18   ar
    22    16    14    1
    23    37    38    1
    24    37    27    1
    25    38    30    1
    26    27    28    2
    27    30    29    2
    28    13    14    1
    29    13    12    1
    30    28    29    1
    31    29    40    1
    32    14    15    2
    33    19    18   ar
    34    11    12    1
    35    11     8    1
    36     8     9   ar
    37     8     7   ar
    38     9    10   ar
    39     7     6   ar
    40    10     5   ar
    41     6     5   ar
    42     5     1    1
    43     4     1    1
    44     3     1    2
    45     1     2    2
