@<TRIPOS>MOLECULE
2f14_HGB_A_1.pdb
 10 10 0 0 0
SMALL
GASTEIGER

@<TRIPOS>ATOM
      1  C1        -0.0390   12.6780   30.1750 C.2   1206  HGB1206     0.0000
      2  C3        -0.9400   10.8490   28.7880 C.ar  1206  HGB1206     0.0000
      3  C5        -1.3980   10.3640   27.5390 C.ar  1206  HGB1206     0.0000
      4  C7        -1.4210   11.2130   26.4100 C.ar  1206  HGB1206     0.0000
      5 HG         -2.0780   10.5100   24.6140 Hg    1206  HGB1206     0.0000
      6  C6        -0.9840   12.5500   26.5330 C.ar  1206  HGB1206     0.0000
      7  C4        -0.5250   13.0380   27.7790 C.ar  1206  HGB1206     0.0000
      8  O1         0.3460   13.8410   30.2950 O.co2 1206  HGB1206     0.0000
      9  O2        -0.0190   11.9410   31.1640 O.co2 1206  HGB1206     0.0000
     10  C2        -0.5010   12.1900   28.9160 C.ar  1206  HGB1206     0.0000
@<TRIPOS>BOND
     1     5     4    1
     2     4     6   ar
     3     4     3   ar
     4     6     7   ar
     5     3     2   ar
     6     7    10   ar
     7     2    10   ar
     8    10     1    1
     9     1     8   ar
    10     1     9   ar
