@<TRIPOS>MOLECULE
2f16_BO2_2_1.pdb
 28 29 0 0 0
SMALL
GASTEIGER

@<TRIPOS>ATOM
      1  N1        20.0420 -164.6880   52.8510 N.ar  1405  BO21405     0.0000
      2  C2        20.3690 -163.4420   53.3330 C.ar  1405  BO21405     0.0000
      3  C3        19.3900 -162.4310   53.2790 C.ar  1405  BO21405     0.0000
      4  N4        18.1640 -162.7300   52.7460 N.ar  1405  BO21405     0.0000
      5  C5        17.8490 -163.9820   52.2680 C.ar  1405  BO21405     0.0000
      6  C6        18.8200 -164.9910   52.3200 C.ar  1405  BO21405     0.0000
      7  C7        21.7460 -163.2620   53.9090 C.2   1405  BO21405     0.0000
      8  O8        22.4720 -164.2360   53.8430 O.2   1405  BO21405     0.0000
      9  N9        22.1510 -162.1010   54.5120 N.am  1405  BO21405     0.0000
     10  C10       23.4920 -162.0380   55.1200 C.3   1405  BO21405     0.0000
     11  C11       24.0650 -160.6260   54.7110 C.3   1405  BO21405     0.0000
     12  C12       25.2500 -160.0770   55.5760 C.ar  1405  BO21405     0.0000
     13  C13       26.5620 -160.6660   55.5030 C.ar  1405  BO21405     0.0000
     14  C14       27.6310 -160.1360   56.2900 C.ar  1405  BO21405     0.0000
     15  C15       27.4030 -159.0120   57.1560 C.ar  1405  BO21405     0.0000
     16  C16       26.1070 -158.4170   57.2410 C.ar  1405  BO21405     0.0000
     17  C17       25.0400 -158.9480   56.4550 C.ar  1405  BO21405     0.0000
     18  C18       23.2430 -162.2050   56.6170 C.2   1405  BO21405     0.0000
     19  O19       22.0780 -162.1910   57.0080 O.2   1405  BO21405     0.0000
     20  N20       24.2790 -162.3220   57.4820 N.am  1405  BO21405     0.0000
     21  C21       24.0040 -162.4670   58.9100 C.3   1405  BO21405     0.0000
     22  C22       23.3780 -163.8840   59.2800 C.3   1405  BO21405     0.0000
     23  C23       23.7540 -165.1990   58.5280 C.3   1405  BO21405     0.0000
     24  C24       25.2470 -165.5590   58.6860 C.3   1405  BO21405     0.0000
     25  C25       22.9130 -166.3620   59.0940 C.3   1405  BO21405     0.0000
     26  B26       25.3160 -162.0710   59.7210 B     1405  BO21405     0.0000
     27  O27       26.3130 -162.9340   59.4070 O.3   1405  BO21405     0.0000
     28  O28       25.6560 -160.8470   59.3180 O.3   1405  BO21405     0.0000
@<TRIPOS>BOND
     1     5     6   ar
     2     5     4   ar
     3     6     1   ar
     4     4     3   ar
     5     1     2   ar
     6     3     2   ar
     7     2     7    1
     8     8     7    2
     9     7     9   am
    10     9    10    1
    11    11    10    1
    12    11    12    1
    13    10    18    1
    14    13    12   ar
    15    13    14   ar
    16    12    17   ar
    17    14    15   ar
    18    17    16   ar
    19    18    19    2
    20    18    20   am
    21    15    16   ar
    22    20    21    1
    23    23    24    1
    24    23    25    1
    25    23    22    1
    26    21    22    1
    27    21    26    1
    28    28    26    1
    29    27    26    1
