@<TRIPOS>MOLECULE
2f17_PYI_A_1.pdb
 27 28 0 0 0
SMALL
GASTEIGER

@<TRIPOS>ATOM
      1  CM2       19.9160   38.9770   23.2480 C.3   902  PYI902      0.1291
      2  C2A       20.8280   39.2820   22.0930 C.1   902  PYI902      0.0663
      3  N1A       20.3180   39.8680   21.0040 N.2   902  PYI902     -0.1861
      4  C6A       21.0920   40.1610   19.9410 C.2   902  PYI902      0.1115
      5  C5A       22.4600   39.8550   19.9660 C.2   902  PYI902      0.0654
      6  C7A       23.3220   40.1860   18.7600 C.3   902  PYI902      0.1233
      7  N3        24.3450   41.2630   18.9650 N.pl3 902  PYI902     -0.3030
      8  C2        24.1340   42.2350   19.8950 C.3   902  PYI902      0.1175
      9  C1        25.0600   43.2530   20.1040 C.2   902  PYI902     -0.0051
     10  C6        26.2290   43.2830   19.3230 C.2   902  PYI902     -0.0062
     11  C5        26.4570   42.2850   18.3530 C.2   902  PYI902     -0.0107
     12  CM6       27.7230   42.3500   17.5190 C.3   902  PYI902      0.0598
     13  CM7       27.4070   43.1030   16.2170 C.3   902  PYI902      0.1538
     14  OM7       27.9410   44.4280   16.2650 O.3   902  PYI902     -0.3135
     15  PA        28.4970   44.8130   14.7900 P.3   902  PYI902      0.2230
     16  O1A       28.0070   46.2350   14.4120 O.2   902  PYI902     -0.5169
     17  O2A       30.0220   44.8260   14.8390 O.3   902  PYI902     -0.4370
     18  O3A       28.0310   43.6910   13.6720 O.3   902  PYI902     -0.2261
     19  PB        26.7890   44.2090   12.7480 P.3   902  PYI902      0.5373
     20  O1B       25.8890   45.2260   13.5270 O.3   902  PYI902     -0.1143
     21  O2B       27.3610   44.8900   11.4570 O.2   902  PYI902     -0.2221
     22  O3B       25.8880   42.9880   12.3440 O.3   902  PYI902     -0.1143
     23  C4        25.4770   41.2600   18.1810 C.2   902  PYI902      0.0217
     24  CM4       25.6930   40.1610   17.1360 C.3   902  PYI902      0.0467
     25  C4A       22.9740   39.2290   21.1440 C.2   902  PYI902      0.2292
     26  N4A       24.3130   38.8950   21.2420 N.pl3 902  PYI902     -0.0925
     27  N3A       22.1300   38.9670   22.1710 N.2   902  PYI902     -0.3368
@<TRIPOS>BOND
     1    21    19    2
     2    22    19    1
     3    19    20    1
     4    19    18    1
     5    18    15    1
     6    16    15    2
     7    15    17    1
     8    15    14    1
     9    13    14    1
    10    13    12    1
    11    24    23    1
    12    12    11    1
    13    23    11    2
    14    23     7    1
    15    11    10    1
    16     6     7    1
    17     6     5    1
    18     7     8    1
    19    10     9    2
    20     8     9    1
    21     4     5    2
    22     4     3    1
    23     5    25    1
    24     3     2    2
    25    25    26    1
    26    25    27    2
    27     2    27    2
    28     2     1    1
