@<TRIPOS>MOLECULE
2f17_AMP_A_1.pdb
 23 25 0 0 0
SMALL
GASTEIGER

@<TRIPOS>ATOM
      1  P         30.2990   47.9720   11.8580 P.3   301  AMP301      0.5327
      2  O1P       30.8110   48.0630   10.4700 O.2   301  AMP301     -0.2224
      3  O2P       28.8540   47.5320   11.8740 O.3   301  AMP301     -0.1145
      4  O3P       31.2050   46.9760   12.6480 O.3   301  AMP301     -0.1145
      5  O5'       30.5030   49.4210   12.5980 O.3   301  AMP301     -0.2675
      6  C5'       31.0280   49.6040   13.9340 C.3   301  AMP301      0.1860
      7  C4'       30.0550   50.5730   14.6470 C.3   301  AMP301      0.1823
      8  O4'       29.4490   51.5110   13.7100 O.3   301  AMP301     -0.3135
      9  C3'       28.8940   49.7740   15.3040 C.3   301  AMP301      0.2184
     10  O3'       29.2880   49.3080   16.6260 O.3   301  AMP301     -0.2174
     11  C2'       27.7410   50.7920   15.2960 C.3   301  AMP301      0.2570
     12  O2'       27.6870   51.4890   16.5700 O.3   301  AMP301     -0.2130
     13  C1'       28.0670   51.6930   14.1000 C.3   301  AMP301      0.3186
     14  N9        27.2100   51.4020   12.9300 N.pl3 301  AMP301     -0.1439
     15  C8        27.3430   50.4650   11.9640 C.3   301  AMP301      0.3377
     16  N7        26.3700   50.4500   10.9900 N.2   301  AMP301     -0.2095
     17  C5        25.5700   51.4680   11.4150 C.2   301  AMP301      0.2526
     18  C6        24.3950   52.0040   10.8530 C.2   301  AMP301      0.4393
     19  N6        23.8190   51.5320    9.7470 N.pl3 301  AMP301      0.2180
     20  N1        23.8040   53.0520   11.5150 N.2   301  AMP301      0.0021
     21  C2        24.3740   53.5430   12.6390 C.3   301  AMP301      0.5254
     22  N3        25.4900   53.1250   13.2600 N.2   301  AMP301     -0.0055
     23  C4        26.0650   52.0780   12.5730 C.2   301  AMP301      0.3518
@<TRIPOS>BOND
     1    19    18    1
     2     2     1    2
     3    18    17    1
     4    18    20    2
     5    16    17    2
     6    16    15    1
     7    17    23    1
     8    20    21    1
     9     1     3    1
    10     1     5    1
    11     1     4    1
    12    15    14    1
    13    23    14    1
    14    23    22    2
    15     5     6    1
    16    21    22    1
    17    14    13    1
    18     8    13    1
    19     8     7    1
    20     6     7    1
    21    13    11    1
    22     7     9    1
    23    11     9    1
    24    11    12    1
    25     9    10    1
