@<TRIPOS>MOLECULE
2f18_GB1_A_1.pdb
 18 19 0 0 0
SMALL
GASTEIGER

@<TRIPOS>ATOM
      1  C15       27.3650   67.5130   11.6710 C.ar  1804  GB11804    -0.0028
      2  C14       27.1270   68.8950   11.7740 C.ar  1804  GB11804    -0.0003
      3  C13       28.0380   69.7160   12.4180 C.ar  1804  GB11804    -0.0000
      4  C12       29.1500   69.0950   12.9410 C.ar  1804  GB11804    -0.0003
      5  C11       29.4310   67.7270   12.8650 C.ar  1804  GB11804    -0.0028
      6  C10       28.5090   66.9010   12.2090 C.ar  1804  GB11804    -0.0039
      7  C8        28.7610   65.3820   12.1220 C.3   1804  GB11804     0.1279
      8  C9        28.9030   64.8450   13.5390 C.3   1804  GB11804     0.2038
      9  O9        29.0260   63.4440   13.3650 O.3   1804  GB11804    -0.2185
     10  N7        29.9000   65.2630   11.1830 N.3   1804  GB11804    -0.2108
     11  C6        29.8710   65.7140    9.7930 C.3   1804  GB11804     0.1091
     12  C5        31.0190   65.1920    8.9450 C.3   1804  GB11804     0.1231
     13  N1        30.7500   65.3810    7.5060 N.3   1804  GB11804    -0.2126
     14  C2        31.2440   66.6410    6.9600 C.3   1804  GB11804     0.1243
     15  C3        32.6020   66.5920    7.6590 C.3   1804  GB11804     0.2008
     16  O3        33.6160   65.8690    6.9940 O.3   1804  GB11804    -0.2188
     17  C4        32.2390   66.1040    9.0560 C.3   1804  GB11804     0.2008
     18  O4        33.2210   65.1740    9.4700 O.3   1804  GB11804    -0.2188
@<TRIPOS>BOND
     1    14    13    1
     2    14    15    1
     3    16    15    1
     4    13    12    1
     5    15    17    1
     6    12    17    1
     7    12    11    1
     8    17    18    1
     9    11    10    1
    10    10     7    1
    11     1     2   ar
    12     1     6   ar
    13     2     3   ar
    14     7     6    1
    15     7     8    1
    16     6     5   ar
    17     3     4   ar
    18     5     4   ar
    19     9     8    1
