@<TRIPOS>MOLECULE
2f1a_GB2_A_1.pdb
 18 19 0 0 0
SMALL
GASTEIGER

@<TRIPOS>ATOM
      1  C8        29.0140   65.2650   12.1290 C.3   1804  GB21804     0.1279
      2  N7        29.8940   65.0670   10.9780 N.3   1804  GB21804    -0.2108
      3  C6        29.8080   65.7580    9.7000 C.3   1804  GB21804     0.1091
      4  C5        30.9570   65.2300    8.8420 C.3   1804  GB21804     0.1231
      5  N1        30.7550   65.3650    7.4150 N.3   1804  GB21804    -0.2126
      6  C2        31.3260   66.5690    6.8130 C.3   1804  GB21804     0.1243
      7  C3        32.6510   66.5270    7.5750 C.3   1804  GB21804     0.2008
      8  O3        33.6810   65.7670    6.9670 O.3   1804  GB21804    -0.2188
      9  C4        32.2540   66.0200    8.9760 C.3   1804  GB21804     0.2008
     10  O4        33.2080   65.1240    9.5290 O.3   1804  GB21804    -0.2188
     11  C15       27.3820   67.3270   11.6680 C.ar  1804  GB21804    -0.0028
     12  C14       27.0730   68.7150   11.8230 C.ar  1804  GB21804    -0.0003
     13  C13       27.9240   69.5600   12.5720 C.ar  1804  GB21804    -0.0000
     14  C12       29.0640   68.9690   13.1400 C.ar  1804  GB21804    -0.0003
     15  C11       29.4170   67.5960   13.0170 C.ar  1804  GB21804    -0.0028
     16  C10       28.5560   66.7360   12.2590 C.ar  1804  GB21804    -0.0039
     17  C9        27.8510   64.2850   12.0030 C.3   1804  GB21804     0.2038
     18  O9        28.3270   63.1030   11.3630 O.3   1804  GB21804    -0.2185
@<TRIPOS>BOND
     1     6     5    1
     2     6     7    1
     3     8     7    1
     4     5     4    1
     5     7     9    1
     6     4     9    1
     7     4     3    1
     8     9    10    1
     9     3     2    1
    10     2     1    1
    11    18    17    1
    12    11    12   ar
    13    11    16   ar
    14    12    13   ar
    15    17     1    1
    16     1    16    1
    17    16    15   ar
    18    13    14   ar
    19    15    14   ar
