@<TRIPOS>MOLECULE
2f1b_GB3_A_1.pdb
 19 20 0 0 0
SMALL
GASTEIGER

@<TRIPOS>ATOM
      1  C15       27.4810   68.3060   12.0960 C.ar  1803  GB31803    -0.0023
      2  C14       27.3250   69.7320   12.1940 C.ar  1803  GB31803    -0.0003
      3  C13       28.3190   70.5480   12.7780 C.ar  1803  GB31803    -0.0000
      4  C12       29.4780   69.9120   13.2620 C.ar  1803  GB31803    -0.0003
      5  C11       29.6910   68.5010   13.1980 C.ar  1803  GB31803    -0.0023
      6  C10       28.6690   67.6640   12.6020 C.ar  1803  GB31803     0.0024
      7  C8        28.8020   66.1330   12.5260 C.3   1803  GB31803     0.1580
      8  C9        28.9440   65.5020   13.9280 C.3   1803  GB31803     0.2107
      9  O9        28.9820   64.0920   13.7690 O.3   1803  GB31803    -0.2179
     10  N7        29.9360   65.9340   11.6160 N.2   1803  GB31803    -0.2669
     11  C6        30.0320   66.3680   10.2220 C.2   1803  GB31803     0.0869
     12  C5        31.1520   65.7870    9.3650 C.3   1803  GB31803     0.1462
     13  N1        30.7950   65.9120    7.9400 N.3   1803  GB31803    -0.2095
     14  C2        31.2730   67.1820    7.4060 C.3   1803  GB31803     0.1062
     15  C3        32.6690   67.1900    7.9950 C.3   1803  GB31803     0.1997
     16  O3        33.7240   66.5390    7.2960 O.3   1803  GB31803    -0.2189
     17  C4        32.4220   66.6410    9.4000 C.3   1803  GB31803     0.2050
     18  O4        33.4740   65.7680    9.7860 O.3   1803  GB31803    -0.2184
     19  C21       31.3380   67.1790    5.8990 C.3   1803  GB31803     0.0216
@<TRIPOS>BOND
     1    19    14    1
     2    16    15    1
     3    14    13    1
     4    14    15    1
     5    13    12    1
     6    15    17    1
     7    12    17    1
     8    12    11    1
     9    17    18    1
    10    11    10    2
    11    10     7    1
    12     1     2   ar
    13     1     6   ar
    14     2     3   ar
    15     7     6    1
    16     7     8    1
    17     6     5   ar
    18     3     4   ar
    19     5     4   ar
    20     9     8    1
