@<TRIPOS>MOLECULE
2f1c_C8E_X_1.pdb
 21 20 0 0 0
SMALL
GASTEIGER

@<TRIPOS>ATOM
      1  C1        23.9570   43.5600   27.3870 C.3   406  C8E406      0.0000
      2  C2        22.7090   43.0350   27.9240 C.3   406  C8E406      0.0000
      3  C3        22.7500   42.7080   29.3450 C.3   406  C8E406      0.0000
      4  C4        21.7130   41.7110   29.5830 C.3   406  C8E406      0.0000
      5  C5        21.4510   41.6090   31.0410 C.3   406  C8E406      0.0001
      6  C6        22.3340   40.6260   31.6580 C.3   406  C8E406      0.0026
      7  C7        22.4480   41.1890   32.9930 C.3   406  C8E406      0.0321
      8  C8        23.8220   41.7010   33.2100 C.3   406  C8E406      0.1423
      9  O9        24.3710   42.1230   34.4490 O.3   406  C8E406     -0.3511
     10  C10       23.7480   43.1960   35.1350 C.3   406  C8E406      0.1741
     11  C11       24.5380   43.4000   36.3880 C.3   406  C8E406      0.1743
     12  O12       23.6880   43.3240   37.5530 O.3   406  C8E406     -0.3471
     13  C13       24.0220   44.2400   38.6440 C.3   406  C8E406      0.1894
     14  C14       25.3610   44.2480   39.4400 C.3   406  C8E406      0.2376
     15  O15       26.4500   45.2170   39.4710 O.2   406  C8E406     -0.4666
     16  C16       27.4330   44.9070   38.4530 C.2   406  C8E406      0.2124
     17  C17       28.5680   43.9590   38.8960 C.2   406  C8E406      0.2124
     18  O18       29.5900   43.4730   37.9930 O.2   406  C8E406     -0.4665
     19  C19       29.2190   42.2230   37.3380 C.3   406  C8E406      0.2411
     20  C20       29.7720   41.7780   35.9310 C.3   406  C8E406      0.2292
     21  O21       28.8430   41.5010   34.8740 O.3   406  C8E406     -0.2162
@<TRIPOS>BOND
     1     1     2    1
     2     2     3    1
     3     3     4    1
     4     4     5    1
     5     5     6    1
     6     6     7    1
     7     7     8    1
     8     8     9    1
     9     9    10    1
    10    21    20    1
    11    10    11    1
    12    20    19    1
    13    11    12    1
    14    19    18    1
    15    12    13    1
    16    18    17    1
    17    16    17    2
    18    16    15    1
    19    13    14    1
    20    14    15    1
