@<TRIPOS>MOLECULE
2f1g_GNF_A_1.pdb
 32 35 0 0 0
SMALL
GASTEIGER

@<TRIPOS>ATOM
      1  O11       21.0960   37.4360   12.1570 O.2   1002  GNF1002    -0.2715
      2  C10       22.0980   37.0540   11.5640 C.2   1002  GNF1002     0.2614
      3  C12       22.6150   35.6820   11.9020 C.3   1002  GNF1002     0.1755
      4  N20       22.9560   35.7680   13.3010 N.pl3 1002  GNF1002    -0.1688
      5  C21       24.1070   36.2820   13.7690 C.2   1002  GNF1002     0.3647
      6  O29       24.3310   36.3550   15.1080 O.2   1002  GNF1002    -0.4131
      7  C28       25.6050   36.9350   15.1510 C.2   1002  GNF1002     0.1751
      8  C27       26.3120   37.2360   16.3020 C.2   1002  GNF1002     0.0396
      9  C26       27.5700   37.7950   16.1520 C.2   1002  GNF1002    -0.0009
     10  C25       28.0790   38.0370   14.8700 C.2   1002  GNF1002    -0.0185
     11  C24       27.3400   37.7460   13.7230 C.3   1002  GNF1002     0.0883
     12  C23       26.0840   37.1790   13.8700 C.2   1002  GNF1002     0.1525
     13  N22       25.1170   36.7610   12.9990 N.2   1002  GNF1002    -0.3544
     14  C13       21.5600   34.6070   11.6520 C.3   1002  GNF1002     0.0312
     15  C14       21.5170   33.4700   12.6840 C.3   1002  GNF1002     0.0022
     16  C19       22.3590   32.2880   12.1980 C.3   1002  GNF1002     0.0001
     17  C18       22.2380   31.1170   13.1660 C.3   1002  GNF1002     0.0000
     18  C17       20.7900   30.6870   13.3780 C.3   1002  GNF1002     0.0000
     19  C16       19.8150   31.6000   12.6460 C.3   1002  GNF1002     0.0000
     20  C15       20.0740   33.0650   12.9650 C.3   1002  GNF1002     0.0001
     21  N9        22.7950   37.7970   10.6800 N.am  1002  GNF1002    -0.2021
     22  C8        22.4270   39.1580   10.2960 C.3   1002  GNF1002     0.1385
     23  C7        23.1540   39.6840    9.0400 C.3   1002  GNF1002     0.1356
     24  N         22.7490   38.9340    7.8580 N.pl3 1002  GNF1002    -0.2357
     25  C5        21.4330   38.8260    7.5470 C.ar  1002  GNF1002     0.0656
     26  C4        20.9730   37.7060    6.8350 C.ar  1002  GNF1002     0.0192
     27  C3        19.6010   37.5560    6.6040 C.ar  1002  GNF1002     0.0382
     28  C30       20.5110   39.7580    8.0520 C.ar  1002  GNF1002     0.0192
     29  C31       19.1560   39.5900    7.8390 C.ar  1002  GNF1002     0.0382
     30  C2        18.7180   38.4990    7.1320 C.ar  1002  GNF1002     0.1388
     31  O         17.3950   38.4320    6.9340 O.3   1002  GNF1002    -0.4714
     32  C         16.9540   39.4070    6.0360 C.3   1002  GNF1002     0.2525
@<TRIPOS>BOND
     1    32    31    1
     2    27    26   ar
     3    27    30   ar
     4    26    25   ar
     5    31    30    1
     6    30    29   ar
     7    25    24    1
     8    25    28   ar
     9    29    28   ar
    10    24    23    1
    11    23    22    1
    12    22    21    1
    13    21     2   am
    14     2     3    1
    15     2     1    2
    16    14     3    1
    17    14    15    1
    18     3     4    1
    19    16    15    1
    20    16    17    1
    21    19    20    1
    22    19    18    1
    23    15    20    1
    24    13     5    2
    25    13    12    2
    26    17    18    1
    27     4     5    1
    28    11    12    1
    29    11    10    1
    30     5     6    1
    31    12     7    1
    32    10     9    2
    33     6     7    1
    34     7     8    2
    35     9     8    1
