@<TRIPOS>MOLECULE
2f1h_ANP_A_1.pdb
 31 33 0 0 0
SMALL
GASTEIGER

@<TRIPOS>ATOM
      1  PG        28.4900   59.5870   -9.3480 P.3   401  ANP401      0.4884
      2  O1G       28.8920   59.4000   -7.9970 O.3   401  ANP401     -0.1240
      3  O2G       27.0090   59.6780   -9.3990 O.3   401  ANP401     -0.1240
      4  O3G       29.0500   60.8080   -9.8420 O.2   401  ANP401     -0.2331
      5  PB        28.6320   56.8090  -10.1180 P.3   401  ANP401      0.4669
      6  O1B       27.7460   56.6140   -8.9420 O.3   401  ANP401     -0.1253
      7  O2B       29.8450   56.0370   -9.9780 O.2   401  ANP401     -0.2351
      8  N3B       29.0160   58.3270  -10.3110 N.3   401  ANP401     -0.0163
      9  PA        27.0330   54.9640  -11.5740 P.3   401  ANP401      0.2220
     10  O1A       27.4660   53.9960  -10.4710 O.3   401  ANP401     -0.4370
     11  O2A       25.5950   55.2260  -11.4430 O.2   401  ANP401     -0.5170
     12  O3A       27.8490   56.3600  -11.4490 O.3   401  ANP401     -0.2360
     13  O5'       27.3350   54.3010  -13.0760 O.3   401  ANP401     -0.3111
     14  C5'       26.8770   55.0320  -14.3430 C.3   401  ANP401      0.1813
     15  C4'       26.8980   54.2300  -15.4240 C.3   401  ANP401      0.1821
     16  O4'       26.1720   52.9800  -15.1540 O.3   401  ANP401     -0.3135
     17  C3'       26.0220   54.8560  -16.5680 C.3   401  ANP401      0.2184
     18  O3'       26.4980   56.0360  -17.0990 O.3   401  ANP401     -0.2174
     19  C2'       25.5820   53.6350  -17.4120 C.3   401  ANP401      0.2570
     20  O2'       26.5810   53.4470  -18.5690 O.3   401  ANP401     -0.2130
     21  C1'       25.6990   52.4700  -16.4220 C.3   401  ANP401      0.3186
     22  N9        24.4970   51.8920  -16.3050 N.pl3 401  ANP401     -0.1439
     23  C8        23.4990   52.1870  -15.3730 C.3   401  ANP401      0.3377
     24  N7        22.4810   51.4210  -15.5890 N.2   401  ANP401     -0.2095
     25  C5        22.7460   50.6130  -16.6360 C.2   401  ANP401      0.2526
     26  C6        22.0360   49.6260  -17.2910 C.2   401  ANP401      0.4393
     27  N6        20.7880   49.3050  -16.8950 N.pl3 401  ANP401      0.2180
     28  N1        22.6260   48.9580  -18.3800 N.2   401  ANP401      0.0021
     29  C2        23.9450   49.2870  -18.8140 C.3   401  ANP401      0.5254
     30  N3        24.6690   50.2550  -18.1930 N.2   401  ANP401     -0.0055
     31  C4        24.0140   50.8980  -17.0920 C.2   401  ANP401      0.3518
@<TRIPOS>BOND
     1    29    28    1
     2    29    30    1
     3    20    19    1
     4    28    26    2
     5    30    31    2
     6    19    17    1
     7    19    21    1
     8    26    27    1
     9    26    25    1
    10    18    17    1
    11    31    25    1
    12    31    22    1
    13    25    24    2
    14    17    15    1
    15    21    22    1
    16    21    16    1
    17    22    23    1
    18    24    23    1
    19    15    16    1
    20    15    14    1
    21    14    13    1
    22    13     9    1
    23     9    12    1
    24     9    11    2
    25     9    10    1
    26    12     5    1
    27     8     5    1
    28     8     1    1
    29     5     7    2
    30     5     6    1
    31     4     1    2
    32     3     1    1
    33     1     2    1
