@<TRIPOS>MOLECULE
2f1i_ANP_A_1.pdb
 31 33 0 0 0
SMALL
GASTEIGER

@<TRIPOS>ATOM
      1  PG        27.4510   59.5740   -9.8700 P.3   401  ANP401      0.4884
      2  O1G       28.5220   59.9850   -9.0150 O.3   401  ANP401     -0.1240
      3  O2G       26.2680   59.1220   -9.0260 O.3   401  ANP401     -0.1240
      4  O3G       27.0300   60.6780  -10.7210 O.2   401  ANP401     -0.2331
      5  PB        28.0020   56.8120  -10.4360 P.3   401  ANP401      0.4669
      6  O1B       26.8340   56.5130   -9.5450 O.3   401  ANP401     -0.1253
      7  O2B       29.2420   56.4980   -9.7470 O.2   401  ANP401     -0.2351
      8  N3B       27.9980   58.3310  -10.8540 N.3   401  ANP401     -0.0163
      9  PA        26.5900   55.1520  -12.2380 P.3   401  ANP401      0.2220
     10  O1A       26.3880   53.9250  -11.3250 O.3   401  ANP401     -0.4370
     11  O2A       25.4120   56.0520  -12.1580 O.2   401  ANP401     -0.5170
     12  O3A       27.9380   55.9330  -11.7750 O.3   401  ANP401     -0.2360
     13  O5'       26.8110   54.6630  -13.8080 O.3   401  ANP401     -0.3111
     14  C5'       25.9290   55.1580  -14.9560 C.3   401  ANP401      0.1813
     15  C4'       26.1320   54.3440  -15.9890 C.3   401  ANP401      0.1821
     16  O4'       25.4940   53.0640  -15.6990 O.3   401  ANP401     -0.3135
     17  C3'       25.3760   54.8180  -17.2600 C.3   401  ANP401      0.2184
     18  O3'       25.8420   56.0060  -17.8200 O.3   401  ANP401     -0.2174
     19  C2'       25.1320   53.4880  -18.0410 C.3   401  ANP401      0.2570
     20  O2'       26.3190   53.2770  -18.9840 O.3   401  ANP401     -0.2130
     21  C1'       25.1940   52.4150  -16.9480 C.3   401  ANP401      0.3186
     22  N9        23.9880   51.8180  -16.8400 N.pl3 401  ANP401     -0.1439
     23  C8        23.0010   52.0810  -15.8650 C.3   401  ANP401      0.3377
     24  N7        21.9810   51.3270  -16.0700 N.2   401  ANP401     -0.2095
     25  C5        22.2190   50.5490  -17.1520 C.2   401  ANP401      0.2526
     26  C6        21.4890   49.5790  -17.8090 C.2   401  ANP401      0.4393
     27  N6        20.2530   49.2440  -17.3710 N.pl3 401  ANP401      0.2180
     28  N1        22.0480   48.9410  -18.9380 N.2   401  ANP401      0.0021
     29  C2        23.3480   49.2880  -19.4010 C.3   401  ANP401      0.5254
     30  N3        24.0920   50.2400  -18.7760 N.2   401  ANP401     -0.0055
     31  C4        23.4800   50.8490  -17.6440 C.2   401  ANP401      0.3518
@<TRIPOS>BOND
     1    29    28    1
     2    29    30    1
     3    20    19    1
     4    28    26    2
     5    30    31    2
     6    19    17    1
     7    19    21    1
     8    18    17    1
     9    26    27    1
    10    26    25    1
    11    31    25    1
    12    31    22    1
    13    17    15    1
    14    25    24    2
    15    21    22    1
    16    21    16    1
    17    22    23    1
    18    24    23    1
    19    15    16    1
    20    15    14    1
    21    14    13    1
    22    13     9    1
    23     9    11    2
    24     9    12    1
    25     9    10    1
    26    12     5    1
    27     8     5    1
    28     8     1    1
    29     4     1    2
    30     5     7    2
    31     5     6    1
    32     1     3    1
    33     1     2    1
