@<TRIPOS>MOLECULE
2f1j_ADP_A_1.pdb
 27 29 0 0 0
SMALL
GASTEIGER

@<TRIPOS>ATOM
      1  PB        28.2130   56.4750  -10.5900 P.3   401  ADP401      0.5373
      2  O1B       27.3610   56.0170   -9.4660 O.3   401  ADP401     -0.1143
      3  O2B       29.5810   56.0180  -10.3790 O.3   401  ADP401     -0.1143
      4  O3B       28.1710   58.0850  -10.6620 O.2   401  ADP401     -0.2221
      5  PA        26.5460   54.7780  -12.1220 P.3   401  ADP401      0.2231
      6  O1A       26.7510   53.6840  -11.0710 O.3   401  ADP401     -0.4370
      7  O2A       25.2210   55.4060  -11.9510 O.2   401  ADP401     -0.5169
      8  O3A       27.6990   55.8990  -11.9990 O.3   401  ADP401     -0.2261
      9  O5'       26.6650   54.0880  -13.6170 O.3   401  ADP401     -0.3111
     10  C5'       26.3530   54.8380  -14.8930 C.3   401  ADP401      0.1813
     11  C4'       26.5800   54.0190  -15.9270 C.3   401  ADP401      0.1821
     12  O4'       25.9210   52.7280  -15.6730 O.3   401  ADP401     -0.3135
     13  C3'       25.8190   54.5330  -17.1850 C.3   401  ADP401      0.2184
     14  O3'       26.2970   55.7100  -17.7090 O.3   401  ADP401     -0.2174
     15  C2'       25.5290   53.2540  -18.0030 C.3   401  ADP401      0.2570
     16  O2'       26.6910   53.0670  -18.9980 O.3   401  ADP401     -0.2130
     17  C1'       25.5850   52.1380  -16.9490 C.3   401  ADP401      0.3186
     18  N9        24.3670   51.5780  -16.8930 N.pl3 401  ADP401     -0.1439
     19  C8        23.3210   51.8890  -15.9940 C.3   401  ADP401      0.3377
     20  N7        22.2960   51.1500  -16.2560 N.2   401  ADP401     -0.2095
     21  C5        22.5940   50.3400  -17.3040 C.2   401  ADP401      0.2526
     22  C6        21.8900   49.3760  -17.9940 C.2   401  ADP401      0.4393
     23  N6        20.6110   49.0870  -17.6450 N.pl3 401  ADP401      0.2180
     24  N1        22.5170   48.6970  -19.0690 N.2   401  ADP401      0.0021
     25  C2        23.8620   48.9980  -19.4450 C.3   401  ADP401      0.5254
     26  N3        24.5820   49.9490  -18.7840 N.2   401  ADP401     -0.0055
     27  C4        23.8960   50.5990  -17.7080 C.2   401  ADP401      0.3518
@<TRIPOS>BOND
     1    25    24    1
     2    25    26    1
     3    24    22    2
     4    16    15    1
     5    26    27    2
     6    15    13    1
     7    15    17    1
     8    22    23    1
     9    22    21    1
    10    14    13    1
    11    27    21    1
    12    27    18    1
    13    21    20    2
    14    13    11    1
    15    17    18    1
    16    17    12    1
    17    18    19    1
    18    20    19    1
    19    11    12    1
    20    11    10    1
    21    10     9    1
    22     9     5    1
    23     5     8    1
    24     5     7    2
    25     5     6    1
    26     8     1    1
    27     4     1    2
    28     1     3    1
    29     1     2    1
