@<TRIPOS>MOLECULE
2f1o_DTC_A_1.pdb
 25 28 0 0 0
SMALL
GASTEIGER

@<TRIPOS>ATOM
      1  O5        10.9890   11.5620   -2.2850 O.2   2280  DTC2280    -0.4211
      2  C10        9.8790   10.6850   -2.4750 C.ar  2280  DTC2280     0.1517
      3  C9         9.0310   10.7840   -3.7100 C.ar  2280  DTC2280     0.0735
      4  C8         9.3610   11.7720   -4.7050 C.ar  2280  DTC2280     0.2011
      5  O17        8.5800   11.8710   -5.8670 O.3   2280  DTC2280    -0.2866
      6  C7        10.4940   12.6800   -4.5340 C.ar  2280  DTC2280     0.0973
      7  C15       10.8020   13.7350   -5.6580 C.3   2280  DTC2280     0.0724
      8  C6        11.3340   12.5510   -3.2500 C.ar  2280  DTC2280     0.3451
      9  O16       12.4280   13.3680   -2.9900 O.2   2280  DTC2280    -0.2447
     10  C1         7.9220    9.8790   -3.8450 C.ar  2280  DTC2280     0.0062
     11  C2         7.6360    8.9070   -2.8190 C.ar  2280  DTC2280     0.0003
     12  C3         8.4620    8.8250   -1.6460 C.ar  2280  DTC2280     0.0031
     13  C4         9.5800    9.7180   -1.4820 C.ar  2280  DTC2280     0.0377
     14  C5        12.9980   11.6500   -9.8000 C.ar  2280  DTC2280     0.0062
     15  C20       12.9670   12.4510   -8.5850 C.ar  2280  DTC2280     0.0735
     16  C19       14.2020   13.0930   -8.1410 C.ar  2280  DTC2280     0.1517
     17  C18       15.4570   12.9310   -8.9050 C.ar  2280  DTC2280     0.0377
     18  C17       15.4620   12.1300  -10.1090 C.ar  2280  DTC2280     0.0031
     19  C16       14.2290   11.4870  -10.5550 C.ar  2280  DTC2280     0.0003
     20  O21       14.2160   13.8980   -6.9390 O.2   2280  DTC2280    -0.4211
     21  C12       13.0540   14.1140   -6.1300 C.ar  2280  DTC2280     0.3451
     22  O32       13.1960   14.9250   -4.9760 O.2   2280  DTC2280    -0.2447
     23  C13       11.7850   13.5070   -6.5030 C.ar  2280  DTC2280     0.0973
     24  C14       11.7580   12.6380   -7.8020 C.ar  2280  DTC2280     0.2011
     25  O38       10.5820   12.0360   -8.2120 O.3   2280  DTC2280    -0.2866
@<TRIPOS>BOND
     1    19    18   ar
     2    19    14   ar
     3    18    17   ar
     4    14    15   ar
     5    17    16   ar
     6    15    16   ar
     7    15    24   ar
     8    25    24    1
     9    16    20   ar
    10    24    23   ar
    11    20    21   ar
    12    23    21   ar
    13    23     7    1
    14    21    22    2
    15     5     4    1
    16     7     6    1
    17     4     6   ar
    18     4     3   ar
    19     6     8   ar
    20    10     3   ar
    21    10    11   ar
    22     3     2   ar
    23     8     9    2
    24     8     1   ar
    25    11    12   ar
    26     2     1   ar
    27     2    13   ar
    28    12    13   ar
