@<TRIPOS>MOLECULE
2f1t_C8E_A_1.pdb
 21 20 0 0 0
SMALL
GASTEIGER

@<TRIPOS>ATOM
      1  C1        50.1270   77.3760    5.3200 C.3   401  C8E401      0.0000
      2  C2        49.2190   77.2720    6.4600 C.3   401  C8E401      0.0000
      3  C3        47.8470   76.8910    6.1040 C.3   401  C8E401      0.0000
      4  C4        46.9220   77.7800    6.8090 C.3   401  C8E401      0.0000
      5  C5        46.3030   78.7850    5.8080 C.3   401  C8E401      0.0001
      6  C6        44.9940   78.3500    5.3780 C.3   401  C8E401      0.0026
      7  C7        45.2810   78.1190    3.9670 C.3   401  C8E401      0.0321
      8  C8        44.0740   78.4070    3.1740 C.3   401  C8E401      0.1423
      9  O9        43.1590   77.4640    2.6410 O.3   401  C8E401     -0.3511
     10  C10       43.6030   76.4880    1.7120 C.3   401  C8E401      0.1741
     11  C11       42.3670   75.6820    1.4020 C.3   401  C8E401      0.1742
     12  O12       42.3170   74.4650    2.1890 O.3   401  C8E401     -0.3484
     13  C13       41.0190   74.1060    2.7470 C.3   401  C8E401      0.1742
     14  C14       40.1620   72.8870    2.3160 C.3   401  C8E401      0.1742
     15  O15       39.5810   71.7830    3.0770 O.3   401  C8E401     -0.3484
     16  C16       40.4750   70.6590    3.1520 C.3   401  C8E401      0.1742
     17  C17       40.2980   69.6600    2.0110 C.3   401  C8E401      0.1742
     18  O18       39.3960   68.5450    2.0670 O.3   401  C8E401     -0.3483
     19  C19       40.0100   67.3360    2.5900 C.3   401  C8E401      0.1777
     20  C20       39.8790   65.9470    1.8870 C.3   401  C8E401      0.2140
     21  O21       39.6010   64.8090    2.6900 O.3   401  C8E401     -0.2176
@<TRIPOS>BOND
     1    11    10    1
     2    11    12    1
     3    10     9    1
     4    20    19    1
     5    20    21    1
     6    17    18    1
     7    17    16    1
     8    18    19    1
     9    12    13    1
    10    14    13    1
    11    14    15    1
    12     9     8    1
    13    15    16    1
    14     8     7    1
    15     7     6    1
    16     1     2    1
    17     6     5    1
    18     5     4    1
    19     3     2    1
    20     3     4    1
