@<TRIPOS>MOLECULE
2f1t_LDA_A_1.pdb
 16 15 0 0 0
SMALL
GASTEIGER

@<TRIPOS>ATOM
      1  N1        54.7670   67.7980   38.6290 N.4   301  LDA301      0.4277
      2  O1        54.5710   66.5740   38.4430 O.3   301  LDA301     -0.2898
      3  CM1       53.6020   68.3690   39.3240 C.3   301  LDA301     -0.0454
      4  CM2       55.8300   68.0690   39.5400 C.3   301  LDA301     -0.0454
      5  C1        54.8060   68.6140   37.3770 C.3   301  LDA301     -0.0278
      6  C2        55.6350   68.0450   36.1930 C.3   301  LDA301     -0.0173
      7  C3        55.8710   69.1990   35.1730 C.3   301  LDA301     -0.0020
      8  C4        55.9660   68.5930   33.7980 C.3   301  LDA301     -0.0001
      9  C5        56.7140   69.4670   32.8280 C.3   301  LDA301     -0.0000
     10  C6        55.7680   69.5590   31.6210 C.3   301  LDA301     -0.0000
     11  C7        56.4220   70.4190   30.5580 C.3   301  LDA301      0.0000
     12  C8        55.5110   70.5570   29.3240 C.3   301  LDA301      0.0000
     13  C9        56.3070   69.8820   28.2280 C.3   301  LDA301      0.0000
     14  C10       55.7210   70.2160   26.8460 C.3   301  LDA301      0.0000
     15  C11       56.1460   69.0600   25.9330 C.3   301  LDA301      0.0000
     16  C12       55.6140   69.2850   24.5220 C.3   301  LDA301      0.0000
@<TRIPOS>BOND
     1    16    15    1
     2    15    14    1
     3    14    13    1
     4    13    12    1
     5    12    11    1
     6    11    10    1
     7    10     9    1
     8     9     8    1
     9     8     7    1
    10     7     6    1
    11     6     5    1
    12     5     1    1
    13     2     1    1
    14     1     3    1
    15     1     4    1
