@<TRIPOS>MOLECULE
2f25_DAN_A_1.pdb
 20 20 0 0 0
SMALL
GASTEIGER

@<TRIPOS>ATOM
      1  C1        68.1970   -2.7930    7.0820 C.2   1001  DAN1001     0.3914
      2  C2        68.0330   -3.9540    7.8880 C.3   1001  DAN1001     0.2203
      3  C3        68.9940   -4.2340    9.0190 C.3   1001  DAN1001     0.0760
      4  C4        68.4680   -5.3470    9.9650 C.3   1001  DAN1001     0.1773
      5  C5        67.7080   -6.4170    9.1790 C.3   1001  DAN1001     0.1552
      6  C6        66.5170   -5.7230    8.4580 C.3   1001  DAN1001     0.1710
      7  C7        65.6890   -6.6920    7.5610 C.3   1001  DAN1001     0.2134
      8  C8        64.4840   -6.0010    6.9050 C.3   1001  DAN1001     0.2173
      9  C9        63.6740   -6.9400    5.9770 C.3   1001  DAN1001     0.2175
     10  C10       67.6540   -8.6880   10.2280 C.2   1001  DAN1001     0.2420
     11  C11       67.0720   -9.5840   11.3030 C.3   1001  DAN1001     0.0964
     12  N5        67.2520   -7.4220   10.1530 N.am  1001  DAN1001    -0.2020
     13  O1A       67.3850   -2.5470    6.0090 O.co2 1001  DAN1001    -0.2430
     14  O1B       69.1280   -1.9290    7.3550 O.co2 1001  DAN1001    -0.2430
     15  O4        69.6120   -5.9080   10.6540 O.3   1001  DAN1001    -0.2211
     16  O6        67.0260   -4.7030    7.5670 O.3   1001  DAN1001    -0.3429
     17  O7        66.4980   -7.1570    6.4660 O.3   1001  DAN1001    -0.2176
     18  O8        63.6000   -5.5200    7.9270 O.3   1001  DAN1001    -0.2175
     19  O9        63.3080   -8.1720    6.5540 O.3   1001  DAN1001    -0.2175
     20  O10       68.5770   -9.2270    9.3750 O.2   1001  DAN1001    -0.2733
@<TRIPOS>BOND
     1     9    19    1
     2     9     8    1
     3    13     1   ar
     4    17     7    1
     5     8     7    1
     6     8    18    1
     7     1    14   ar
     8     1     2    1
     9     7     6    1
    10    16     2    1
    11    16     6    1
    12     2     3    1
    13     6     5    1
    14     3     4    1
    15     5     4    1
    16     5    12    1
    17    20    10    2
    18     4    15    1
    19    12    10   am
    20    10    11    1
