@<TRIPOS>MOLECULE
2f27_DAN_A_1.pdb
 20 20 0 0 0
SMALL
GASTEIGER

@<TRIPOS>ATOM
      1  C1        10.1960    3.3620    7.8240 C.2   1001  DAN1001     0.3914
      2  C2        10.2980    4.5340    8.6180 C.3   1001  DAN1001     0.2203
      3  C3         9.2650    4.8200    9.6770 C.3   1001  DAN1001     0.0760
      4  C4         9.7560    5.9070   10.6650 C.3   1001  DAN1001     0.1773
      5  C5        10.5820    6.9690    9.9480 C.3   1001  DAN1001     0.1552
      6  C6        11.7890    6.2780    9.2950 C.3   1001  DAN1001     0.1710
      7  C7        12.6680    7.2640    8.4820 C.3   1001  DAN1001     0.2134
      8  C8        13.8980    6.5780    7.8800 C.3   1001  DAN1001     0.2173
      9  C9        14.7770    7.5320    7.0340 C.3   1001  DAN1001     0.2175
     10  C10       10.6290    9.2220   11.0010 C.2   1001  DAN1001     0.2420
     11  C11       11.1530   10.1040   12.1100 C.3   1001  DAN1001     0.0964
     12  N5        11.0010    7.9470   10.9590 N.am  1001  DAN1001    -0.2020
     13  O1A       11.0880    3.1040    6.8260 O.co2 1001  DAN1001    -0.2430
     14  O1B        9.2490    2.5060    8.0380 O.co2 1001  DAN1001    -0.2430
     15  O4         8.5920    6.4850   11.2780 O.3   1001  DAN1001    -0.2211
     16  O6        11.3160    5.2920    8.3530 O.3   1001  DAN1001    -0.3429
     17  O7        11.9140    7.7820    7.3630 O.3   1001  DAN1001    -0.2176
     18  O8        14.7030    6.0570    8.9480 O.3   1001  DAN1001    -0.2175
     19  O9        14.9100    8.8310    7.5580 O.3   1001  DAN1001    -0.2175
     20  O10        9.7860    9.7810   10.0800 O.2   1001  DAN1001    -0.2733
@<TRIPOS>BOND
     1    13     1   ar
     2     9    19    1
     3     9     8    1
     4    17     7    1
     5     1    14   ar
     6     1     2    1
     7     8     7    1
     8     8    18    1
     9    16     2    1
    10    16     6    1
    11     7     6    1
    12     2     3    1
    13     6     5    1
    14     3     4    1
    15     5     4    1
    16     5    12    1
    17    20    10    2
    18     4    15    1
    19    12    10   am
    20    10    11    1
