@<TRIPOS>MOLECULE
2f29_DAN_A_1.pdb
 20 20 0 0 0
SMALL
GASTEIGER

@<TRIPOS>ATOM
      1  C1        67.7350   -3.0350    6.9830 C.2   381  DAN381      0.3914
      2  C2        67.5850   -4.2510    7.7140 C.3   381  DAN381      0.2203
      3  C3        68.5600   -4.5790    8.8040 C.3   381  DAN381      0.0760
      4  C4        68.0580   -5.7320    9.6930 C.3   381  DAN381      0.1773
      5  C5        67.2610   -6.7560    8.9120 C.3   381  DAN381      0.1552
      6  C6        66.0700   -6.0330    8.2460 C.3   381  DAN381      0.1710
      7  C7        65.1950   -6.9850    7.3890 C.3   381  DAN381      0.2134
      8  C8        63.9930   -6.2910    6.7190 C.3   381  DAN381      0.2173
      9  C9        63.1330   -7.2360    5.8550 C.3   381  DAN381      0.2175
     10  C10       67.2610   -9.0610    9.8490 C.2   381  DAN381      0.2420
     11  C11       66.7590  -10.0160   10.9000 C.3   381  DAN381      0.0964
     12  N5        66.8510   -7.7910    9.8710 N.am  381  DAN381     -0.2020
     13  O1A       66.8530   -2.6640    5.9990 O.co2 381  DAN381     -0.2430
     14  O1B       68.7250   -2.2400    7.2430 O.co2 381  DAN381     -0.2430
     15  O4        69.1990   -6.3390   10.3140 O.3   381  DAN381     -0.2211
     16  O6        66.5860   -5.0070    7.3620 O.3   381  DAN381     -0.3429
     17  O7        65.9770   -7.5480    6.3300 O.3   381  DAN381     -0.2176
     18  O8        63.1460   -5.7230    7.7160 O.3   381  DAN381     -0.2175
     19  O9        63.1620   -8.5830    6.2630 O.3   381  DAN381     -0.2175
     20  O10       68.1290   -9.5460    8.9020 O.2   381  DAN381     -0.2733
@<TRIPOS>BOND
     1     9    19    1
     2     9     8    1
     3    13     1   ar
     4    17     7    1
     5     8     7    1
     6     8    18    1
     7     1    14   ar
     8     1     2    1
     9    16     2    1
    10    16     6    1
    11     7     6    1
    12     2     3    1
    13     6     5    1
    14     3     4    1
    15    20    10    2
    16     5     4    1
    17     5    12    1
    18     4    15    1
    19    10    12   am
    20    10    11    1
