@<TRIPOS>MOLECULE
2f2a_GLN_A_1.pdb
 10 9 0 0 0
SMALL
GASTEIGER

@<TRIPOS>ATOM
      1  N          4.2080    1.2160   19.4390 N.3   501  GLN501     -0.1159
      2  CA         4.5440    1.4600   18.0240 C.3   501  GLN501      0.2161
      3  C          3.9750    0.3800   17.0800 C.2   501  GLN501      0.3860
      4  O          3.2820   -0.6490   17.2870 O.co2 501  GLN501     -0.2437
      5  CB         6.0670    1.5550   17.8570 C.2   501  GLN501      0.0033
      6  CG         6.8740    0.3470   18.3510 C.2   501  GLN501      0.0231
      7  CD         8.3870    0.2090   18.3300 C.3   501  GLN501      0.2639
      8  OE1        9.1600    1.4160   18.1550 O.3   501  GLN501     -0.1971
      9  NE2        8.7730   -0.7560   17.4580 N.3   501  GLN501     -0.0920
     10  OXT        4.3630    0.7900   15.6800 O.co2 501  GLN501     -0.2437
@<TRIPOS>BOND
     1    10     3   ar
     2     3     4   ar
     3     3     2    1
     4     9     7    1
     5     5     2    1
     6     5     6    2
     7     2     1    1
     8     8     7    1
     9     7     6    1
