@<TRIPOS>MOLECULE
2f2c_AP9_B_1.pdb
 28 30 0 0 0
SMALL
GASTEIGER

@<TRIPOS>ATOM
      1  O1        27.4990   22.7740   58.0140 O.3   401  AP9401     -0.2185
      2  C15       28.4380   22.0740   58.8400 C.3   401  AP9401      0.2044
      3  C12       29.8230   22.1260   58.1860 C.3   401  AP9401      0.1384
      4  C13       30.4190   20.7610   57.8500 C.3   401  AP9401      0.0234
      5  C14       31.8920   20.9050   57.4820 C.3   401  AP9401      0.0019
      6  C16       29.6500   20.0820   56.7200 C.3   401  AP9401      0.0019
      7  N2        30.7740   22.9020   58.9760 N.pl3 401  AP9401     -0.1508
      8  C2        30.9780   22.8650   60.3210 C.1   401  AP9401      0.2227
      9  N3        31.8580   23.7890   60.7880 N.2   401  AP9401     -0.3099
     10  C4        32.1810   23.8960   62.0980 C.2   401  AP9401      0.2197
     11  C5        31.5440   22.9630   63.0390 C.2   401  AP9401      0.1693
     12  N7        32.0290   23.2780   64.2540 N.2   401  AP9401     -0.2402
     13  C8        32.8930   24.3140   64.1050 C.3   401  AP9401      0.2220
     14  N9        32.9950   24.6910   62.8170 N.pl3 401  AP9401     -0.2624
     15  C9        33.8670   25.8130   62.3340 C.3   401  AP9401      0.0770
     16  C10       33.3530   27.0990   62.9770 C.3   401  AP9401      0.0216
     17  C11       33.7960   26.0270   60.8190 C.3   401  AP9401      0.0216
     18  C6        30.5920   21.9480   62.4950 C.2   401  AP9401      0.2383
     19  N1        30.3580   21.9660   61.1510 N.2   401  AP9401     -0.3081
     20  N6        29.9800   21.0910   63.3560 N.pl3 401  AP9401     -0.1813
     21  C1A       29.6030   19.8100   63.1530 C.ar  401  AP9401      0.0753
     22  C2A       30.1820   18.8130   63.9450 C.ar  401  AP9401      0.0347
     23  C3A       29.8090   17.4750   63.8060 C.ar  401  AP9401      0.0912
     24  N10       30.3920   16.5260   64.5730 N.pl3 401  AP9401     -0.1280
     25  C4A       28.8350   17.1250   62.8750 C.ar  401  AP9401      0.0295
     26  C5A       28.2440   18.1190   62.0910 C.ar  401  AP9401      0.0603
     27 CL1        27.2030   17.7230   61.0850 Cl    401  AP9401     -0.0822
     28  C6A       28.6150   19.4640   62.2290 C.ar  401  AP9401      0.0281
@<TRIPOS>BOND
     1     6     4    1
     2     5     4    1
     3     4     3    1
     4     1     2    1
     5     3     2    1
     6     3     7    1
     7     7     8    1
     8     8     9    2
     9     8    19    2
    10     9    10    2
    11    17    15    1
    12    27    26    1
    13    19    18    2
    14    26    28   ar
    15    26    25   ar
    16    10    14    1
    17    10    11    1
    18    28    21   ar
    19    15    14    1
    20    15    16    1
    21    18    11    1
    22    18    20    1
    23    14    13    1
    24    25    23   ar
    25    11    12    2
    26    21    20    1
    27    21    22   ar
    28    23    22   ar
    29    23    24    1
    30    13    12    1
