@<TRIPOS>MOLECULE
2f2e_GLC_B_1.pdb
 12 12 0 0 0
SMALL
GASTEIGER

@<TRIPOS>ATOM
      1  C1        21.9100   72.9310    2.4180 C.3   401  GLC401      0.3024
      2  C2        20.6170   73.7240    2.6860 C.3   401  GLC401      0.2434
      3  C3        20.9800   75.1690    2.3340 C.3   401  GLC401      0.2199
      4  C4        21.8210   75.6430    3.5160 C.3   401  GLC401      0.2144
      5  C5        23.0920   74.7850    3.5780 C.3   401  GLC401      0.1836
      6  C6        23.8120   75.0410    4.9140 C.3   401  GLC401      0.2142
      7  O1        22.4060   73.0430    1.0780 O.3   401  GLC401     -0.1869
      8  O2        19.4550   73.2080    2.0650 O.3   401  GLC401     -0.2148
      9  O3        19.8990   76.0250    2.0420 O.3   401  GLC401     -0.2174
     10  O4        22.1180   77.0190    3.3860 O.3   401  GLC401     -0.2176
     11  O5        22.9170   73.3810    3.3260 O.3   401  GLC401     -0.3236
     12  O6        23.9420   73.9400    5.7760 O.3   401  GLC401     -0.2176
@<TRIPOS>BOND
     1     7     1    1
     2     9     3    1
     3     8     2    1
     4     3     2    1
     5     3     4    1
     6     1     2    1
     7     1    11    1
     8    11     5    1
     9    10     4    1
    10     4     5    1
    11     5     6    1
    12     6    12    1
