@<TRIPOS>MOLECULE
2f2g_HMH_A_1.pdb
 10 10 0 0 0
SMALL
GASTEIGER

@<TRIPOS>ATOM
      1  CM2        0.3750   54.1530   49.9720 C.3   1300  HMH1300     0.1291
      2  N1A        1.7820   52.1210   49.8880 N.2   1300  HMH1300    -0.1861
      3  C2A        0.7390   52.8050   50.4720 C.1   1300  HMH1300     0.0663
      4  N3A        0.0550   52.2510   51.4830 N.2   1300  HMH1300    -0.3368
      5  C4A        0.3780   50.9770   51.9280 C.2   1300  HMH1300     0.2301
      6  N4A       -0.2880   50.3820   52.9670 N.pl3 1300  HMH1300    -0.0924
      7  C5A        1.4310   50.2710   51.3260 C.2   1300  HMH1300     0.0783
      8  C6A        2.1520   50.9020   50.2940 C.2   1300  HMH1300     0.1124
      9  C7A        1.8700   48.8960   51.8030 C.3   1300  HMH1300     0.2141
     10  O1         0.8100   48.3130   52.5690 O.3   1300  HMH1300    -0.2150
@<TRIPOS>BOND
     1     2     8    1
     2     2     3    2
     3     1     3    1
     4     8     7    2
     5     3     4    2
     6     7     9    1
     7     7     5    1
     8     4     5    2
     9     9    10    1
    10     5     6    1
