@<TRIPOS>MOLECULE
2f2h_XTG_A_1.pdb
 30 32 0 0 0
SMALL
GASTEIGER

@<TRIPOS>ATOM
      1  C14      141.3860   60.1150  132.6660 C.ar  3015  XTG3015     0.0387
      2  C13      141.3370   58.7280  132.6660 C.ar  3015  XTG3015     0.0272
      3  C12      142.4670   57.9860  132.3270 C.ar  3015  XTG3015     0.1431
      4  N1       142.4460   56.6300  132.3060 N.pl3 3015  XTG3015     0.0577
      5  O10      143.6040   55.9920  131.8150 O.2   3015  XTG3015    -0.1261
      6  O11      141.3180   55.8260  132.7560 O.2   3015  XTG3015    -0.1261
      7  C17      143.6300   58.6740  131.9720 C.ar  3015  XTG3015     0.0272
      8  C16      143.6770   60.0560  131.9790 C.ar  3015  XTG3015     0.0387
      9  C15      142.5500   60.7890  132.3310 C.ar  3015  XTG3015     0.1415
     10  O1       142.5250   62.1500  132.3940 O.3   3015  XTG3015    -0.4505
     11  C1       143.7900   62.8490  132.7010 C.3   3015  XTG3015     0.3218
     12  O5       144.6050   62.2950  133.7470 O.3   3015  XTG3015    -0.3175
     13  C2       143.5230   64.3130  133.1030 C.3   3015  XTG3015     0.2541
     14  O2       142.7280   64.9010  132.1130 O.3   3015  XTG3015    -0.2135
     15  C3       144.8330   65.0720  133.2410 C.3   3015  XTG3015     0.2211
     16  O3       144.6250   66.3780  133.6620 O.3   3015  XTG3015    -0.2173
     17  C4       145.6810   64.2860  134.1930 C.3   3015  XTG3015     0.2127
     18  O4       146.9590   64.8320  134.3220 O.3   3015  XTG3015    -0.2177
     19  C5       145.8420   62.9300  133.5620 C.3   3015  XTG3015     0.1626
     20  C6       147.1050   62.3560  134.1110 C.3   3015  XTG3015     0.0922
     21  S6       146.8700   60.9700  135.2510 S.3   3015  XTG3015    -0.1067
     22  C7       147.7090   61.1920  136.9100 C.3   3015  XTG3015     0.1956
     23  O9       146.9010   60.7380  138.0030 O.3   3015  XTG3015    -0.3399
     24  C11      146.7780   59.2870  138.0820 C.3   3015  XTG3015     0.1788
     25  C10      148.1020   58.4950  138.1180 C.3   3015  XTG3015     0.2142
     26  O8       147.7750   57.0960  137.8880 O.3   3015  XTG3015    -0.2176
     27  C9       149.0790   59.0220  137.0360 C.3   3015  XTG3015     0.2181
     28  O7       150.3650   58.3390  137.1410 O.3   3015  XTG3015    -0.2175
     29  C8       149.1200   60.5820  137.1120 C.3   3015  XTG3015     0.2219
     30  O6       149.9970   61.2920  136.2080 O.3   3015  XTG3015    -0.2167
@<TRIPOS>BOND
     1     5     4    2
     2     7     8   ar
     3     7     3   ar
     4     8     9   ar
     5    14    13    1
     6     4     3    1
     7     4     6    2
     8     3     2   ar
     9     9    10    1
    10     9     1   ar
    11    10    11    1
    12     2     1   ar
    13    11    13    1
    14    11    12    1
    15    13    15    1
    16    15    16    1
    17    15    17    1
    18    19    12    1
    19    19    20    1
    20    19    17    1
    21    20    21    1
    22    17    18    1
    23    21    22    1
    24    30    29    1
    25    22    29    1
    26    22    23    1
    27    27    29    1
    28    27    28    1
    29    27    25    1
    30    26    25    1
    31    23    24    1
    32    24    25    1
