@<TRIPOS>MOLECULE
2f2k_TGG_A_1.pdb
 28 27 0 0 0
SMALL
GASTEIGER

@<TRIPOS>ATOM
      1  OC1       38.2730   48.0190   15.9300 O.co2 351  TGG351     -0.2441
      2  CO1       37.8930   46.9280   15.5080 C.2   351  TGG351      0.3819
      3  OT1       37.3730   46.8730   14.3940 O.co2 351  TGG351     -0.2441
      4  CA1       38.1170   45.6610   16.3400 C.3   351  TGG351      0.1948
      5  NN1       39.4900   45.1880   16.1080 N.3   351  TGG351     -0.1208
      6  CB1       37.9450   45.9340   17.8370 C.3   351  TGG351      0.0402
      7  CG1       36.4850   46.0550   18.2880 C.3   351  TGG351      0.0889
      8  CD1       35.7950   44.7020   18.4840 C.2   351  TGG351      0.2418
      9  OE1       34.5700   44.6080   18.4080 O.2   351  TGG351     -0.2733
     10  NN2       36.6080   43.6880   18.7720 N.am  351  TGG351     -0.1969
     11  CA2       36.1300   42.3150   18.9990 C.3   351  TGG351      0.1834
     12  CO2       36.0130   42.0920   20.5100 C.2   351  TGG351      0.2626
     13  OC2       36.9910   42.2490   21.2400 O.2   351  TGG351     -0.2714
     14  NN3       34.8120   41.7390   20.9620 N.am  351  TGG351     -0.1917
     15  CA3       34.5500   41.4920   22.3890 C.3   351  TGG351      0.2285
     16  CO3       33.8300   42.7030   22.9870 C.2   351  TGG351      0.3865
     17  OC3       32.6200   42.8550   22.8220 O.co2 351  TGG351     -0.2437
     18  OT3       34.4510   43.5440   23.6360 O.co2 351  TGG351     -0.2437
     19  CB2       37.1200   41.3240   18.3760 C.3   351  TGG351      0.0891
     20  SG2       38.7120   41.1640   19.2700 S.3   351  TGG351     -0.1270
     21  CD2       40.0040   41.1090   17.9710 C.3   351  TGG351      0.1620
     22  CE2       39.5750   41.8630   16.7110 C.2   351  TGG351      0.3748
     23  OE2       39.5260   43.0910   16.7220 O.co2 351  TGG351     -0.2447
     24  OF2       39.2940   41.2500   15.6810 O.co2 351  TGG351     -0.2447
     25  CF2       40.3900   39.6730   17.6040 C.3   351  TGG351      0.1362
     26  CH2       41.5900   39.6310   16.6540 C.2   351  TGG351      0.3663
     27  OI2       42.6450   40.1930   16.9430 O.co2 351  TGG351     -0.2456
     28  OJ2       41.5240   39.0170   15.5920 O.co2 351  TGG351     -0.2456
@<TRIPOS>BOND
     1     3     2   ar
     2     2     1   ar
     3     2     4    1
     4    28    26   ar
     5    24    22   ar
     6     5     4    1
     7     4     6    1
     8    26    27   ar
     9    26    25    1
    10    22    23   ar
    11    22    21    1
    12    25    21    1
    13     6     7    1
    14    21    20    1
    15     7     8    1
    16    19    11    1
    17    19    20    1
    18     9     8    2
    19     8    10   am
    20    10    11    1
    21    11    12    1
    22    12    14   am
    23    12    13    2
    24    14    15    1
    25    15    16    1
    26    17    16   ar
    27    16    18   ar
