@<TRIPOS>MOLECULE
2f2k_NDP_A_1.pdb
 48 52 0 0 0
SMALL
GASTEIGER

@<TRIPOS>ATOM
      1  PA        49.6970   38.7380   23.6740 P.3   350  NDP350      0.2189
      2  O1A       49.2030   37.6440   24.5480 O.3   350  NDP350     -0.4371
      3  O2A       50.6680   38.4020   22.6100 O.2   350  NDP350     -0.5170
      4  O5B       50.2960   39.8860   24.6260 O.3   350  NDP350     -0.3112
      5  C5B       50.7040   41.1540   24.1100 C.3   350  NDP350      0.1813
      6  C4B       50.9540   42.0740   25.3040 C.3   350  NDP350      0.1820
      7  O4B       51.9860   41.4220   26.0660 O.3   350  NDP350     -0.3136
      8  C3B       51.4860   43.4380   24.8540 C.3   350  NDP350      0.2157
      9  O3B       51.0120   44.4710   25.7220 O.3   350  NDP350     -0.2175
     10  C2B       53.0020   43.2710   24.9700 C.3   350  NDP350      0.2314
     11  O2B       53.5740   44.5230   25.3560 O.3   350  NDP350     -0.2630
     12  C1B       53.0980   42.3250   26.1720 C.3   350  NDP350      0.3158
     13  N9A       54.3720   41.5640   26.1870 N.pl3 350  NDP350     -0.1439
     14  C8A       54.9050   40.9450   25.1350 C.3   350  NDP350      0.3377
     15  N7A       56.0500   40.3640   25.4830 N.2   350  NDP350     -0.2095
     16  C5A       56.2500   40.6100   26.7740 C.2   350  NDP350      0.2526
     17  C6A       57.2600   40.2810   27.6730 C.2   350  NDP350      0.4393
     18  N6A       58.2580   39.4860   27.2950 N.pl3 350  NDP350      0.2180
     19  N1A       57.1770   40.7300   28.9360 N.2   350  NDP350      0.0021
     20  C2A       56.1500   41.4610   29.3390 C.3   350  NDP350      0.5254
     21  N3A       55.1700   41.7760   28.5080 N.2   350  NDP350     -0.0055
     22  C4A       55.1850   41.3770   27.2250 C.2   350  NDP350      0.3518
     23  O3        48.3940   39.4920   23.1180 O.3   350  NDP350     -0.2703
     24  PN        47.7840   39.5140   21.6310 P.3   350  NDP350      0.2189
     25  O1N       48.4170   40.5970   20.8430 O.2   350  NDP350     -0.5170
     26  O2N       46.3120   39.5550   21.8070 O.3   350  NDP350     -0.4371
     27  O5D       48.1270   38.0890   20.9600 O.3   350  NDP350     -0.3112
     28  C5D       49.2160   37.9140   20.0460 C.3   350  NDP350      0.1813
     29  C4D       48.7340   37.9310   18.5910 C.3   350  NDP350      0.1799
     30  O4D       47.7700   36.8980   18.3240 O.3   350  NDP350     -0.3327
     31  C3D       47.9630   39.1830   18.1850 C.3   350  NDP350      0.2158
     32  O3D       48.8190   40.3200   18.0490 O.3   350  NDP350     -0.2175
     33  C2D       47.4870   38.7070   16.8140 C.3   350  NDP350      0.2309
     34  O2D       48.5560   38.6550   15.8620 O.3   350  NDP350     -0.2158
     35  C1D       47.0050   37.2980   17.1670 C.3   350  NDP350      0.2263
     36  N1N       45.5670   37.3470   17.5260 N.pl3 350  NDP350     -0.2787
     37  C2N       44.6200   36.7680   16.6680 C.3   350  NDP350      0.1244
     38  C3N       43.2720   36.8190   17.0120 C.2   350  NDP350      0.0544
     39  C7N       42.2060   36.1950   16.1080 C.2   350  NDP350      0.2818
     40  O7N       41.0250   36.5230   16.2260 O.2   350  NDP350     -0.2670
     41  N7N       42.6500   35.3030   15.2240 N.am  350  NDP350     -0.0839
     42  C4N       42.8770   37.4610   18.1810 C.2   350  NDP350      0.0033
     43  C5N       43.8080   38.0440   19.0360 C.2   350  NDP350      0.0157
     44  C6N       45.1590   37.9840   18.7070 C.2   350  NDP350      0.0633
     45  P2B       54.3250   45.5090   24.3280 P.3   350  NDP350      0.5328
     46  O1X       55.8600   45.0390   24.4190 O.3   350  NDP350     -0.1145
     47  O2X       54.1780   46.8750   24.8780 O.3   350  NDP350     -0.1145
     48  O3X       53.8130   45.2530   22.9620 O.2   350  NDP350     -0.2224
@<TRIPOS>BOND
     1    41    39   am
     2    34    33    1
     3    39    40    2
     4    39    38    1
     5    37    38    1
     6    37    36    1
     7    33    35    1
     8    33    31    1
     9    38    42    2
    10    35    36    1
    11    35    30    1
    12    36    44    1
    13    32    31    1
    14    42    43    1
    15    31    29    1
    16    30    29    1
    17    29    28    1
    18    44    43    2
    19    28    27    1
    20    25    24    2
    21    27    24    1
    22    24    26    1
    23    24    23    1
    24     3     1    2
    25    48    45    2
    26    23     1    1
    27     1     2    1
    28     1     4    1
    29     5     4    1
    30     5     6    1
    31    45    46    1
    32    45    47    1
    33    45    11    1
    34     8    10    1
    35     8     6    1
    36     8     9    1
    37    10    11    1
    38    10    12    1
    39    14    15    1
    40    14    13    1
    41     6     7    1
    42    15    16    2
    43     7    12    1
    44    12    13    1
    45    13    22    1
    46    16    22    1
    47    16    17    1
    48    22    21    2
    49    18    17    1
    50    17    19    2
    51    21    20    1
    52    19    20    1
