@<TRIPOS>MOLECULE
2f2s_COA_A_1.pdb
 48 50 0 0 0
SMALL
GASTEIGER

@<TRIPOS>ATOM
      1  N1A       18.3460   38.8140   76.2330 N.2   1001  COA1001     0.0021
      2  C2A       19.0450   38.8030   77.4230 C.3   1001  COA1001     0.5254
      3  N3A       18.8190   37.8130   78.3570 N.2   1001  COA1001    -0.0055
      4  C4A       17.9010   36.8360   78.1140 C.2   1001  COA1001     0.3518
      5  C5A       17.1900   36.8310   76.9140 C.2   1001  COA1001     0.2526
      6  C6A       17.4200   37.8300   75.9580 C.2   1001  COA1001     0.4393
      7  N6A       17.1770   37.5720   74.6790 N.pl3 1001  COA1001     0.2180
      8  N7A       16.3650   35.7590   76.9480 N.2   1001  COA1001    -0.2095
      9  C8A       16.5320   35.0930   78.1160 C.3   1001  COA1001     0.3377
     10  N9A       17.4820   35.7480   78.8560 N.pl3 1001  COA1001    -0.1439
     11  C1B       17.7860   35.5550   80.2920 C.3   1001  COA1001     0.3185
     12  C2B       16.5620   35.6310   81.1810 C.3   1001  COA1001     0.2543
     13  O2B       16.1710   36.9710   81.3860 O.3   1001  COA1001    -0.2131
     14  C3B       17.0780   34.9570   82.4370 C.3   1001  COA1001     0.1928
     15  O3B       17.7450   35.8920   83.2500 O.3   1001  COA1001    -0.2673
     16  P3B       17.7630   35.7690   84.8610 P.3   1001  COA1001     0.5327
     17  O7A       18.7580   36.7710   85.4260 O.3   1001  COA1001    -0.1145
     18  O8A       16.3710   36.1240   85.3520 O.3   1001  COA1001    -0.1145
     19  O9A       18.1860   34.3670   85.2770 O.2   1001  COA1001    -0.2224
     20  C4B       18.1290   33.9730   81.9510 C.3   1001  COA1001     0.1795
     21  O4B       18.3950   34.3140   80.6000 O.3   1001  COA1001    -0.3136
     22  C5B       17.6450   32.5330   82.1170 C.3   1001  COA1001     0.1812
     23  O5B       16.7790   32.1950   81.0470 O.3   1001  COA1001    -0.3112
     24  P1A       15.2530   31.6480   81.1930 P.3   1001  COA1001     0.2189
     25  O1A       14.8320   31.5850   82.6510 O.3   1001  COA1001    -0.4371
     26  O2A       14.3060   32.5150   80.3850 O.2   1001  COA1001    -0.5170
     27  O3A       15.3510   30.1470   80.5910 O.3   1001  COA1001    -0.2703
     28  P2A       16.2530   29.0100   81.3150 P.3   1001  COA1001     0.2188
     29  O4A       17.6870   29.4720   81.4990 O.2   1001  COA1001    -0.5170
     30  O5A       15.6760   28.6750   82.6740 O.3   1001  COA1001    -0.4371
     31  O6A       16.2810   27.7330   80.3110 O.3   1001  COA1001    -0.3138
     32  CBP       16.4290   26.7700   78.0330 C.3   1001  COA1001     0.0645
     33  CCP       15.7850   27.7900   78.9860 C.3   1001  COA1001     0.1519
     34  CDP       17.6050   27.4580   77.3470 C.3   1001  COA1001     0.0056
     35  CEP       16.9700   25.5640   78.8080 C.3   1001  COA1001     0.0056
     36  CAP       15.3510   26.3380   77.0070 C.3   1001  COA1001     0.2312
     37  OAP       14.7630   27.4450   76.3340 O.3   1001  COA1001    -0.2131
     38  C9P       15.8070   25.3090   75.9990 C.2   1001  COA1001     0.2719
     39  O9P       15.9230   23.9500   76.3500 O.2   1001  COA1001    -0.2706
     40  N8P       16.0900   25.7580   74.7790 N.am  1001  COA1001    -0.2028
     41  C7P       16.6380   24.9000   73.7540 C.3   1001  COA1001     0.1248
     42  C6P       15.5140   24.4420   72.8490 C.3   1001  COA1001     0.1102
     43  C5P       16.0750   23.6780   71.6880 C.2   1001  COA1001     0.2432
     44  O5P       17.1810   23.1380   71.7850 O.2   1001  COA1001    -0.2733
     45  N4P       15.3170   23.6210   70.6010 N.am  1001  COA1001    -0.2044
     46  C3P       15.4060   22.5140   69.6720 C.3   1001  COA1001     0.1276
     47  C2P       16.5670   22.6950   68.7060 C.3   1001  COA1001     0.0920
     48  S1P       17.8000   21.3670   68.8080 S.3   1001  COA1001    -0.0802
@<TRIPOS>BOND
     1    47    48    1
     2    47    46    1
     3    46    45    1
     4    45    43   am
     5    43    44    2
     6    43    42    1
     7    42    41    1
     8    41    40    1
     9     7     6    1
    10    40    38   am
    11     6     1    2
    12     6     5    1
    13    38    39    2
    14    38    36    1
    15     1     2    1
    16    37    36    1
    17     5     8    2
    18     5     4    1
    19     8     9    1
    20    36    32    1
    21    34    32    1
    22     2     3    1
    23    32    35    1
    24    32    33    1
    25     4     3    2
    26     4    10    1
    27     9    10    1
    28    10    11    1
    29    33    31    1
    30    11    21    1
    31    11    12    1
    32    31    28    1
    33    26    24    2
    34    27    24    1
    35    27    28    1
    36    21    20    1
    37    23    24    1
    38    23    22    1
    39    12    13    1
    40    12    14    1
    41    24    25    1
    42    28    29    2
    43    28    30    1
    44    20    22    1
    45    20    14    1
    46    14    15    1
    47    15    16    1
    48    16    19    2
    49    16    18    1
    50    16    17    1
