@<TRIPOS>MOLECULE
2f2t_5IQ_A_1.pdb
 11 12 0 0 0
SMALL
GASTEIGER

@<TRIPOS>ATOM
      1  CAB       -2.6190   19.8290  -17.9850 C.ar  463  5IQ463      0.0198
      2  CAF       -1.3430   19.9190  -17.4330 C.ar  463  5IQ463      0.0220
      3  CAK       -0.7860   21.1780  -17.2130 C.ar  463  5IQ463      0.0989
      4  NAH       -1.4570   22.2840  -17.5190 N.ar  463  5IQ463     -0.2423
      5  CAD       -2.6730   22.2360  -18.0470 C.ar  463  5IQ463      0.0989
      6  CAA       -3.2930   21.0130  -18.2960 C.ar  463  5IQ463      0.0205
      7  CAC       -4.5700   20.9720  -18.8510 C.ar  463  5IQ463      0.0016
      8  CAG       -5.1790   19.7420  -19.0890 C.ar  463  5IQ463      0.0014
      9  CAI       -4.5090   18.5590  -18.7770 C.ar  463  5IQ463      0.0181
     10  CAE       -3.2280   18.5940  -18.2260 C.ar  463  5IQ463      0.0891
     11  NAJ       -2.6050   17.4500  -17.9370 N.pl3 463  5IQ463     -0.1281
@<TRIPOS>BOND
     1     8     7   ar
     2     8     9   ar
     3     7     6   ar
     4     9    10   ar
     5     6     5   ar
     6     6     1   ar
     7    10     1   ar
     8    10    11    1
     9     5     4   ar
    10     1     2   ar
    11     4     3   ar
    12     2     3   ar
