@<TRIPOS>MOLECULE
2f2u_M77_A_1.pdb
 20 22 0 0 0
SMALL
GASTEIGER

@<TRIPOS>ATOM
      1  O1        17.1510   71.1130  124.8810 O.2   501  M77501     -0.1528
      2  S1        16.5020   72.3460  125.2090 S.O2  501  M77501      0.0633
      3  O2        16.9160   72.8250  126.4780 O.2   501  M77501     -0.1528
      4  N4        16.7550   73.3460  123.9910 N.3   501  M77501     -0.1540
      5  C22       16.7570   72.7270  122.6390 C.3   501  M77501      0.1146
      6  C21       17.1510   73.5750  121.4140 C.3   501  M77501      0.1078
      7  N17       18.1140   74.7050  121.5530 N.3   501  M77501     -0.2165
      8  C16       19.0800   74.9180  122.6560 C.3   501  M77501      0.0902
      9  C20       18.4190   75.3220  123.9770 C.3   501  M77501      0.0379
     10  C15       16.9800   74.8140  124.2160 C.3   501  M77501      0.0973
     11  C5        14.7520   72.1410  125.2050 C.ar  501  M77501      0.1223
     12  C6        13.9520   73.0460  124.4650 C.ar  501  M77501      0.0199
     13  C7        12.5330   72.9490  124.3920 C.ar  501  M77501      0.0014
     14  C8        11.8280   71.9070  125.0320 C.ar  501  M77501      0.0016
     15  C9        12.5820   70.9760  125.7770 C.ar  501  M77501      0.0205
     16  C10       14.0710   71.0590  125.8650 C.ar  501  M77501      0.0217
     17  C11       14.7440   70.0880  126.6190 C.ar  501  M77501      0.0220
     18  C14       11.9210   69.9280  126.4430 C.ar  501  M77501      0.0989
     19  N13       12.6330   68.9890  127.1430 N.ar  501  M77501     -0.2423
     20  C12       14.0030   69.0630  127.2770 C.ar  501  M77501      0.0989
@<TRIPOS>BOND
     1     6     7    1
     2     6     5    1
     3     7     8    1
     4     5     4    1
     5     8     9    1
     6     9    10    1
     7     4    10    1
     8     4     2    1
     9    13    12   ar
    10    13    14   ar
    11    12    11   ar
    12     1     2    2
    13    14    15   ar
    14    11     2    1
    15    11    16   ar
    16     2     3    2
    17    15    16   ar
    18    15    18   ar
    19    16    17   ar
    20    18    19   ar
    21    17    20   ar
    22    19    20   ar
