@<TRIPOS>MOLECULE
2f34_UBA_A_1.pdb
 24 25 0 0 0
SMALL
GASTEIGER

@<TRIPOS>ATOM
      1  OXT      -10.4830   -4.1740   13.7510 O.co2 801  UBA801     -0.2440
      2  C         -9.6150   -4.7760   14.4690 C.2   801  UBA801      0.3838
      3  O         -9.9600   -5.7190   15.2140 O.co2 801  UBA801     -0.2440
      4  CA        -8.1730   -4.3780   14.4320 C.3   801  UBA801      0.2168
      5  N         -7.9910   -3.3160   13.4520 N.3   801  UBA801     -0.1187
      6  CB        -7.7160   -3.9870   15.8700 C.3   801  UBA801      0.1411
      7  N4        -6.3830   -3.4150   15.7340 N.ar  801  UBA801     -0.2779
      8  C5        -5.3100   -4.3350   15.5780 C.ar  801  UBA801      0.3341
      9  O8        -5.5700   -5.5430   15.6080 O.2   801  UBA801     -0.2462
     10  N6        -4.0160   -3.8530   15.4080 N.ar  801  UBA801     -0.2447
     11  C1        -3.7600   -2.4900   15.4050 C.ar  801  UBA801      0.2619
     12  O7        -2.6030   -2.1060   15.2260 O.2   801  UBA801     -0.2671
     13  C2        -4.8910   -1.5420   15.5630 C.ar  801  UBA801      0.0517
     14  C6        -4.6330   -0.0450   15.5690 C.3   801  UBA801      0.0376
     15  C3        -6.1510   -2.0930   15.7330 C.ar  801  UBA801      0.0802
     16  C17       -2.8740   -4.7230   15.1850 C.3   801  UBA801      0.1410
     17  C18       -2.5480   -5.4600   16.4270 C.ar  801  UBA801      0.0136
     18  C23       -2.8360   -5.1430   17.7660 C.ar  801  UBA801      0.0053
     19  C22       -2.3610   -6.0580   18.7250 C.ar  801  UBA801      0.0354
     20  S20       -1.5220   -7.3310   17.8860 S.2   801  UBA801     -0.0802
     21  C19       -1.7750   -6.7000   16.3190 C.ar  801  UBA801      0.1071
     22  C10       -1.2810   -7.3790   15.1120 C.2   801  UBA801      0.3934
     23  O2        -1.1130   -6.7180   14.0510 O.co2 801  UBA801     -0.2400
     24  O1        -1.0490   -8.6010   15.2660 O.co2 801  UBA801     -0.2400
@<TRIPOS>BOND
     1     5     4    1
     2     1     2   ar
     3    23    22   ar
     4     4     2    1
     5     4     6    1
     6     2     3   ar
     7    22    24   ar
     8    22    21    1
     9    16    10    1
    10    16    17    1
    11    12    11    2
    12    11    10   ar
    13    11    13   ar
    14    10     8   ar
    15    13    14    1
    16    13    15   ar
    17     8     9    2
    18     8     7   ar
    19    15     7   ar
    20     7     6    1
    21    21    17   ar
    22    21    20   ar
    23    17    18   ar
    24    18    19   ar
    25    20    19   ar
