@<TRIPOS>MOLECULE
2f35_UBC_A_1.pdb
 24 25 0 0 0
SMALL
GASTEIGER

@<TRIPOS>ATOM
      1  O1        -1.2690   -6.6560   14.3420 O.co2 801  UBC801     -0.2406
      2  C10       -1.6110   -7.3180   15.3520 C.2   801  UBC801      0.3875
      3  O2        -1.7410   -8.5660   15.3400 O.co2 801  UBC801     -0.2406
      4  C22       -1.8850   -6.5910   16.6350 C.ar  801  UBC801      0.0776
      5  C23       -1.4680   -7.1120   17.8600 C.ar  801  UBC801      0.0063
      6  C24       -1.7500   -6.4090   19.0390 C.ar  801  UBC801      0.0002
      7  C25       -2.4360   -5.1970   19.0220 C.ar  801  UBC801     -0.0003
      8  C26       -2.8640   -4.6420   17.8260 C.ar  801  UBC801     -0.0022
      9  C21       -2.6190   -5.3030   16.6370 C.ar  801  UBC801      0.0070
     10  C17       -3.0810   -4.7130   15.3310 C.3   801  UBC801      0.1405
     11  N6        -4.3010   -3.9020   15.4660 N.ar  801  UBC801     -0.2445
     12  C5        -5.5890   -4.4390   15.5960 C.ar  801  UBC801      0.3341
     13  O8        -5.7670   -5.6790   15.6440 O.2   801  UBC801     -0.2462
     14  C1        -4.1410   -2.5150   15.4140 C.ar  801  UBC801      0.2661
     15  O7        -2.9900   -2.0900   15.2800 O.2   801  UBC801     -0.2668
     16  C2        -5.2300   -1.6630   15.5060 C.ar  801  UBC801      0.0796
     17  C3        -6.5030   -2.2140   15.6410 C.ar  801  UBC801      0.0847
     18  N4        -6.6870   -3.5430   15.6980 N.ar  801  UBC801     -0.2776
     19  CB        -8.0500   -4.0790   15.8100 C.3   801  UBC801      0.1411
     20  CA        -8.4820   -4.4880   14.3860 C.3   801  UBC801      0.2168
     21  N         -8.2560   -3.4230   13.4080 N.3   801  UBC801     -0.1187
     22  C         -9.9370   -4.8630   14.4070 C.2   801  UBC801      0.3838
     23  O        -10.7210   -4.2070   13.6910 O.co2 801  UBC801     -0.2440
     24  OXT      -10.3280   -5.8080   15.1360 O.co2 801  UBC801     -0.2440
@<TRIPOS>BOND
     1    21    20    1
     2    23    22   ar
     3     1     2   ar
     4    20    22    1
     5    20    19    1
     6    22    24   ar
     7    15    14    2
     8    10    11    1
     9    10     9    1
    10     3     2   ar
    11     2     4    1
    12    14    11   ar
    13    14    16   ar
    14    11    12   ar
    15    16    17   ar
    16    12    13    2
    17    12    18   ar
    18    17    18   ar
    19    18    19    1
    20     4     9   ar
    21     4     5   ar
    22     9     8   ar
    23     8     7   ar
    24     5     6   ar
    25     7     6   ar
