@<TRIPOS>MOLECULE
2f36_GLU_A_1.pdb
 10 9 0 0 0
SMALL
GASTEIGER

@<TRIPOS>ATOM
      1  N         -0.8440   -1.7540   19.2120 N.3   501  GLU501     -0.1208
      2  CA        -1.7120   -2.8560   19.7450 C.3   501  GLU501      0.1949
      3  C         -2.0590   -3.8720   18.6660 C.2   501  GLU501      0.3819
      4  O         -1.5810   -3.7270   17.5140 O.co2 501  GLU501     -0.2441
      5  CB        -2.9660   -2.2710   20.4100 C.3   501  GLU501      0.0424
      6  CG        -2.7480   -1.7430   21.8350 C.3   501  GLU501      0.1161
      7  CD        -2.4380   -2.8460   22.8590 C.2   501  GLU501      0.3649
      8  OE1       -2.0000   -2.5670   23.9880 O.co2 501  GLU501     -0.2457
      9  OE2       -2.6090   -4.0260   22.5510 O.co2 501  GLU501     -0.2457
     10  OXT       -2.7810   -4.8450   18.9070 O.co2 501  GLU501     -0.2441
@<TRIPOS>BOND
     1     4     3   ar
     2     3    10   ar
     3     3     2    1
     4     1     2    1
     5     2     5    1
     6     5     6    1
     7     6     7    1
     8     9     7   ar
     9     7     8   ar
