@<TRIPOS>MOLECULE
2f38_15M_A_1.pdb
 30 31 0 0 0
SMALL
GASTEIGER

@<TRIPOS>ATOM
      1  C1        25.4460  -11.6840   37.4540 C.2   325  15M325      0.2414
      2  C2        24.0880  -11.1160   37.9410 C.3   325  15M325      0.0872
      3  C3        22.9590  -12.0970   37.5670 C.3   325  15M325      0.0143
      4  C4        21.5580  -11.4500   37.7290 C.3   325  15M325      0.0262
      5  C5        21.1910  -11.1600   39.1600 C.2   325  15M325     -0.0307
      6  C6        20.7850  -12.1020   40.0670 C.2   325  15M325     -0.0306
      7  C7        20.6680  -13.5730   39.7420 C.3   325  15M325      0.0286
      8  C8        19.2390  -14.2070   39.8770 C.3   325  15M325      0.0413
      9  C9        18.7080  -14.4080   41.3220 C.3   325  15M325      0.1552
     10  C10       17.2810  -13.8290   41.3650 C.3   325  15M325      0.0661
     11  C11       16.8550  -13.5870   39.9140 C.3   325  15M325      0.1585
     12  C12       18.1530  -13.4160   39.1180 C.3   325  15M325      0.0550
     13  C13       18.0000  -13.9600   37.7530 C.2   325  15M325     -0.0259
     14  C14       17.8300  -13.1380   36.7180 C.2   325  15M325      0.0016
     15  C15       17.6640  -13.6980   35.3520 C.3   325  15M325      0.1740
     16  C16       18.6320  -13.0020   34.3910 C.3   325  15M325      0.0421
     17  C17       20.0690  -13.5480   34.5710 C.3   325  15M325      0.0293
     18  C18       20.9470  -13.0430   33.4660 C.ar  325  15M325     -0.0221
     19  C19       21.4020  -11.6890   33.4660 C.ar  325  15M325     -0.0043
     20  C20       22.2270  -11.2080   32.4170 C.ar  325  15M325     -0.0003
     21  C21       22.6030  -12.0860   31.3500 C.ar  325  15M325     -0.0000
     22  C22       22.1560  -13.4400   31.3370 C.ar  325  15M325     -0.0003
     23  C23       21.3290  -13.9200   32.3980 C.ar  325  15M325     -0.0043
     24  C24       27.1830  -14.3950   36.6720 C.3   325  15M325      0.0252
     25  C25       27.1650  -13.2760   37.7330 C.3   325  15M325      0.1152
     26  N         25.9950  -12.7360   38.1070 N.am  325  15M325     -0.2054
     27  O1        26.0460  -11.1450   36.4200 O.2   325  15M325     -0.2733
     28  O9        19.4940  -13.7400   42.2700 O.3   325  15M325     -0.2230
     29  O11       16.0890  -12.4130   39.8220 O.3   325  15M325     -0.2227
     30  O15       16.3420  -13.4890   34.8990 O.3   325  15M325     -0.2183
@<TRIPOS>BOND
     1    22    21   ar
     2    22    23   ar
     3    21    20   ar
     4    23    18   ar
     5    20    19   ar
     6    19    18   ar
     7    18    17    1
     8    16    17    1
     9    16    15    1
    10    30    15    1
    11    15    14    1
    12    27     1    2
    13    24    25    1
    14    14    13    2
    15     1     2    1
    16     1    26   am
    17     3     4    1
    18     3     2    1
    19     4     5    1
    20    25    26    1
    21    13    12    1
    22    12     8    1
    23    12    11    1
    24     5     6    2
    25     7     8    1
    26     7     6    1
    27    29    11    1
    28     8     9    1
    29    11    10    1
    30     9    10    1
    31     9    28    1
