@<TRIPOS>MOLECULE
2f38_NAP_A_1.pdb
 48 52 0 0 0
SMALL
GASTEIGER

@<TRIPOS>ATOM
      1  PA        22.0120  -12.6350   51.7910 P.3   324  NAP324      0.2189
      2  O1A       22.9550  -13.6090   51.4140 O.2   324  NAP324     -0.5170
      3  O2A       22.2810  -11.3780   52.5780 O.3   324  NAP324     -0.4371
      4  O5B       20.8340  -13.3520   52.5130 O.3   324  NAP324     -0.3112
      5  C5B       20.9990  -13.8120   53.8160 C.3   324  NAP324      0.1813
      6  C4B       19.7200  -14.6610   53.9770 C.3   324  NAP324      0.1820
      7  O4B       19.9120  -15.1130   55.3580 O.3   324  NAP324     -0.3136
      8  C3B       18.4110  -13.8190   53.9880 C.3   324  NAP324      0.2157
      9  O3B       17.5170  -14.4340   53.0570 O.3   324  NAP324     -0.2175
     10  C2B       17.8820  -13.8560   55.4030 C.3   324  NAP324      0.2314
     11  O2B       16.5930  -14.4190   55.5810 O.3   324  NAP324     -0.2630
     12  C1B       18.9160  -14.6620   56.2380 C.3   324  NAP324      0.3158
     13  N9A       19.4810  -13.8330   57.2870 N.pl3 324  NAP324     -0.1439
     14  C8A       19.7360  -12.4810   57.3770 C.3   324  NAP324      0.3377
     15  N7A       20.2720  -12.1100   58.5230 N.2   324  NAP324     -0.2095
     16  C5A       20.3700  -13.3050   59.2180 C.2   324  NAP324      0.2526
     17  C6A       20.8620  -13.5700   60.5090 C.2   324  NAP324      0.4393
     18  N6A       21.3670  -12.6870   61.3900 N.pl3 324  NAP324      0.2180
     19  N1A       20.8250  -14.9040   60.9410 N.2   324  NAP324      0.0021
     20  C2A       20.3180  -15.9270   60.1150 C.3   324  NAP324      0.5254
     21  N3A       19.8290  -15.6910   58.8420 N.2   324  NAP324     -0.0055
     22  C4A       19.8760  -14.3650   58.4440 C.2   324  NAP324      0.3518
     23  O3        21.1300  -12.1610   50.5690 O.3   324  NAP324     -0.2703
     24  PN        21.2980  -11.9280   49.0240 P.3   324  NAP324      0.2189
     25  O1N       20.0030  -11.4590   48.5020 O.3   324  NAP324     -0.4371
     26  O2N       21.8360  -13.1880   48.4380 O.2   324  NAP324     -0.5170
     27  O5D       22.3200  -10.7220   48.9410 O.3   324  NAP324     -0.3112
     28  C5D       22.1180   -9.5840   49.8080 C.3   324  NAP324      0.1813
     29  C4D       21.7560   -8.3680   49.0060 C.3   324  NAP324      0.1799
     30  O4D       22.7520   -7.9770   48.0170 O.3   324  NAP324     -0.3327
     31  C3D       20.3910   -8.3600   48.2210 C.3   324  NAP324      0.2158
     32  O3D       19.2670   -8.0240   49.0300 O.3   324  NAP324     -0.2175
     33  C2D       20.6440   -7.3840   47.1050 C.3   324  NAP324      0.2309
     34  O2D       20.3960   -6.0610   47.5280 O.3   324  NAP324     -0.2158
     35  C1D       22.0870   -7.5720   46.7710 C.3   324  NAP324      0.2263
     36  N1N       22.4190   -8.5360   45.6480 N.pl3 324  NAP324     -0.2787
     37  C2N       23.0790   -8.0750   44.4850 C.3   324  NAP324      0.1244
     38  C3N       23.3450   -8.9750   43.4540 C.2   324  NAP324      0.0544
     39  C7N       24.0500   -8.4610   42.1950 C.2   324  NAP324      0.2818
     40  O7N       24.2360   -9.2710   41.3010 O.2   324  NAP324     -0.2670
     41  N7N       24.4140   -7.2030   42.0960 N.am  324  NAP324     -0.0839
     42  C4N       22.9500  -10.3900   43.5470 C.2   324  NAP324      0.0033
     43  C5N       22.2950  -10.8210   44.7300 C.2   324  NAP324      0.0157
     44  C6N       22.0150   -9.9170   45.7950 C.2   324  NAP324      0.0633
     45  P2B       15.4190  -13.6360   56.3880 P.3   324  NAP324      0.5328
     46  O1X       14.9120  -12.5680   55.4250 O.2   324  NAP324     -0.2224
     47  O2X       14.4570  -14.7320   56.6340 O.3   324  NAP324     -0.1145
     48  O3X       16.0670  -13.0170   57.6190 O.3   324  NAP324     -0.1145
@<TRIPOS>BOND
     1    40    39    2
     2    41    39   am
     3    39    38    1
     4    38    42    2
     5    38    37    1
     6    42    43    1
     7    37    36    1
     8    43    44    2
     9    36    44    1
    10    36    35    1
    11    35    33    1
    12    35    30    1
    13    33    34    1
    14    33    31    1
    15    30    29    1
    16    31    29    1
    17    31    32    1
    18    26    24    2
    19    25    24    1
    20    27    24    1
    21    27    28    1
    22    29    28    1
    23    24    23    1
    24    23     1    1
    25     2     1    2
    26     1     4    1
    27     1     3    1
    28     4     5    1
    29     9     8    1
    30     5     6    1
    31     6     8    1
    32     6     7    1
    33     8    10    1
    34     7    12    1
    35    10    11    1
    36    10    12    1
    37    46    45    2
    38    11    45    1
    39    12    13    1
    40    45    47    1
    41    45    48    1
    42    13    14    1
    43    13    22    1
    44    14    15    1
    45    22    21    2
    46    22    16    1
    47    15    16    2
    48    21    20    1
    49    16    17    1
    50    20    19    1
    51    17    19    2
    52    17    18    1
