@<TRIPOS>MOLECULE
2f3b_F6P_A_1.pdb
 16 16 0 0 0
SMALL
GASTEIGER

@<TRIPOS>ATOM
      1  O1        11.3620    9.0810   27.0980 O.3   339  F6P339     -0.2148
      2  C1        10.0050    9.4910   26.9660 C.3   339  F6P339      0.2434
      3  C2         9.0580    8.3020   27.0130 C.3   339  F6P339      0.2807
      4  O2         9.4050    7.3720   26.0170 O.3   339  F6P339     -0.1896
      5  C3         7.5770    8.6840   26.9000 C.3   339  F6P339      0.2409
      6  O3         7.1010    8.5010   25.5810 O.3   339  F6P339     -0.2149
      7  C4         6.9070    7.7690   27.9210 C.3   339  F6P339      0.2167
      8  O4         5.7620    8.4100   28.4810 O.3   339  F6P339     -0.2175
      9  C5         7.9840    7.6220   28.9820 C.3   339  F6P339      0.1808
     10  O5         9.2380    7.6310   28.2490 O.3   339  F6P339     -0.3254
     11  C6         7.8840    6.3400   29.7690 C.3   339  F6P339      0.1859
     12  O6         8.9160    6.3670   30.7680 O.3   339  F6P339     -0.2675
     13  P          8.9490    5.2420   31.9420 P.3   339  F6P339      0.5327
     14  O1P        9.8260    5.8710   33.0200 O.3   339  F6P339     -0.1145
     15  O2P        9.5720    4.0060   31.3120 O.2   339  F6P339     -0.2224
     16  O3P        7.5110    5.0260   32.3830 O.3   339  F6P339     -0.1145
@<TRIPOS>BOND
     1     6     5    1
     2     4     3    1
     3     5     3    1
     4     5     7    1
     5     2     3    1
     6     2     1    1
     7     3    10    1
     8     7     8    1
     9     7     9    1
    10    10     9    1
    11     9    11    1
    12    11    12    1
    13    12    13    1
    14    15    13    2
    15    13    16    1
    16    13    14    1
