@<TRIPOS>MOLECULE
2f3d_AMP_A_1.pdb
 23 25 0 0 0
SMALL
GASTEIGER

@<TRIPOS>ATOM
      1  P          3.5640    8.6150   75.0020 P.3   435  AMP435      0.5327
      2  O1P        4.7650    8.7240   74.0820 O.2   435  AMP435     -0.2224
      3  O2P        3.5430    7.3030   75.7740 O.3   435  AMP435     -0.1145
      4  O3P        3.3980    9.8300   75.9040 O.3   435  AMP435     -0.1145
      5  O5'        2.2460    8.5940   74.0440 O.3   435  AMP435     -0.2675
      6  C5'        2.0590    7.5520   73.0680 C.3   435  AMP435      0.1860
      7  C4'        1.1480    8.0320   71.9640 C.3   435  AMP435      0.1823
      8  O4'       -0.1710    8.3120   72.5050 O.3   435  AMP435     -0.3135
      9  C3'        1.5710    9.3350   71.3060 C.3   435  AMP435      0.2184
     10  O3'        2.5320    9.1080   70.2820 O.3   435  AMP435     -0.2174
     11  C2'        0.2510    9.8500   70.7560 C.3   435  AMP435      0.2570
     12  O2'       -0.1380    9.1920   69.5660 O.3   435  AMP435     -0.2130
     13  C1'       -0.7030    9.4780   71.8910 C.3   435  AMP435      0.3186
     14  N9        -0.7820   10.5270   72.9090 N.pl3 435  AMP435     -0.1439
     15  C8        -0.1300   10.5660   74.1160 C.3   435  AMP435      0.3377
     16  N7        -0.3820   11.6420   74.8200 N.2   435  AMP435     -0.2095
     17  C5        -1.2610   12.3620   74.0250 C.2   435  AMP435      0.2526
     18  C6        -1.9020   13.6020   74.2050 C.2   435  AMP435      0.4393
     19  N6        -1.7420   14.3670   75.2880 N.pl3 435  AMP435      0.2180
     20  N1        -2.7200   14.0350   73.2220 N.2   435  AMP435      0.0021
     21  C2        -2.8750   13.2690   72.1340 C.3   435  AMP435      0.5254
     22  N3        -2.3260   12.0890   71.8470 N.2   435  AMP435     -0.0055
     23  C4        -1.5210   11.6860   72.8450 C.2   435  AMP435      0.3518
@<TRIPOS>BOND
     1    12    11    1
     2    10     9    1
     3    11     9    1
     4    11    13    1
     5     9     7    1
     6    22    21    1
     7    22    23    2
     8    13     8    1
     9    13    14    1
    10     7     8    1
    11     7     6    1
    12    21    20    1
    13    23    14    1
    14    23    17    1
    15    14    15    1
    16     6     5    1
    17    20    18    2
    18    17    18    1
    19    17    16    2
    20     5     1    1
    21     2     1    2
    22    15    16    1
    23    18    19    1
    24     1     3    1
    25     1     4    1
