@<TRIPOS>MOLECULE
2f3d_F6P_A_1.pdb
 16 16 0 0 0
SMALL
GASTEIGER

@<TRIPOS>ATOM
      1  O1        12.0190   33.0810   55.4400 O.3   339  F6P339     -0.2148
      2  C1        10.7000   32.5640   55.5520 C.3   339  F6P339      0.2434
      3  C2         9.6660   33.6760   55.5050 C.3   339  F6P339      0.2807
      4  O2         9.9490   34.6370   56.5040 O.3   339  F6P339     -0.1896
      5  C3         8.2240   33.1660   55.6120 C.3   339  F6P339      0.2409
      6  O3         7.7180   33.3040   56.9250 O.3   339  F6P339     -0.2149
      7  C4         7.4810   34.0120   54.5830 C.3   339  F6P339      0.2167
      8  O4         6.4110   33.2600   54.0170 O.3   339  F6P339     -0.2175
      9  C5         8.5460   34.2630   53.5300 C.3   339  F6P339      0.1808
     10  O5         9.7930   34.3520   54.2670 O.3   339  F6P339     -0.3254
     11  C6         8.3290   35.5350   52.7440 C.3   339  F6P339      0.1859
     12  O6         9.3790   35.6270   51.7670 O.3   339  F6P339     -0.2675
     13  P          9.2990   36.7260   50.5680 P.3   339  F6P339      0.5327
     14  O1P       10.1870   36.1440   49.4760 O.2   339  F6P339     -0.2224
     15  O2P        9.8400   38.0310   51.1270 O.3   339  F6P339     -0.1145
     16  O3P        7.8420   36.8280   50.1540 O.3   339  F6P339     -0.1145
@<TRIPOS>BOND
     1    14    13    2
     2    16    13    1
     3    13    15    1
     4    13    12    1
     5    12    11    1
     6    11     9    1
     7     9    10    1
     8     9     7    1
     9     8     7    1
    10    10     3    1
    11     7     5    1
    12     1     2    1
    13     3     2    1
    14     3     5    1
    15     3     4    1
    16     5     6    1
