@<TRIPOS>MOLECULE
2f3e_AXQ_A_1.pdb
 45 45 0 0 0
SMALL
GASTEIGER

@<TRIPOS>ATOM
      1  S1        31.5950    8.5370   15.4440 S.3   601  AXQ601     -0.1333
      2  C2        32.3940    6.8820   15.5310 C.3   601  AXQ601      0.0856
      3  C5        31.3630    5.8880   14.8940 C.3   601  AXQ601      0.1555
      4  N7        30.3040    5.6570   15.8710 N.2   601  AXQ601     -0.2032
      5  C9        29.0060    5.7060   15.4860 C.1   601  AXQ601      0.1491
      6  C10       27.9870    5.4130   16.5780 C.3   601  AXQ601      0.2191
      7  N12       28.0540    6.4990   17.5540 N.2   601  AXQ601     -0.1899
      8  C14       27.6110    6.3170   18.8190 C.1   601  AXQ601      0.1477
      9  C15       27.7570    7.5040   19.7220 C.3   601  AXQ601      0.2142
     10  C17       29.2420    7.5520   20.0720 C.3   601  AXQ601      0.0966
     11  S20       29.5800    9.0960   20.8870 S.3   601  AXQ601     -0.1325
     12  C21       31.3730    9.0660   20.5590 C.3   601  AXQ601      0.0832
     13  C24       31.6750    9.5930   19.1690 C.2   601  AXQ601     -0.0182
     14  C26       32.0440    8.8050   18.1490 C.2   601  AXQ601     -0.0182
     15  C28       32.3960    9.4170   16.8200 C.3   601  AXQ601      0.0832
     16  N31       26.8870    7.3750   20.8910 N.am  601  AXQ601     -0.1526
     17  C33       25.5410    7.4390   20.6940 C.2   601  AXQ601      0.4219
     18  O34       25.0230    7.6400   19.5950 O.2   601  AXQ601     -0.2245
     19  O35       24.8270    7.2460   21.8540 O.3   601  AXQ601     -0.4408
     20  C36       23.3540    7.2510   21.6710 C.3   601  AXQ601      0.1379
     21  C37       22.6820    7.0010   23.0440 C.3   601  AXQ601      0.0437
     22  C41       22.8420    8.6170   21.1280 C.3   601  AXQ601      0.0437
     23  C45       22.9120    6.1060   20.7160 C.3   601  AXQ601      0.0437
     24  O49       27.1240    5.2840   19.2480 O.2   601  AXQ601     -0.2253
     25  C50       26.5360    5.2110   16.0490 C.3   601  AXQ601      0.0455
     26  O54       28.6530    5.9570   14.3430 O.2   601  AXQ601     -0.2251
     27  C55       32.0430    4.5570   14.4090 C.3   601  AXQ601      0.1763
     28  O57       32.6830    3.9000   15.4840 O.3   601  AXQ601     -0.2210
     29  C59       31.0440    3.5260   13.8540 C.3   601  AXQ601      0.0441
     30  C62       31.8410    2.6610   12.8760 C.3   601  AXQ601      0.0808
     31  C64       31.2100    1.2720   12.6790 C.3   601  AXQ601      0.0097
     32  C68       31.7910    3.3110   11.5070 C.2   601  AXQ601      0.2414
     33  O69       30.8060    3.9620   11.1850 O.2   601  AXQ601     -0.2733
     34  N70       32.8570    3.1370   10.7170 N.am  601  AXQ601     -0.1978
     35  C72       32.8350    3.7200    9.3760 C.3   601  AXQ601      0.1726
     36  C74       34.2290    3.7060    8.7150 C.3   601  AXQ601      0.0290
     37  C76       34.6480    2.2580    8.4600 C.3   601  AXQ601      0.0023
     38  C80       34.2030    4.4480    7.3620 C.3   601  AXQ601      0.0023
     39  C84       31.8230    2.9820    8.5390 C.2   601  AXQ601      0.2612
     40  O85       31.6320    1.7890    8.7560 O.2   601  AXQ601     -0.2715
     41  N86       31.1670    3.6850    7.5900 N.am  601  AXQ601     -0.2040
     42  C88       30.1730    2.9780    6.7790 C.3   601  AXQ601      0.1152
     43  C91       29.1020    3.9650    6.2750 C.3   601  AXQ601      0.0234
     44  C94       28.0550    4.1920    7.3720 C.3   601  AXQ601      0.0018
     45  C97       26.9960    5.1660    6.8320 C.3   601  AXQ601      0.0001
@<TRIPOS>BOND
     1    43    42    1
     2    43    44    1
     3    42    41    1
     4    45    44    1
     5    38    36    1
     6    41    39   am
     7    37    36    1
     8    39    40    2
     9    39    35    1
    10    36    35    1
    11    35    34    1
    12    34    32   am
    13    33    32    2
    14    32    30    1
    15    31    30    1
    16    30    29    1
    17    29    27    1
    18    26     5    2
    19    27     3    1
    20    27    28    1
    21     3     2    1
    22     3     4    1
    23     1     2    1
    24     1    15    1
    25     5     4    2
    26     5     6    1
    27    25     6    1
    28     6     7    1
    29    15    14    1
    30     7     8    2
    31    14    13    2
    32     8    24    2
    33     8     9    1
    34    13    12    1
    35    18    17    2
    36     9    10    1
    37     9    16    1
    38    10    11    1
    39    12    11    1
    40    17    16   am
    41    17    19    1
    42    23    20    1
    43    22    20    1
    44    20    19    1
    45    20    21    1
