@<TRIPOS>MOLECULE
2f3f_AXF_A_1.pdb
 34 35 0 0 0
SMALL
GASTEIGER

@<TRIPOS>ATOM
      1  C2        29.8450    9.0120   18.6550 C.3   601  AXF601      0.0798
      2  C4        29.3620    7.7690   19.4580 C.3   601  AXF601      0.1882
      3  S1        28.4360   10.0720   18.0740 S.3   601  AXF601     -0.1338
      4  N6        28.7000    8.1460   20.7160 N.3   601  AXF601     -0.2025
      5  C8        29.6930    8.8200   21.5910 C.3   601  AXF601      0.0900
      6  C11       30.1850   10.1310   20.9180 C.3   601  AXF601      0.0198
      7  C14       30.8370    9.8110   19.5370 C.3   601  AXF601      0.0148
      8  C17       28.6160    6.7610   18.6510 C.1   601  AXF601      0.1434
      9  N18       29.0010    6.7150   17.3600 N.2   601  AXF601     -0.1901
     10  C20       28.4610    5.7200   16.4560 C.3   601  AXF601      0.2191
     11  C22       29.4150    5.7380   15.3050 C.1   601  AXF601      0.1491
     12  N23       30.7250    5.5380   15.6250 N.2   601  AXF601     -0.2032
     13  C25       31.7330    5.5930   14.5890 C.3   601  AXF601      0.1555
     14  C27       32.9930    6.3810   15.0680 C.3   601  AXF601      0.0856
     15  S30       32.4950    7.8800   15.9940 S.3   601  AXF601     -0.1333
     16  C31       31.8310    8.9710   14.6630 C.3   601  AXF601      0.0832
     17  C34       31.2130   10.0830   15.4810 C.2   601  AXF601     -0.0182
     18  C36       29.9120   10.0580   15.7800 C.2   601  AXF601     -0.0182
     19  C38       29.2940   11.0740   16.7000 C.3   601  AXF601      0.0832
     20  C41       32.1960    4.2100   14.0730 C.3   601  AXF601      0.1763
     21  O43       32.9280    3.5000   15.0810 O.3   601  AXF601     -0.2210
     22  C45       31.0430    3.3210   13.5870 C.3   601  AXF601      0.0441
     23  C48       31.6770    2.3250   12.5970 C.3   601  AXF601      0.0808
     24  C50       30.7900    1.0840   12.4130 C.3   601  AXF601      0.0097
     25  C54       31.8080    2.9790   11.2440 C.2   601  AXF601      0.2410
     26  O55       30.8950    3.6790   10.8270 O.2   601  AXF601     -0.2734
     27  N56       32.9440    2.7540   10.5720 N.am  601  AXF601     -0.2054
     28  C58       33.1350    3.3500    9.2610 C.3   601  AXF601      0.1151
     29  C61       34.3780    2.7180    8.6150 C.3   601  AXF601      0.0234
     30  C64       34.4340    2.9740    7.0740 C.3   601  AXF601      0.0018
     31  C67       34.7510    4.4300    6.7610 C.3   601  AXF601      0.0001
     32  O71       29.0190    5.9260   14.1770 O.2   601  AXF601     -0.2251
     33  C72       26.9820    5.9990   16.1140 C.3   601  AXF601      0.0455
     34  O76       27.7480    6.0530   19.1530 O.2   601  AXF601     -0.2256
@<TRIPOS>BOND
     1    31    30    1
     2    30    29    1
     3    29    28    1
     4    28    27    1
     5    27    25   am
     6    26    25    2
     7    25    23    1
     8    24    23    1
     9    23    22    1
    10    22    20    1
    11    20    13    1
    12    20    21    1
    13    32    11    2
    14    13    14    1
    15    13    12    1
    16    16    17    1
    17    16    15    1
    18    14    15    1
    19    11    12    2
    20    11    10    1
    21    17    18    2
    22    18    19    1
    23    33    10    1
    24    10     9    1
    25    19     3    1
    26     9     8    2
    27     3     1    1
    28     8    34    2
    29     8     2    1
    30     1     2    1
    31     1     7    1
    32     2     4    1
    33     7     6    1
    34     4     5    1
    35     6     5    1
