@<TRIPOS>MOLECULE
2f3h_F6P_A_1.pdb
 16 16 0 0 0
SMALL
GASTEIGER

@<TRIPOS>ATOM
      1  O1        44.1950  108.2390   10.8520 O.3   338  F6P338     -0.2148
      2  C1        43.7610  109.5870   10.8370 C.3   338  F6P338      0.2434
      3  C2        42.7190  109.8380   11.9060 C.3   338  F6P338      0.2807
      4  O2        42.8580  108.9160   12.9660 O.3   338  F6P338     -0.1896
      5  C3        41.2820  109.8210   11.3880 C.3   338  F6P338      0.2409
      6  O3        40.7480  108.5160   11.4860 O.3   338  F6P338     -0.2149
      7  C4        40.5950  110.8340   12.2940 C.3   338  F6P338      0.2167
      8  O4        39.5370  111.4590   11.5870 O.3   338  F6P338     -0.2175
      9  C5        41.7000  111.8480   12.5470 C.3   338  F6P338      0.1808
     10  O5        42.9520  111.1220   12.4490 O.3   338  F6P338     -0.3254
     11  C6        41.6390  112.4750   13.9070 C.3   338  F6P338      0.1859
     12  O6        42.9200  113.0770   14.1610 O.3   338  F6P338     -0.2675
     13  P         43.0050  114.4530   15.0230 P.3   338  F6P338      0.5327
     14  O1P       43.3350  114.0170   16.4350 O.3   338  F6P338     -0.1145
     15  O2P       44.0890  115.2880   14.3690 O.2   338  F6P338     -0.2224
     16  O3P       41.6290  115.0850   14.9200 O.3   338  F6P338     -0.1145
@<TRIPOS>BOND
     1     2     1    1
     2     2     3    1
     3     5     6    1
     4     5     3    1
     5     5     7    1
     6     8     7    1
     7     3    10    1
     8     3     4    1
     9     7     9    1
    10    10     9    1
    11     9    11    1
    12    11    12    1
    13    12    13    1
    14    15    13    2
    15    16    13    1
    16    13    14    1
