@<TRIPOS>MOLECULE
2f3h_AMP_A_1.pdb
 23 25 0 0 0
SMALL
GASTEIGER

@<TRIPOS>ATOM
      1  P         35.4400   90.6060  -13.6450 P.3   435  AMP435      0.5327
      2  O1P       36.7810   91.3110  -13.5350 O.3   435  AMP435     -0.1145
      3  O2P       35.2790   89.8460  -14.9510 O.2   435  AMP435     -0.2224
      4  O3P       35.1560   89.7210  -12.4360 O.3   435  AMP435     -0.1145
      5  O5'       34.3190   91.7950  -13.6710 O.3   435  AMP435     -0.2675
      6  C5'       34.2930   92.7700  -14.7400 C.3   435  AMP435      0.1860
      7  C4'       33.5660   94.0260  -14.3020 C.3   435  AMP435      0.1823
      8  O4'       32.1660   93.7270  -14.0590 O.3   435  AMP435     -0.3135
      9  C3'       34.0670   94.6470  -13.0090 C.3   435  AMP435      0.2184
     10  O3'       35.1400   95.5450  -13.2620 O.3   435  AMP435     -0.2174
     11  C2'       32.8320   95.3760  -12.5040 C.3   435  AMP435      0.2570
     12  O2'       32.6200   96.6060  -13.1610 O.3   435  AMP435     -0.2130
     13  C1'       31.7300   94.3900  -12.8860 C.3   435  AMP435      0.3186
     14  N9        31.5070   93.3790  -11.8500 N.pl3 435  AMP435     -0.1439
     15  C8        32.0160   92.1010  -11.7930 C.3   435  AMP435      0.3377
     16  N7        31.6440   91.4290  -10.7290 N.2   435  AMP435     -0.2095
     17  C5        30.8350   92.3210  -10.0380 C.2   435  AMP435      0.2526
     18  C6        30.1380   92.2200   -8.8220 C.2   435  AMP435      0.4393
     19  N6        30.1500   91.1360   -8.0470 N.pl3 435  AMP435      0.2180
     20  N1        29.4230   93.2890   -8.4200 N.2   435  AMP435      0.0021
     21  C2        29.4230   94.3890   -9.1860 C.3   435  AMP435      0.5254
     22  N3        30.0420   94.6100  -10.3420 N.2   435  AMP435     -0.0055
     23  C4        30.7390   93.5250  -10.7190 C.2   435  AMP435      0.3518
@<TRIPOS>BOND
     1     3     1    2
     2     6     7    1
     3     6     5    1
     4     7     8    1
     5     7     9    1
     6     8    13    1
     7     5     1    1
     8     1     2    1
     9     1     4    1
    10    10     9    1
    11    12    11    1
    12     9    11    1
    13    13    11    1
    14    13    14    1
    15    14    15    1
    16    14    23    1
    17    15    16    1
    18    16    17    2
    19    23    22    2
    20    23    17    1
    21    22    21    1
    22    17    18    1
    23    21    20    1
    24    18    20    2
    25    18    19    1
