@<TRIPOS>MOLECULE
2f3k_RO1_A_1.pdb
 50 53 0 0 0
SMALL
GASTEIGER

@<TRIPOS>ATOM
      1  O6        15.7700   -5.1270   12.2670 O.2   506  RO1506     -0.1730
      2  S1        15.5540   -5.9210   13.4740 S.O2  506  RO1506     -0.0094
      3  O5        14.2570   -6.0150   14.1470 O.2   506  RO1506     -0.1730
      4  C37       16.0560   -7.6330   13.1220 C.3   506  RO1506      0.1760
      5  C29       16.6390   -5.3060   14.6930 C.3   506  RO1506      0.1374
      6  C33       16.0350   -3.9760   15.1590 C.3   506  RO1506      0.0259
      7  C34       16.6740   -6.3150   15.8560 C.3   506  RO1506      0.0259
      8  C26       18.0660   -5.0040   14.1660 C.3   506  RO1506      0.1928
      9  N5        18.8140   -6.2220   13.8920 N.am  506  RO1506     -0.1929
     10  C32       19.1180   -6.5170   12.6260 C.2   506  RO1506      0.2863
     11  O4        18.8050   -5.8080   11.6750 O.2   506  RO1506     -0.2693
     12  C36       19.8780   -7.7950   12.3850 C.3   506  RO1506      0.2912
     13  O7        20.6150   -8.1490   13.5540 O.3   506  RO1506     -0.4640
     14  C1        21.4940   -9.2070   13.5410 C.ar  506  RO1506      0.1584
     15  C2        22.2590   -9.4890   12.4140 C.ar  506  RO1506      0.0401
     16  C4        23.1280  -10.5680   12.4440 C.ar  506  RO1506      0.0238
     17  C3        23.2310  -11.3400   13.5950 C.ar  506  RO1506      0.0991
     18  N1        22.4930  -11.0430   14.6740 N.ar  506  RO1506     -0.2391
     19  C5        21.6370  -10.0070   14.6720 C.ar  506  RO1506      0.1356
     20  C24       18.8620   -4.0970   15.0890 C.2   506  RO1506      0.2629
     21  O3        18.9770   -4.3570   16.2810 O.2   506  RO1506     -0.2714
     22  N4        19.4840   -3.0510   14.5120 N.am  506  RO1506     -0.2027
     23  C15       20.2730   -2.0690   15.2700 C.3   506  RO1506      0.1313
     24  C19       21.7550   -2.1820   14.8640 C.3   506  RO1506      0.0506
     25  C25       22.2370   -3.6160   14.8780 C.ar  506  RO1506     -0.0204
     26  C27       22.4170   -4.3050   13.6760 C.ar  506  RO1506     -0.0042
     27  C30       22.8580   -5.6250   13.6920 C.ar  506  RO1506     -0.0003
     28  C35       23.1240   -6.2550   14.9040 C.ar  506  RO1506     -0.0000
     29  C31       22.9640   -5.5620   16.0990 C.ar  506  RO1506     -0.0003
     30  C28       22.5160   -4.2490   16.0860 C.ar  506  RO1506     -0.0042
     31  C12       19.6930   -0.6920   14.9190 C.3   506  RO1506      0.1879
     32  O2        20.0520   -0.3750   13.5760 O.3   506  RO1506     -0.2198
     33  C8        20.2220    0.4210   15.8340 C.3   506  RO1506      0.1075
     34  N2        19.4820    0.4190   17.1000 N.3   506  RO1506     -0.2643
     35  C6        20.3300    0.9960   18.1580 C.3   506  RO1506      0.1365
     36  C10       21.6340    0.2910   18.3870 C.2   506  RO1506      0.2558
     37  O1        21.7130   -0.9390   18.3540 O.2   506  RO1506     -0.2719
     38  N3        22.6440    1.1180   18.6640 N.am  506  RO1506     -0.2077
     39  C17       24.0090    0.7090   18.9410 C.3   506  RO1506      0.0788
     40  C23       24.0710   -0.0230   20.2830 C.3   506  RO1506      0.0217
     41  C22       24.8800    1.9580   19.0250 C.3   506  RO1506      0.0217
     42  C21       24.5080   -0.1890   17.8090 C.3   506  RO1506      0.0217
     43  C9        19.5610    0.9050   19.4760 C.3   506  RO1506      0.0254
     44  C13       18.2810    1.7080   19.3790 C.3   506  RO1506      0.0032
     45  C11       17.4420    1.2040   18.2180 C.3   506  RO1506      0.0161
     46  C14       16.8420   -0.1680   18.4950 C.3   506  RO1506      0.0014
     47  C7        18.2510    1.2020   16.9170 C.3   506  RO1506      0.0725
     48  C16       17.5030    1.6830   20.6900 C.3   506  RO1506      0.0001
     49  C20       16.8580    0.3300   20.9610 C.3   506  RO1506      0.0000
     50  C18       16.0170   -0.1390   19.7730 C.3   506  RO1506      0.0000
@<TRIPOS>BOND
     1    11    10    2
     2     1     2    2
     3    12    10    1
     4    12    13    1
     5    15    16   ar
     6    15    14   ar
     7    16    17   ar
     8    10     9   am
     9     4     2    1
    10     2     3    2
    11     2     5    1
    12    14    13    1
    13    14    19   ar
    14    32    31    1
    15    17    18   ar
    16    26    27   ar
    17    26    25   ar
    18    27    28   ar
    19     9     8    1
    20     8     5    1
    21     8    20    1
    22    22    20   am
    23    22    23    1
    24    19    18   ar
    25     5     6    1
    26     5     7    1
    27    24    25    1
    28    24    23    1
    29    25    30   ar
    30    28    29   ar
    31    31    23    1
    32    31    33    1
    33    20    21    2
    34    33    34    1
    35    30    29   ar
    36    47    34    1
    37    47    45    1
    38    34    35    1
    39    42    39    1
    40    35    36    1
    41    35    43    1
    42    45    46    1
    43    45    44    1
    44    37    36    2
    45    36    38   am
    46    46    50    1
    47    38    39    1
    48    39    41    1
    49    39    40    1
    50    44    43    1
    51    44    48    1
    52    50    49    1
    53    48    49    1
