@<TRIPOS>MOLECULE
2f3m_GTD_A_1.pdb
 35 35 0 0 0
SMALL
GASTEIGER

@<TRIPOS>ATOM
      1  N1        -5.6050   -2.7890   -0.1590 N.3   1218  GTD1218    -0.1208
      2  CA1       -6.6330   -3.6820    0.3060 C.3   1218  GTD1218     0.1948
      3  C1        -6.0970   -4.4080    1.4810 C.2   1218  GTD1218     0.3819
      4  O11       -6.9060   -4.8800    2.2870 O.co2 1218  GTD1218    -0.2441
      5  O12       -4.8710   -4.5100    1.6040 O.co2 1218  GTD1218    -0.2441
      6  CB1       -6.9240   -4.6790   -0.7940 C.3   1218  GTD1218     0.0402
      7  CG1       -8.3260   -5.2330   -0.6700 C.3   1218  GTD1218     0.0889
      8  CD1       -8.6490   -6.0550   -1.8830 C.2   1218  GTD1218     0.2418
      9  OE1       -8.2020   -5.7680   -2.9720 O.2   1218  GTD1218    -0.2733
     10  N2        -9.4440   -7.0830   -1.6720 N.am  1218  GTD1218    -0.1969
     11  CA2       -9.9670   -7.8760   -2.7520 C.3   1218  GTD1218     0.1834
     12  C2       -11.4590   -7.9590   -2.6770 C.2   1218  GTD1218     0.2626
     13  O2       -12.0330   -9.0090   -2.8000 O.2   1218  GTD1218    -0.2714
     14  CB2       -9.3390   -9.2550   -2.6690 C.3   1218  GTD1218     0.0887
     15  SG2       -7.5910   -9.1490   -2.7420 S.3   1218  GTD1218    -0.1345
     16  N3       -12.1170   -6.8410   -2.4630 N.am  1218  GTD1218    -0.1917
     17  CA3      -13.5140   -6.8840   -2.1190 C.3   1218  GTD1218     0.2285
     18  C3       -14.2670   -5.7510   -2.7530 C.2   1218  GTD1218     0.3865
     19  O31      -13.6150   -4.7950   -3.2000 O.co2 1218  GTD1218    -0.2437
     20  O32      -15.5080   -5.8000   -2.8000 O.co2 1218  GTD1218    -0.2437
     21  C1'       -7.2100   -9.9630   -4.2530 C.3   1218  GTD1218     0.1026
     22  C2'       -5.8600  -10.6080   -4.1470 C.3   1218  GTD1218     0.1801
     23  N2'       -5.7270  -11.8950   -3.5080 N.pl3 1218  GTD1218     0.0334
     24  O21       -6.7140  -12.5340   -3.4150 O.2   1218  GTD1218    -0.1310
     25  O22       -4.6950  -12.2090   -2.9550 O.2   1218  GTD1218    -0.1310
     26  C3'       -4.7610  -10.0410   -4.6540 C.3   1218  GTD1218     0.0601
     27  C4'       -4.8910   -9.3570   -5.9870 C.3   1218  GTD1218     0.1704
     28  N4'       -3.7760   -8.7430   -6.3710 N.pl3 1218  GTD1218     0.0325
     29  O41       -2.8540   -8.6020   -5.5870 O.2   1218  GTD1218    -0.1310
     30  O42       -3.6680   -8.3330   -7.5120 O.2   1218  GTD1218    -0.1310
     31  C5'       -6.1090   -8.4740   -5.8860 C.3   1218  GTD1218     0.0601
     32  C6'       -7.2340   -9.0550   -5.4530 C.3   1218  GTD1218     0.1801
     33  N6'       -8.4610   -8.8600   -6.2130 N.pl3 1218  GTD1218     0.0334
     34  O61       -8.9150   -9.7830   -6.8640 O.2   1218  GTD1218    -0.1310
     35  O62       -9.0340   -7.7860   -6.2290 O.2   1218  GTD1218    -0.1310
@<TRIPOS>BOND
     1    30    28    2
     2    34    33    2
     3    28    27    1
     4    28    29    2
     5    35    33    2
     6    33    32    1
     7    27    31    1
     8    27    26    1
     9    31    32    1
    10    32    21    1
    11    26    22    1
    12    21    22    1
    13    21    15    1
    14    22    23    1
    15    23    24    2
    16    23    25    2
    17    19    18   ar
    18     9     8    2
    19    13    12    2
    20    20    18   ar
    21    18    17    1
    22    11    12    1
    23    11    14    1
    24    11    10    1
    25    15    14    1
    26    12    16   am
    27    16    17    1
    28     8    10   am
    29     8     7    1
    30     6     7    1
    31     6     2    1
    32     1     2    1
    33     2     3    1
    34     3     5   ar
    35     3     4   ar
