@<TRIPOS>MOLECULE
2f3p_4GP_A_1.pdb
 17 17 0 0 0
SMALL
GASTEIGER

@<TRIPOS>ATOM
      1  C1        33.4410   22.7720   27.7140 C.3   998  4GP998      0.2451
      2  C2        33.7480   23.0250   26.1820 C.3   998  4GP998      0.2326
      3  O2        33.8850   24.4570   25.9180 O.3   998  4GP998     -0.2157
      4  C3        32.5690   22.4170   25.3570 C.3   998  4GP998      0.2190
      5  O3        32.8150   22.5970   23.9230 O.3   998  4GP998     -0.2174
      6  C4        32.4460   20.9220   25.6890 C.3   998  4GP998      0.2144
      7  O4        31.3600   20.3500   24.9620 O.3   998  4GP998     -0.2176
      8  C5        32.2000   20.7320   27.2550 C.3   998  4GP998      0.1828
      9  O5        33.2960   21.3350   28.0110 O.3   998  4GP998     -0.3315
     10  C6        32.1020   19.2170   27.6320 C.3   998  4GP998      0.2142
     11  O6        33.1930   18.4510   27.0820 O.3   998  4GP998     -0.2176
     12  N1        34.5110   23.3080   28.4890 N.am  998  4GP998     -0.1656
     13  C7        34.2030   24.0350   29.5830 C.2   998  4GP998      0.3470
     14  C8        35.3470   24.5710   30.3480 C.2   998  4GP998      0.4420
     15  O7        33.0270   24.2560   29.9440 O.2   998  4GP998     -0.2610
     16  O8        35.2110   25.5390   31.1310 O.co2 998  4GP998     -0.2354
     17  O9        36.4650   24.0370   30.1850 O.co2 998  4GP998     -0.2354
@<TRIPOS>BOND
     1     5     4    1
     2     7     6    1
     3     4     6    1
     4     4     2    1
     5     6     8    1
     6     3     2    1
     7     2     1    1
     8    11    10    1
     9     8    10    1
    10     8     9    1
    11     1     9    1
    12     1    12    1
    13    12    13   am
    14    13    15    2
    15    13    14    1
    16    17    14   ar
    17    14    16   ar
