@<TRIPOS>MOLECULE
2f3p_PLP_A_1.pdb
 15 15 0 0 0
SMALL
GASTEIGER

@<TRIPOS>ATOM
      1  N1        24.5830   25.4730   30.1520 N.ar  999  PLP999     -0.2452
      2  C2        23.4650   24.7530   30.3910 C.ar  999  PLP999      0.0978
      3  C2A       22.5330   25.2130   31.5170 C.3   999  PLP999      0.0555
      4  C3        23.2210   23.6180   29.6670 C.ar  999  PLP999      0.2049
      5  O3        22.0550   22.8830   29.8970 O.3   999  PLP999     -0.2857
      6  C4        24.1410   23.2160   28.6960 C.ar  999  PLP999      0.0182
      7  C4A       23.8670   21.9350   27.8710 C.3   999  PLP999      0.0342
      8  C5        25.2870   23.9820   28.4920 C.ar  999  PLP999      0.0261
      9  C6        25.4770   25.1000   29.2240 C.ar  999  PLP999      0.0965
     10  C5A       26.3070   23.7080   27.3700 C.3   999  PLP999      0.1815
     11  O4P       25.8380   24.3690   26.1870 O.3   999  PLP999     -0.2653
     12  P         26.8070   24.5690   24.9070 P.3   999  PLP999      0.5329
     13  O1P       26.0110   25.3480   23.9570 O.2   999  PLP999     -0.2224
     14  O2P       27.9420   25.4770   25.4780 O.3   999  PLP999     -0.1145
     15  O3P       27.3930   23.2780   24.5140 O.3   999  PLP999     -0.1145
@<TRIPOS>BOND
     1    13    12    2
     2    15    12    1
     3    12    14    1
     4    12    11    1
     5    11    10    1
     6    10     8    1
     7     7     6    1
     8     8     6   ar
     9     8     9   ar
    10     6     4   ar
    11     9     1   ar
    12     4     5    1
    13     4     2   ar
    14     1     2   ar
    15     2     3    1
