@<TRIPOS>MOLECULE
2f3q_6GP_A_1.pdb
 18 18 0 0 0
SMALL
GASTEIGER

@<TRIPOS>ATOM
      1  C1        33.6650   22.8290   27.7630 C.3   998  6GP998      0.2451
      2  C2        33.9400   23.0380   26.2530 C.3   998  6GP998      0.2326
      3  O2        34.0800   24.4410   25.9380 O.3   998  6GP998     -0.2157
      4  C3        32.7510   22.4600   25.4470 C.3   998  6GP998      0.2190
      5  O3        32.9710   22.6110   24.0350 O.3   998  6GP998     -0.2174
      6  C4        32.5910   20.9640   25.8060 C.3   998  6GP998      0.2144
      7  O4        31.4810   20.4000   25.0930 O.3   998  6GP998     -0.2176
      8  C5        32.3750   20.8210   27.3530 C.3   998  6GP998      0.1828
      9  O5        33.5000   21.4130   28.0670 O.3   998  6GP998     -0.3315
     10  C6        32.2610   19.3330   27.7570 C.3   998  6GP998      0.2142
     11  O6        33.3340   18.5560   27.1790 O.3   998  6GP998     -0.2176
     12  N1        34.8020   23.3480   28.5240 N.am  998  6GP998     -0.1658
     13  C7        34.6490   24.0120   29.6890 C.2   998  6GP998      0.3429
     14  O7        33.5450   24.2050   30.1660 O.2   998  6GP998     -0.2612
     15  C8        35.8910   24.4960   30.3390 C.2   998  6GP998      0.3974
     16  O8        35.7870   25.4510   31.1060 O.2   998  6GP998     -0.2397
     17  C9        38.0470   23.8360   31.2280 C.3   998  6GP998      0.2561
     18  O9        37.1220   23.9670   30.1230 O.3   998  6GP998     -0.4382
@<TRIPOS>BOND
     1     5     4    1
     2     7     6    1
     3     4     6    1
     4     4     2    1
     5     6     8    1
     6     3     2    1
     7     2     1    1
     8    11    10    1
     9     8    10    1
    10     8     9    1
    11     1     9    1
    12     1    12    1
    13    12    13   am
    14    13    14    2
    15    13    15    1
    16    18    15    1
    17    18    17    1
    18    15    16    2
