@<TRIPOS>MOLECULE
2f3q_PLP_A_1.pdb
 15 15 0 0 0
SMALL
GASTEIGER

@<TRIPOS>ATOM
      1  N1        24.6750   25.5760   30.2680 N.ar  999  PLP999     -0.2452
      2  C2        23.5680   24.8410   30.5160 C.ar  999  PLP999      0.0978
      3  C2A       22.6170   25.3040   31.6290 C.3   999  PLP999      0.0555
      4  C3        23.3260   23.6950   29.7940 C.ar  999  PLP999      0.2049
      5  O3        22.1640   22.9760   30.0280 O.3   999  PLP999     -0.2857
      6  C4        24.2380   23.2890   28.8130 C.ar  999  PLP999      0.0182
      7  C4A       23.9160   22.0400   27.9260 C.3   999  PLP999      0.0342
      8  C5        25.3880   24.0580   28.6030 C.ar  999  PLP999      0.0261
      9  C6        25.5780   25.1930   29.3340 C.ar  999  PLP999      0.0965
     10  C5A       26.4230   23.7750   27.4780 C.3   999  PLP999      0.1815
     11  O4P       25.9960   24.4700   26.2900 O.3   999  PLP999     -0.2653
     12  P         26.9720   24.6780   24.9920 P.3   999  PLP999      0.5329
     13  O1P       26.1370   25.4540   24.0470 O.2   999  PLP999     -0.2224
     14  O2P       28.0500   25.5730   25.6220 O.3   999  PLP999     -0.1145
     15  O3P       27.5340   23.3690   24.6160 O.3   999  PLP999     -0.1145
@<TRIPOS>BOND
     1    13    12    2
     2    15    12    1
     3    12    14    1
     4    12    11    1
     5    11    10    1
     6    10     8    1
     7     7     6    1
     8     8     6   ar
     9     8     9   ar
    10     6     4   ar
    11     9     1   ar
    12     4     5    1
    13     4     2   ar
    14     1     2   ar
    15     2     3    1
