@<TRIPOS>MOLECULE
2f3s_7GP_A_1.pdb
 19 19 0 0 0
SMALL
GASTEIGER

@<TRIPOS>ATOM
      1  C1        33.4870   22.8260   27.7470 C.3   998  7GP998      0.2451
      2  C2        33.7840   23.0310   26.2440 C.3   998  7GP998      0.2326
      3  O2        33.9230   24.4540   25.9790 O.3   998  7GP998     -0.2157
      4  C3        32.5980   22.4360   25.4370 C.3   998  7GP998      0.2190
      5  O3        32.8650   22.5890   24.0300 O.3   998  7GP998     -0.2174
      6  C4        32.4730   20.9480   25.7830 C.3   998  7GP998      0.2144
      7  O4        31.3730   20.4140   25.0430 O.3   998  7GP998     -0.2176
      8  C5        32.2100   20.8090   27.3410 C.3   998  7GP998      0.1828
      9  O5        33.3220   21.3900   28.0800 O.3   998  7GP998     -0.3315
     10  C6        32.0890   19.3300   27.7740 C.3   998  7GP998      0.2142
     11  O6        33.1980   18.5700   27.2470 O.3   998  7GP998     -0.2176
     12  N1        34.5870   23.3830   28.4890 N.am  998  7GP998     -0.1658
     13  C7        34.3810   23.9720   29.6800 C.2   998  7GP998      0.3429
     14  O7        33.2590   24.0680   30.2080 O.2   998  7GP998     -0.2612
     15  C8        35.5390   24.5360   30.3800 C.2   998  7GP998      0.3972
     16  O8        35.3090   25.4820   31.1480 O.2   998  7GP998     -0.2397
     17  C9        37.9370   24.5900   30.8430 C.3   998  7GP998      0.2090
     18  O9        36.7810   23.9960   30.1350 O.3   998  7GP998     -0.4423
     19  C10       38.2760   23.6860   32.0550 C.3   998  7GP998      0.0513
@<TRIPOS>BOND
     1     5     4    1
     2     7     6    1
     3     4     6    1
     4     4     2    1
     5     6     8    1
     6     3     2    1
     7     2     1    1
     8    11    10    1
     9     8    10    1
    10     8     9    1
    11     1     9    1
    12     1    12    1
    13    12    13   am
    14    13    14    2
    15    13    15    1
    16    18    15    1
    17    18    17    1
    18    15    16    2
    19    17    19    1
