@<TRIPOS>MOLECULE
2f3s_PLP_A_1.pdb
 15 15 0 0 0
SMALL
GASTEIGER

@<TRIPOS>ATOM
      1  N1        24.6220   25.5890   30.2160 N.ar  999  PLP999     -0.2452
      2  C2        23.5100   24.8520   30.4620 C.ar  999  PLP999      0.0978
      3  C2A       22.5790   25.2820   31.5930 C.3   999  PLP999      0.0555
      4  C3        23.2850   23.6990   29.7520 C.ar  999  PLP999      0.2049
      5  O3        22.1480   22.9500   30.0000 O.3   999  PLP999     -0.2857
      6  C4        24.2080   23.2890   28.8010 C.ar  999  PLP999      0.0182
      7  C4A       23.9040   22.0210   27.9380 C.3   999  PLP999      0.0342
      8  C5        25.3630   24.0540   28.5950 C.ar  999  PLP999      0.0261
      9  C6        25.5380   25.1920   29.3010 C.ar  999  PLP999      0.0965
     10  C5A       26.4100   23.7590   27.4740 C.3   999  PLP999      0.1815
     11  O4P       25.9500   24.4100   26.2910 O.3   999  PLP999     -0.2653
     12  P         26.9160   24.6450   25.0060 P.3   999  PLP999      0.5329
     13  O1P       26.0950   25.4380   24.0640 O.2   999  PLP999     -0.2224
     14  O2P       28.0280   25.5730   25.5970 O.3   999  PLP999     -0.1145
     15  O3P       27.5140   23.3640   24.5910 O.3   999  PLP999     -0.1145
@<TRIPOS>BOND
     1    13    12    2
     2    15    12    1
     3    12    14    1
     4    12    11    1
     5    11    10    1
     6    10     8    1
     7     7     6    1
     8     8     6   ar
     9     8     9   ar
    10     6     4   ar
    11     9     1   ar
    12     4     5    1
    13     4     2   ar
    14     1     2   ar
    15     2     3    1
