@<TRIPOS>MOLECULE
2f3t_LGP_A_1.pdb
 22 23 0 0 0
SMALL
GASTEIGER

@<TRIPOS>ATOM
      1  P         30.3850  -15.8380  -11.3940 P.3   300  LGP300      0.5327
      2  OP1       30.3140  -15.9440   -9.7880 O.3   300  LGP300     -0.1145
      3  OP2       29.5840  -17.1130  -11.9700 O.2   300  LGP300     -0.2224
      4  OP3       31.7770  -15.7670  -11.8970 O.3   300  LGP300     -0.1145
      5  O5'       29.5040  -14.5620  -11.8260 O.3   300  LGP300     -0.2675
      6  C5'       29.2660  -14.3560  -13.2220 C.3   300  LGP300      0.1859
      7  C4'       30.1220  -13.2070  -13.7600 C.3   300  LGP300      0.1801
      8  O4'       29.1050  -12.2860  -14.2020 O.3   300  LGP300     -0.3314
      9  C3'       30.9970  -12.7300  -12.5880 C.3   300  LGP300      0.2141
     10  O3'       32.2200  -12.1680  -13.0700 O.3   300  LGP300     -0.2176
     11  C1'       29.5430  -10.9240  -14.3430 C.3   300  LGP300      0.2438
     12  N9        28.8410  -10.0770  -13.3500 N.pl3 300  LGP300     -0.2341
     13  C8        28.8600  -10.2550  -12.0300 C.3   300  LGP300      0.2246
     14  N7        28.1410   -9.2840  -11.4720 N.2   300  LGP300     -0.2322
     15  C5        27.6710   -8.5010  -12.4390 C.2   300  LGP300      0.2182
     16  C6        26.8790   -7.3570  -12.4360 C.1   300  LGP300      0.2372
     17  O6        26.5000   -6.8700  -11.3740 O.2   300  LGP300     -0.2069
     18  N1        26.5640   -6.7520  -13.6610 N.2   300  LGP300     -0.2485
     19  C2        27.0560   -7.3020  -14.8520 C.1   300  LGP300      0.2531
     20  N2        26.8460   -6.6680  -16.0040 N.pl3 300  LGP300     -0.0226
     21  N3        27.8090   -8.4120  -14.8190 N.2   300  LGP300     -0.3074
     22  C4        28.1170   -9.0040  -13.6540 C.2   300  LGP300      0.2300
@<TRIPOS>BOND
     1    20    19    1
     2    19    21    2
     3    19    18    2
     4    21    22    2
     5    11     8    1
     6    11    12    1
     7     8     7    1
     8     7     6    1
     9     7     9    1
    10    18    16    2
    11    22    12    1
    12    22    15    1
    13    12    13    1
    14     6     5    1
    15    10     9    1
    16    15    16    1
    17    15    14    2
    18    16    17    2
    19    13    14    1
    20     3     1    2
    21     4     1    1
    22     5     1    1
    23     1     2    1
