@<TRIPOS>MOLECULE
2f3u_PLP_A_1.pdb
 15 15 0 0 0
SMALL
GASTEIGER

@<TRIPOS>ATOM
      1  N1        24.6250   25.5830   30.2100 N.ar  999  PLP999     -0.2452
      2  C2        23.4990   24.8650   30.4560 C.ar  999  PLP999      0.0978
      3  C2A       22.5800   25.3370   31.5750 C.3   999  PLP999      0.0555
      4  C3        23.2500   23.7100   29.7490 C.ar  999  PLP999      0.2049
      5  O3        22.1050   22.9650   30.0180 O.3   999  PLP999     -0.2857
      6  C4        24.1610   23.2870   28.7840 C.ar  999  PLP999      0.0182
      7  C4A       23.8530   22.0230   27.9260 C.3   999  PLP999      0.0342
      8  C5        25.3200   24.0460   28.5660 C.ar  999  PLP999      0.0261
      9  C6        25.5210   25.1840   29.2830 C.ar  999  PLP999      0.0965
     10  C5A       26.3360   23.7450   27.4440 C.3   999  PLP999      0.1815
     11  O4P       25.9050   24.4880   26.2980 O.3   999  PLP999     -0.2653
     12  P         26.8720   24.6900   25.0130 P.3   999  PLP999      0.5329
     13  O1P       26.1010   25.4870   24.0650 O.2   999  PLP999     -0.2224
     14  O2P       28.0190   25.5640   25.5850 O.3   999  PLP999     -0.1145
     15  O3P       27.4390   23.4040   24.5900 O.3   999  PLP999     -0.1145
@<TRIPOS>BOND
     1    13    12    2
     2    15    12    1
     3    12    14    1
     4    12    11    1
     5    11    10    1
     6    10     8    1
     7     7     6    1
     8     8     6   ar
     9     8     9   ar
    10     6     4   ar
    11     9     1   ar
    12     4     5    1
    13     4     2   ar
    14     1     2   ar
    15     2     3    1
