@<TRIPOS>MOLECULE
2f3u_8GP_A_1.pdb
 20 21 0 0 0
SMALL
GASTEIGER

@<TRIPOS>ATOM
      1  C1        33.4140   22.7050   27.8990 C.3   998  8GP998      0.2451
      2  C2        33.7430   22.9480   26.4240 C.3   998  8GP998      0.2326
      3  O2        33.9110   24.3560   26.2370 O.3   998  8GP998     -0.2157
      4  C3        32.5660   22.4660   25.5740 C.3   998  8GP998      0.2190
      5  O3        32.8790   22.6390   24.1890 O.3   998  8GP998     -0.2174
      6  C4        32.2910   20.9880   25.8570 C.3   998  8GP998      0.2144
      7  O4        31.0830   20.6100   25.1910 O.3   998  8GP998     -0.2176
      8  C5        32.1360   20.7600   27.3650 C.3   998  8GP998      0.1828
      9  O5        33.2730   21.2820   28.0780 O.3   998  8GP998     -0.3315
     10  C6        31.9400   19.2620   27.6140 C.3   998  8GP998      0.2142
     11  O6        33.1490   18.5410   27.3520 O.3   998  8GP998     -0.2176
     12  N1        34.5400   23.2040   28.7240 N.am  998  8GP998     -0.1674
     13  C7        34.2960   23.6350   29.9600 C.2   998  8GP998      0.3222
     14  O7        33.1670   23.6490   30.4530 O.2   998  8GP998     -0.2632
     15  C8        35.4350   24.3040   30.7350 C.2   998  8GP998      0.3201
     16  O8        35.1440   25.0750   31.6540 O.2   998  8GP998     -0.2633
     17  N2        36.6810   24.0360   30.3400 N.am  998  8GP998     -0.1995
     18  C9        37.9060   24.5710   30.9560 C.3   998  8GP998      0.0959
     19  C10       38.3450   23.8700   32.2470 C.3   998  8GP998      0.0234
     20  C11       37.7680   25.2860   32.3060 C.3   998  8GP998      0.0234
@<TRIPOS>BOND
     1     5     4    1
     2     7     6    1
     3     4     6    1
     4     4     2    1
     5     6     8    1
     6     3     2    1
     7     2     1    1
     8    11    10    1
     9     8    10    1
    10     8     9    1
    11     1     9    1
    12     1    12    1
    13    12    13   am
    14    13    14    2
    15    13    15    1
    16    17    15   am
    17    17    18    1
    18    15    16    2
    19    18    19    1
    20    18    20    1
    21    19    20    1
