@<TRIPOS>MOLECULE
2f3x_MLC_A_1.pdb
 32 31 0 0 0
SMALL
GASTEIGER

@<TRIPOS>ATOM
      1  O5'        3.6960  -19.5990   86.8320 O.3   391  MLC391     -0.1143
      2  P1         2.9000  -18.8060   85.6390 P.3   391  MLC391      0.5373
      3  O11        3.0070  -19.4920   84.2890 O.2   391  MLC391     -0.2221
      4  O12        3.1190  -17.2910   85.5540 O.3   391  MLC391     -0.1143
      5  O6         1.4510  -19.0390   86.2690 O.3   391  MLC391     -0.2261
      6  P2         0.3610  -18.7150   85.1610 P.3   391  MLC391      0.2230
      7  O21        0.8430  -17.4560   84.4000 O.2   391  MLC391     -0.5169
      8  O22       -1.0110  -18.8260   85.8270 O.3   391  MLC391     -0.4370
      9  O7         0.6700  -20.0220   84.2260 O.3   391  MLC391     -0.3137
     10  CPB        0.7850  -21.3400   84.8060 C.3   391  MLC391      0.1519
     11  CPA        0.4750  -22.5130   83.8680 C.3   391  MLC391      0.0645
     12  CP7        1.7650  -22.9310   83.1990 C.3   391  MLC391      0.2312
     13  CP9       -0.6370  -22.2310   82.8210 C.3   391  MLC391      0.0056
     14  CP8       -0.0510  -23.5980   84.7910 C.3   391  MLC391      0.0056
     15  OP3        2.6880  -21.8350   83.0860 O.3   391  MLC391     -0.2131
     16  CP6        2.2940  -24.2220   83.8060 C.2   391  MLC391      0.2719
     17  OP2        3.3120  -24.3630   84.4570 O.2   391  MLC391     -0.2706
     18  NP2        1.4870  -25.2260   83.4790 N.am  391  MLC391     -0.2028
     19  CP5        1.5530  -26.6480   83.6580 C.3   391  MLC391      0.1248
     20  CP4        2.1390  -26.9420   82.2710 C.3   391  MLC391      0.1102
     21  CP3        1.9340  -28.3250   81.7260 C.2   391  MLC391      0.2432
     22  OP1        2.4160  -29.3150   82.2590 O.2   391  MLC391     -0.2733
     23  NP1        1.2530  -28.3520   80.5990 N.am  391  MLC391     -0.2044
     24  CP2        0.8560  -29.5030   79.7920 C.3   391  MLC391      0.1272
     25  CP1        1.9740  -30.5410   79.7070 C.3   391  MLC391      0.0883
     26  S          3.0940  -30.0580   78.3930 S.3   391  MLC391     -0.0748
     27  CM1        2.4210  -30.6870   76.9050 C.2   391  MLC391      0.2102
     28  CM2        3.3160  -31.7610   76.3600 C.3   391  MLC391      0.1895
     29  CM3        2.8200  -32.4680   75.1600 C.2   391  MLC391      0.3732
     30  OM2        1.3680  -30.2890   76.4210 O.2   391  MLC391     -0.2839
     31  OM3        1.8840  -33.3050   75.2440 O.co2 391  MLC391     -0.2451
     32  OM4        3.4380  -32.1580   74.1380 O.co2 391  MLC391     -0.2451
@<TRIPOS>BOND
     1    32    29   ar
     2    29    31   ar
     3    29    28    1
     4    28    27    1
     5    30    27    2
     6    27    26    1
     7    26    25    1
     8    25    24    1
     9    24    23    1
    10    23    21   am
    11    21    22    2
    12    21    20    1
    13    20    19    1
    14    13    11    1
    15    15    12    1
    16    12    16    1
    17    12    11    1
    18    18    19    1
    19    18    16   am
    20    16    17    2
    21    11    14    1
    22    11    10    1
    23     9    10    1
    24     9     6    1
    25     3     2    2
    26     7     6    2
    27     6     8    1
    28     6     5    1
    29     4     2    1
    30     2     5    1
    31     2     1    1
