@<TRIPOS>MOLECULE
2f43_ATP_A_1.pdb
 31 33 0 0 0
SMALL
GASTEIGER

@<TRIPOS>ATOM
      1  PG        45.1730  117.3630   87.9120 P.3   603  ATP603      0.5373
      2  O1G       46.1120  117.2550   86.7450 O.2   603  ATP603     -0.2221
      3  O2G       43.7930  116.7990   87.5400 O.3   603  ATP603     -0.1143
      4  O3G       45.7140  116.5530   89.0740 O.3   603  ATP603     -0.1143
      5  PB        44.6140  119.4250   89.8350 P.3   603  ATP603      0.2277
      6  O1B       44.6330  120.8630   89.9050 O.2   603  ATP603     -0.5168
      7  O2B       45.5260  118.7900   90.8230 O.3   603  ATP603     -0.4368
      8  O3B       45.0990  118.9490   88.3830 O.3   603  ATP603     -0.2258
      9  PA        42.5640  117.7000   90.7430 P.3   603  ATP603      0.2189
     10  O1A       41.2250  117.4550   90.1490 O.2   603  ATP603     -0.5170
     11  O2A       43.4720  116.4680   90.7440 O.3   603  ATP603     -0.4371
     12  O3A       43.1270  118.9020   89.9030 O.3   603  ATP603     -0.2700
     13  O5'       42.3960  118.3770   92.1590 O.3   603  ATP603     -0.3112
     14  C5'       41.5320  117.9950   93.1320 C.3   603  ATP603      0.1813
     15  C4'       41.7970  116.6120   93.8570 C.3   603  ATP603      0.1821
     16  O4'       41.2190  116.8040   95.0810 O.3   603  ATP603     -0.3135
     17  C3'       41.0460  115.4910   93.1530 C.3   603  ATP603      0.2184
     18  O3'       41.9410  114.3900   93.1550 O.3   603  ATP603     -0.2174
     19  C2'       39.7460  115.3160   94.0170 C.3   603  ATP603      0.2570
     20  O2'       39.1910  114.0630   94.1850 O.3   603  ATP603     -0.2130
     21  C1'       40.0780  115.9700   95.3510 C.3   603  ATP603      0.3186
     22  N9        39.2450  117.0900   95.9600 N.pl3 603  ATP603     -0.1439
     23  C8        38.3620  117.9020   95.2390 C.3   603  ATP603      0.3377
     24  N7        37.8360  118.7810   96.0830 N.2   603  ATP603     -0.2095
     25  C5        38.3310  118.6020   97.3270 C.2   603  ATP603      0.2526
     26  C6        38.1720  119.2120   98.6470 C.2   603  ATP603      0.4393
     27  N6        37.5150  120.2870   98.9160 N.pl3 603  ATP603      0.2180
     28  N1        38.8990  118.6860   99.7870 N.2   603  ATP603      0.0021
     29  C2        39.8090  117.5710   99.6770 C.3   603  ATP603      0.5254
     30  N3        39.9680  116.9710   98.4080 N.2   603  ATP603     -0.0055
     31  C4        39.2500  117.4710   97.2480 C.2   603  ATP603      0.3518
@<TRIPOS>BOND
     1     2     1    2
     2     3     1    1
     3     1     8    1
     4     1     4    1
     5     8     5    1
     6     5    12    1
     7     5     6    2
     8     5     7    1
     9    12     9    1
    10    10     9    2
    11     9    11    1
    12     9    13    1
    13    13    14    1
    14    14    15    1
    15    17    18    1
    16    17    15    1
    17    17    19    1
    18    15    16    1
    19    19    20    1
    20    19    21    1
    21    16    21    1
    22    23    22    1
    23    23    24    1
    24    21    22    1
    25    22    31    1
    26    24    25    2
    27    31    25    1
    28    31    30    2
    29    25    26    1
    30    30    29    1
    31    26    27    1
    32    26    28    2
    33    29    28    1
