@<TRIPOS>MOLECULE
2f43_ADP_B_1.pdb
 27 29 0 0 0
SMALL
GASTEIGER

@<TRIPOS>ATOM
      1  PB        64.3130   99.1700   88.9800 P.3   604  ADP604      0.5373
      2  O1B       65.4690  100.0130   88.7600 O.3   604  ADP604     -0.1143
      3  O2B       63.0230   99.7580   88.6670 O.3   604  ADP604     -0.1143
      4  O3B       64.4240   97.7380   88.4200 O.2   604  ADP604     -0.2221
      5  PA        64.5330   97.7620   91.4670 P.3   604  ADP604      0.2231
      6  O1A       63.1960   97.4230   91.9870 O.3   604  ADP604     -0.4370
      7  O2A       65.2260   96.6100   90.7700 O.2   604  ADP604     -0.5169
      8  O3A       64.2920   99.0200   90.5600 O.3   604  ADP604     -0.2261
      9  O5'       65.2880   98.2680   92.7540 O.3   604  ADP604     -0.3111
     10  C5'       66.6930   98.6490   92.8450 C.3   604  ADP604      0.1813
     11  C4'       67.4220   98.1380   94.1130 C.3   604  ADP604      0.1821
     12  O4'       66.6840   98.7190   95.2450 O.3   604  ADP604     -0.3135
     13  C3'       67.4370   96.6170   94.4200 C.3   604  ADP604      0.2184
     14  O3'       68.6700   96.0860   93.8850 O.3   604  ADP604     -0.2174
     15  C2'       67.3360   96.5330   95.9890 C.3   604  ADP604      0.2570
     16  O2'       68.5860   96.7150   96.6950 O.3   604  ADP604     -0.2130
     17  C1'       66.4670   97.7710   96.3210 C.3   604  ADP604      0.3186
     18  N9        64.9920   97.3140   96.4660 N.pl3 604  ADP604     -0.1439
     19  C8        63.9880   97.2910   95.4860 C.3   604  ADP604      0.3377
     20  N7        62.7570   96.9040   95.9620 N.2   604  ADP604     -0.2095
     21  C5        63.0130   96.6360   97.3160 C.2   604  ADP604      0.2526
     22  C6        62.1190   96.2060   98.4050 C.2   604  ADP604      0.4393
     23  N6        60.8380   95.9980   98.2990 N.pl3 604  ADP604      0.2180
     24  N1        62.7600   96.0560   99.6460 N.2   604  ADP604      0.0021
     25  C2        64.1270   96.2970   99.8530 C.3   604  ADP604      0.5254
     26  N3        64.9800   96.6810   98.8740 N.2   604  ADP604     -0.0055
     27  C4        64.3900   96.8620   97.6390 C.2   604  ADP604      0.3518
@<TRIPOS>BOND
     1     4     1    2
     2     3     1    1
     3     2     1    1
     4     1     8    1
     5     8     5    1
     6     7     5    2
     7     5     6    1
     8     5     9    1
     9     9    10    1
    10    10    11    1
    11    14    13    1
    12    11    13    1
    13    11    12    1
    14    13    15    1
    15    12    17    1
    16    19    20    1
    17    19    18    1
    18    20    21    2
    19    15    17    1
    20    15    16    1
    21    17    18    1
    22    18    27    1
    23    21    27    1
    24    21    22    1
    25    27    26    2
    26    23    22    1
    27    22    24    2
    28    26    25    1
    29    24    25    1
