@<TRIPOS>MOLECULE
2f48_FBP_A_1.pdb
 20 20 0 0 0
SMALL
GASTEIGER

@<TRIPOS>ATOM
      1  P1         9.3810   19.1640   48.5650 P.3   829  FBP829      0.5328
      2  O1P        7.8640   18.9350   48.9000 O.3   829  FBP829     -0.1145
      3  O2P        9.7900   18.2590   47.4490 O.2   829  FBP829     -0.2224
      4  O3P        9.6130   20.6250   48.4310 O.3   829  FBP829     -0.1145
      5  O1        10.1550   18.7930   49.8960 O.3   829  FBP829     -0.2648
      6  C1         9.6970   17.7430   50.7410 C.3   829  FBP829      0.2152
      7  C2        10.7750   17.3090   51.7290 C.3   829  FBP829      0.2780
      8  O2        10.2950   16.1550   52.4030 O.3   829  FBP829     -0.1897
      9  C3        11.1850   18.3990   52.7350 C.3   829  FBP829      0.2408
     10  O3        10.3550   18.4080   53.8990 O.3   829  FBP829     -0.2149
     11  C4        12.5750   17.9070   53.1350 C.3   829  FBP829      0.2167
     12  O4        13.3980   18.9890   53.5110 O.3   829  FBP829     -0.2175
     13  C5        13.1180   17.3850   51.8080 C.3   829  FBP829      0.1808
     14  O5        11.9710   16.9960   51.0010 O.3   829  FBP829     -0.3255
     15  C6        14.1060   16.2470   52.0390 C.3   829  FBP829      0.1859
     16  O6        14.8420   15.9800   50.8340 O.3   829  FBP829     -0.2675
     17  P2        15.1190   14.4430   50.3970 P.3   829  FBP829      0.5327
     18  O4P       15.9550   14.6330   49.0680 O.2   829  FBP829     -0.2224
     19  O5P       15.9430   13.8180   51.4590 O.3   829  FBP829     -0.1145
     20  O6P       13.8560   13.7780   50.0430 O.3   829  FBP829     -0.1145
@<TRIPOS>BOND
     1     3     1    2
     2     4     1    1
     3     1     2    1
     4     1     5    1
     5    18    17    2
     6     5     6    1
     7    20    17    1
     8    17    16    1
     9    17    19    1
    10     6     7    1
    11    16    15    1
    12    14     7    1
    13    14    13    1
    14     7     8    1
    15     7     9    1
    16    13    15    1
    17    13    11    1
    18     9    11    1
    19     9    10    1
    20    11    12    1
