@<TRIPOS>MOLECULE
2f4b_EHA_A_1.pdb
 39 43 0 0 0
SMALL
GASTEIGER

@<TRIPOS>ATOM
      1  CAN        6.1460   -5.5160   45.6100 C.ar  201  EHA201      0.0032
      2  CAO        6.6020   -6.0440   46.8170 C.ar  201  EHA201      0.0001
      3  CAP        6.5930   -7.4170   47.0180 C.ar  201  EHA201      0.0000
      4  CAQ        6.1360   -8.2560   46.0120 C.ar  201  EHA201      0.0001
      5  CAR        5.6790   -7.7360   44.8000 C.ar  201  EHA201      0.0032
      6  CAL        5.6900   -6.3550   44.5850 C.ar  201  EHA201      0.0390
      7  CAK        5.1730   -5.7420   43.2430 C.2   201  EHA201      0.1955
      8  OAM        3.9520   -5.6540   43.0390 O.2   201  EHA201     -0.2866
      9  CAH        6.1570   -5.1650   42.1950 C.ar  201  EHA201      0.0390
     10  CAG        7.4820   -4.8710   42.5360 C.ar  201  EHA201      0.0032
     11  CAI        5.6960   -4.8860   40.9000 C.ar  201  EHA201      0.0032
     12  CAJ        6.5570   -4.3400   39.9520 C.ar  201  EHA201     -0.0001
     13  CAD        7.8900   -4.0480   40.2840 C.ar  201  EHA201     -0.0011
     14  CAE        8.7540   -3.4970   39.3090 C.ar  201  EHA201      0.0118
     15  CBK        8.2620   -3.1950   37.8640 C.3   201  EHA201      0.0294
     16  CBL        8.5260   -4.3550   36.8850 C.3   201  EHA201      0.0048
     17  CBM        8.2480   -3.9750   35.4160 C.3   201  EHA201      0.0004
     18  CAC        8.3470   -4.3220   41.5880 C.ar  201  EHA201     -0.0000
     19  CAB        9.6710   -4.0430   41.9460 C.ar  201  EHA201      0.0031
     20  CAA       10.5390   -3.4930   40.9990 C.ar  201  EHA201      0.0366
     21  CAF       10.0840   -3.2160   39.7000 C.ar  201  EHA201      0.1345
     22  OBJ       10.9270   -2.6880   38.7620 O.3   201  EHA201     -0.4756
     23  CBI       12.2730   -2.2210   39.1350 C.3   201  EHA201      0.2092
     24  CBH       13.3760   -2.8120   38.2280 C.3   201  EHA201      0.0946
     25  CBG       12.7990   -3.1720   36.8670 C.3   201  EHA201      0.2093
     26  OBF       13.4340   -4.2450   36.1510 O.3   201  EHA201     -0.4753
     27  CAS       12.6650   -5.3400   35.8150 C.ar  201  EHA201      0.1386
     28  CAX       12.9900   -6.5680   36.3910 C.ar  201  EHA201      0.0384
     29  CAT       11.5940   -5.2790   34.9160 C.ar  201  EHA201      0.0384
     30  CAU       10.8500   -6.4230   34.6030 C.ar  201  EHA201      0.0203
     31  CAV       11.1780   -7.6470   35.2000 C.ar  201  EHA201      0.0606
     32  CAW       12.2500   -7.7140   36.0990 C.ar  201  EHA201      0.0203
     33  CBA       12.3670   -8.9730   36.5120 C.ar  201  EHA201      0.0202
     34  CAZ       11.4130   -9.6970   35.9170 C.ar  201  EHA201      0.0764
     35  N         10.6980   -8.8940   35.1220 N.ar  201  EHA201     -0.3160
     36  CA         9.5460   -9.3370   34.3080 C.3   201  EHA201      0.2211
     37  C          9.8250  -10.6020   33.4770 C.2   201  EHA201      0.3875
     38  O          9.5090  -11.7010   34.0060 O.co2 201  EHA201     -0.2435
     39  OXT       10.3190  -10.4450   32.3270 O.co2 201  EHA201     -0.2435
@<TRIPOS>BOND
     1    39    37   ar
     2    37    38   ar
     3    37    36    1
     4    36    35    1
     5    30    29   ar
     6    30    31   ar
     7    29    27   ar
     8    35    31   ar
     9    35    34   ar
    10    31    32   ar
    11    17    16    1
    12    27    26    1
    13    27    28   ar
    14    34    33   ar
    15    32    28   ar
    16    32    33   ar
    17    26    25    1
    18    25    24    1
    19    16    15    1
    20    15    14    1
    21    24    23    1
    22    22    23    1
    23    22    21    1
    24    14    21   ar
    25    14    13   ar
    26    21    20   ar
    27    12    13   ar
    28    12    11   ar
    29    13    18   ar
    30    11     9   ar
    31    20    19   ar
    32    18    19   ar
    33    18    10   ar
    34     9    10   ar
    35     9     7    1
    36     8     7    2
    37     7     6    1
    38     6     5   ar
    39     6     1   ar
    40     5     4   ar
    41     1     2   ar
    42     4     3   ar
    43     2     3   ar
