@<TRIPOS>MOLECULE
2f4j_VX6_A_1.pdb
 33 37 0 0 0
SMALL
GASTEIGER

@<TRIPOS>ATOM
      1  N1         4.0480   -5.7010  -32.3330 N.3   514  VX6514     -0.2686
      2  C2         4.8630   -5.2040  -31.1770 C.3   514  VX6514      0.0939
      3  C3         4.7900   -6.1190  -29.9500 C.3   514  VX6514      0.1102
      4  N4         3.3730   -6.6210  -29.5090 N.pl3 514  VX6514     -0.2830
      5  C5         2.4800   -6.9450  -30.7200 C.3   514  VX6514      0.1102
      6  C6         2.6470   -5.9780  -31.9390 C.3   514  VX6514      0.0939
      7  C7         4.1610   -4.7620  -33.5150 C.3   514  VX6514      0.0897
      8  C8         2.9410   -6.8290  -28.1480 C.2   514  VX6514      0.1843
      9  C9         1.7350   -7.6070  -27.8250 C.3   514  VX6514      0.1825
     10  C10        1.4040   -7.7640  -26.4390 C.2   514  VX6514      0.3106
     11  N11        2.2290   -7.1970  -25.5230 N.2   514  VX6514     -0.2951
     12  C12        3.3000   -6.4960  -25.8670 C.1   514  VX6514      0.1763
     13  N13        3.6710   -6.2970  -27.1230 N.2   514  VX6514     -0.3233
     14  N14        0.2810   -8.4830  -26.1230 N.pl3 514  VX6514      0.0224
     15  C15       -0.3180   -8.9380  -24.8800 C.2   514  VX6514      0.3768
     16  C17        0.1140   -8.6020  -23.5870 C.3   514  VX6514      0.1690
     17  C18       -0.7650   -9.2460  -22.7200 C.2   514  VX6514      0.0959
     18  N19       -1.7150   -9.9640  -23.4620 N.2   514  VX6514     -0.0426
     19  N20       -1.4390   -9.7740  -24.7750 N.2   514  VX6514      0.0793
     20  C21       -0.7830   -9.2290  -21.2080 C.3   514  VX6514      0.0520
     21  S23        4.2820   -5.7760  -24.5270 S.3   514  VX6514      0.0090
     22  C24        3.5870   -6.2600  -23.0170 C.ar  514  VX6514      0.0409
     23  C25        2.8600   -5.3390  -22.2520 C.ar  514  VX6514      0.0085
     24  C26        2.2500   -5.7700  -21.0340 C.ar  514  VX6514      0.0171
     25  C27        2.3780   -7.0940  -20.6020 C.ar  514  VX6514      0.0734
     26  C28        3.1180   -8.0230  -21.3800 C.ar  514  VX6514      0.0171
     27  C29        3.7360   -7.5750  -22.6130 C.ar  514  VX6514      0.0085
     28  N30        1.7610   -7.5600  -19.3910 N.am  514  VX6514     -0.1792
     29  C31        1.7010   -8.7610  -18.7430 C.2   514  VX6514      0.2451
     30  O32        2.2160   -9.8050  -19.1370 O.2   514  VX6514     -0.2730
     31  C33        0.8850   -8.7370  -17.4500 C.3   514  VX6514      0.0786
     32  C34       -0.6020   -9.2660  -17.3890 C.3   514  VX6514      0.0096
     33  C35        0.4870   -9.8100  -16.4320 C.3   514  VX6514      0.0096
@<TRIPOS>BOND
     1     7     1    1
     2     1     6    1
     3     1     2    1
     4     6     5    1
     5     2     3    1
     6     5     4    1
     7     3     4    1
     8     4     8    1
     9     8     9    1
    10     8    13    2
    11     9    10    1
    12    13    12    2
    13    10    14    1
    14    10    11    2
    15    14    15    1
    16    12    11    2
    17    12    21    1
    18    15    19    2
    19    15    16    1
    20    19    18    1
    21    21    22    1
    22    16    17    1
    23    18    17    2
    24    22    27   ar
    25    22    23   ar
    26    17    20    1
    27    27    26   ar
    28    23    24   ar
    29    26    25   ar
    30    24    25   ar
    31    25    28    1
    32    28    29   am
    33    30    29    2
    34    29    31    1
    35    31    32    1
    36    31    33    1
    37    32    33    1
