@<TRIPOS>MOLECULE
2f4o_III_I_1.pdb
 31 31 0 0 0
SMALL
GASTEIGER

@<TRIPOS>ATOM
      1  C1       -11.8920   -2.9130  -27.1270 C.2     1  PHQ1        0.4218
      2  O1       -11.7720   -2.6200  -28.4300 O.2     1  PHQ1       -0.2245
      3  O2       -11.4280   -4.3100  -26.7370 O.3     1  PHQ1       -0.4285
      4  C2       -12.0110   -5.4780  -27.5560 C.3     1  PHQ1        0.2368
      5  C3       -10.9680   -6.3400  -28.2190 C.ar    1  PHQ1        0.0213
      6  C4       -10.9820   -6.5330  -29.6220 C.ar    1  PHQ1       -0.0007
      7  C5       -10.0160   -7.2990  -30.2450 C.ar    1  PHQ1       -0.0002
      8  C6        -9.0090   -7.8940  -29.4780 C.ar    1  PHQ1       -0.0000
      9  C7        -8.9730   -7.6980  -28.0820 C.ar    1  PHQ1       -0.0002
     10  C8        -9.9530   -6.9320  -27.4660 C.ar    1  PHQ1       -0.0007
     11  N        -12.3840   -1.7590  -26.5980 N.am    2  VAL2       -0.1611
     12  CA       -13.5130   -0.7750  -26.7390 C.3     2  VAL2        0.1760
     13  C        -14.5070   -1.2600  -27.8060 C.2     2  VAL2        0.2617
     14  O        -14.1440   -1.6860  -28.9250 O.2     2  VAL2       -0.2715
     15  CB       -13.0060    0.6540  -27.0180 C.3     2  VAL2        0.0291
     16  CG1      -14.1130    1.6630  -26.8280 C.3     2  VAL2        0.0023
     17  CG2      -11.8540    0.9860  -26.0950 C.3     2  VAL2        0.0023
     18  N        -15.7720   -1.2120  -27.4100 N.am    3  ALA3       -0.1963
     19  CA       -16.8810   -1.7410  -28.2180 C.3     3  ALA3        0.1728
     20  C        -17.2230   -0.8040  -29.3760 C.2     3  ALA3        0.2616
     21  O        -16.8260    0.3610  -29.4260 O.2     3  ALA3       -0.2715
     22  CB       -18.1230   -1.9750  -27.3260 C.3     3  ALA3        0.0334
     23  N        -17.8390   -1.3240  -30.4120 N.am    4  ASP4       -0.1976
     24  CA       -18.2310   -0.5680  -31.5710 C.3     4  ASP4        0.1635
     25  C        -19.6350   -0.0040  -31.5260 C.2     4  ASP4        0.1713
     26  O        -20.1440    0.5770  -32.4960 O.2     4  ASP4       -0.2942
     27  CB       -17.7050   -1.0400  -32.9710 C.3     4  ASP4        0.1432
     28  CG       -16.2270   -1.3530  -33.0740 C.2     4  ASP4        0.3671
     29  OD1      -15.4910   -0.3740  -33.1360 O.co2   4  ASP4       -0.2456
     30  OD2      -15.7420   -2.4810  -32.9280 O.co2   4  ASP4       -0.2456
     31  C1       -20.4520   -0.1490  -30.2850 C.3     5  CF05        0.0741
@<TRIPOS>BOND
     1    29    28   ar
     2    28    27    1
     3    28    30   ar
     4    27    24    1
     5    26    25    2
     6    24    25    1
     7    24    23    1
     8    25    31    1
     9    23    20   am
    10     7     6   ar
    11     7     8   ar
    12     6     5   ar
    13     8     9   ar
    14    21    20    2
    15    20    19    1
    16    14    13    2
    17     2     1    2
    18     5     4    1
    19     5    10   ar
    20    19    18    1
    21    19    22    1
    22     9    10   ar
    23    13    18   am
    24    13    12    1
    25     4     3    1
    26     1     3    1
    27     1    11   am
    28    15    16    1
    29    15    12    1
    30    15    17    1
    31    12    11    1
