@<TRIPOS>MOLECULE
2f57_23D_B_1.pdb
 27 30 0 0 0
SMALL
GASTEIGER

@<TRIPOS>ATOM
      1  CAS       16.6590   31.7510    5.8650 C.ar    1  23D1        0.0280
      2  CAQ       17.1020   32.6100    4.8670 C.ar    1  23D1        0.0590
      3 CL1        17.3950   31.9660    3.2870 Cl      1  23D1       -0.0822
      4  CAP       17.2910   33.9650    5.1350 C.ar    1  23D1        0.0115
      5  CAO       17.0450   34.4640    6.4090 C.ar    1  23D1        0.0022
      6  CAN       16.6020   33.6010    7.4100 C.ar    1  23D1        0.0166
      7  CAM       16.4210   32.2330    7.1530 C.ar    1  23D1        0.0740
      8  N6        15.9850   31.4290    8.1440 N.pl3   1  23D1       -0.1814
      9  C6        16.1630   30.0990    8.2260 C.2     1  23D1        0.2383
     10  N1        16.8750   29.3610    7.3380 N.2     1  23D1       -0.3081
     11  C5        15.5530   29.4390    9.2860 C.2     1  23D1        0.1693
     12  N7        14.8000   29.8640   10.3000 N.2     1  23D1       -0.2402
     13  C8        14.4750   28.8030   11.0470 C.3     1  23D1        0.2221
     14  N9        15.0190   27.7170   10.5120 N.pl3   1  23D1       -0.2608
     15  CAZ       14.8670   26.3610   11.0530 C.3     1  23D1        0.0951
     16  CBA       16.2270   25.6680   11.2270 C.3     1  23D1        0.0233
     17  C4        15.6950   28.0570    9.4140 C.2     1  23D1        0.2198
     18  N3        16.4150   27.3710    8.5090 N.2     1  23D1       -0.3099
     19  C2        17.0010   28.0200    7.4780 C.1     1  23D1        0.2227
     20  N2        17.7160   27.2980    6.6090 N.pl3   1  23D1       -0.1520
     21  CAG       18.1990   27.8150    5.3180 C.3     1  23D1        0.1231
     22  CAF       17.4670   27.1190    4.1650 C.3     1  23D1        0.0240
     23  CAE       17.8620   27.7250    2.8150 C.3     1  23D1        0.0019
     24  CAD       19.2540   28.3840    2.8320 C.3     1  23D1        0.0016
     25  CAC       20.2300   27.6650    3.7790 C.3     1  23D1        0.0208
     26  CAA       19.7080   27.5650    5.2270 C.3     1  23D1        0.1125
     27  NAB       20.4180   28.5220    6.0890 N.3     1  23D1       -0.1311
@<TRIPOS>BOND
     1    23    24    1
     2    23    22    1
     3    24    25    1
     4     3     2    1
     5    25    26    1
     6    22    21    1
     7     2     4   ar
     8     2     1   ar
     9     4     5   ar
    10    26    21    1
    11    26    27    1
    12    21    20    1
    13     1     7   ar
    14     5     6   ar
    15    20    19    1
    16     7     6   ar
    17     7     8    1
    18    10    19    2
    19    10     9    2
    20    19    18    2
    21     8     9    1
    22     9    11    1
    23    18    17    2
    24    11    17    1
    25    11    12    2
    26    17    14    1
    27    12    13    1
    28    14    13    1
    29    14    15    1
    30    15    16    1
