@<TRIPOS>MOLECULE
2f59_INI_A_1.pdb
 21 21 0 0 0
SMALL
GASTEIGER

@<TRIPOS>ATOM
      1  N1        97.9390   60.0260  -89.8960 N.2   201  INI201     -0.2923
      2  C2        97.3120   60.1660  -88.6750 C.1   201  INI201      0.3663
      3  O2        98.0230   60.0110  -87.6990 O.2   201  INI201     -0.1745
      4  N3        95.9780   60.4610  -88.6840 N.2   201  INI201     -0.2344
      5  C4        95.1930   60.6270  -89.8250 C.1   201  INI201      0.2293
      6  O4        93.9840   60.8950  -89.5860 O.2   201  INI201     -0.2107
      7  C5        95.9130   60.4590  -91.2130 C.3   201  INI201      0.3505
      8  N5        95.1160   60.6220  -92.4180 N.pl3 201  INI201      0.0583
      9  O51       93.9660   60.8720  -92.3640 O.2   201  INI201     -0.1294
     10  O52       95.6490   60.4930  -93.4950 O.2   201  INI201     -0.1294
     11  C6        97.3570   60.1480  -91.1680 C.2   201  INI201      0.2365
     12  N7        98.2500   59.9590  -92.2570 N.pl3 201  INI201     -0.2071
     13  C8        98.4240   58.5440  -92.6800 C.3   201  INI201      0.1501
     14  C9        99.7690   57.8500  -92.2230 C.3   201  INI201      0.2063
     15  O9        99.6700   57.8490  -90.8140 O.3   201  INI201     -0.2184
     16  C10      101.2240   58.5060  -92.5290 C.3   201  INI201      0.2166
     17  O10      101.3600   59.7570  -91.9560 O.3   201  INI201     -0.2175
     18  C11      101.7540   58.6890  -94.1380 C.3   201  INI201      0.2175
     19  O11      100.6360   58.0740  -94.8500 O.3   201  INI201     -0.2175
     20  C12      102.9560   57.9430  -94.8750 C.3   201  INI201      0.2175
     21  O12      103.4890   57.0370  -93.9520 O.3   201  INI201     -0.2175
@<TRIPOS>BOND
     1    20    18    1
     2    20    21    1
     3    19    18    1
     4    18    16    1
     5    10     8    2
     6    13    12    1
     7    13    14    1
     8    16    14    1
     9    16    17    1
    10     8     9    2
    11     8     7    1
    12    12    11    1
    13    14    15    1
    14     7    11    1
    15     7     5    1
    16    11     1    2
    17     1     2    2
    18     5     6    2
    19     5     4    2
    20     4     2    2
    21     2     3    2
