@<TRIPOS>MOLECULE
2f5t_MAL_X_1.pdb
 23 24 0 0 0
SMALL
GASTEIGER

@<TRIPOS>ATOM
      1  C1        34.4190   33.4820   30.6460 C.3   343  MAL343      0.2695
      2  C2        33.1780   32.6280   30.2940 C.3   343  MAL343      0.2406
      3  C3        33.6850   31.3090   29.7090 C.3   343  MAL343      0.2198
      4  C4        34.5990   31.5520   28.4880 C.3   343  MAL343      0.2144
      5  C5        35.7010   32.5520   28.8180 C.3   343  MAL343      0.1835
      6  C6        36.4390   32.9750   27.5430 C.3   343  MAL343      0.2142
      7  O1        35.1540   32.7630   31.5820 O.3   343  MAL343     -0.3257
      8  O2        32.3840   32.4080   31.4230 O.3   343  MAL343     -0.2149
      9  O3        32.5520   30.4710   29.3950 O.3   343  MAL343     -0.2174
     10  O4        35.1120   30.2950   28.0700 O.3   343  MAL343     -0.2176
     11  O5        35.1410   33.7160   29.4380 O.3   343  MAL343     -0.3256
     12  O6        35.5550   33.5740   26.5600 O.3   343  MAL343     -0.2176
     13  C1'       36.8910   33.3440   35.2690 C.3   343  MAL343      0.3023
     14  C2'       35.7240   34.2810   34.9740 C.3   343  MAL343      0.2433
     15  C3'       34.9570   33.8190   33.7270 C.3   343  MAL343      0.2168
     16  C4'       35.8830   33.4960   32.5460 C.3   343  MAL343      0.1804
     17  C5'       37.0170   32.5890   32.9990 C.3   343  MAL343      0.1804
     18  C6'       38.0400   32.3270   31.8840 C.3   343  MAL343      0.2141
     19  O1'       37.6070   33.7320   36.3590 O.3   343  MAL343     -0.1869
     20  O2'       34.8000   34.4230   36.0340 O.3   343  MAL343     -0.2148
     21  O3'       34.0430   34.8130   33.3610 O.3   343  MAL343     -0.2175
     22  O5'       37.6840   33.1200   34.1370 O.3   343  MAL343     -0.3237
     23  O6'       38.8680   33.4540   31.6510 O.3   343  MAL343     -0.2176
@<TRIPOS>BOND
     1    12     6    1
     2     6     5    1
     3    10     4    1
     4     4     5    1
     5     4     3    1
     6     5    11    1
     7     9     3    1
     8    11     1    1
     9     3     2    1
    10     2     1    1
    11     2     8    1
    12     1     7    1
    13     7    16    1
    14    23    18    1
    15    18    17    1
    16    16    17    1
    17    16    15    1
    18    17    22    1
    19    21    15    1
    20    15    14    1
    21    22    13    1
    22    14    13    1
    23    14    20    1
    24    13    19    1
