@<TRIPOS>MOLECULE
2f5v_KBG_A_1.pdb
 12 12 0 0 0
SMALL
GASTEIGER

@<TRIPOS>ATOM
      1  OAK       11.3350   12.9420   18.4180 O.3   1628  KBG1628    -0.2172
      2  CAJ       10.2390   13.3870   19.2200 C.3   1628  KBG1628     0.2191
      3  CAI       10.5690   14.7790   19.6940 C.3   1628  KBG1628     0.2464
      4  OAL       11.4920   14.6240   20.6780 O.3   1628  KBG1628    -0.2121
      5  CAH        9.3660   15.4840   20.3020 C.2   1628  KBG1628     0.2421
      6  OAG        9.5470   16.2270   21.2640 O.2   1628  KBG1628    -0.2879
      7  CAB        7.9690   15.2190   19.7130 C.3   1628  KBG1628     0.3300
      8  OAA        6.9190   15.6860   20.5530 O.3   1628  KBG1628    -0.1813
      9  OAC        7.9690   13.7860   19.3730 O.3   1628  KBG1628    -0.3200
     10  CAD        8.9480   13.3610   18.4330 C.3   1628  KBG1628     0.1843
     11  CAE        8.7470   11.9110   17.9640 C.3   1628  KBG1628     0.2142
     12  OAF        8.5200   11.1060   19.1110 O.3   1628  KBG1628    -0.2176
@<TRIPOS>BOND
     1    11    10    1
     2    11    12    1
     3     1     2    1
     4    10     2    1
     5    10     9    1
     6     2     3    1
     7     9     7    1
     8     3     5    1
     9     3     4    1
    10     7     5    1
    11     7     8    1
    12     5     6    2
