@<TRIPOS>MOLECULE
2f62_12M_A_1.pdb
 10 10 0 0 0
SMALL
GASTEIGER

@<TRIPOS>ATOM
      1  CAH        1.2440   22.2510   16.4220 C.3   401  12M401      0.0050
      2  CAD        1.2340   21.1080   17.4430 C.3   401  12M401      0.0261
      3  CAA        2.6430   20.7880   17.9770 C.ar  401  12M401     -0.0237
      4  CAC        3.4310   21.8590   18.4110 C.ar  401  12M401     -0.0045
      5  CAG        4.7140   21.6530   18.9100 C.ar  401  12M401     -0.0003
      6  CAI        5.2260   20.3620   18.9830 C.ar  401  12M401     -0.0003
      7  CAE        4.4530   19.2870   18.5550 C.ar  401  12M401     -0.0021
      8  CAB        3.1630   19.4900   18.0550 C.ar  401  12M401      0.0066
      9  CAF        2.3900   18.2460   17.6120 C.3   401  12M401      0.2083
     10  OAJ        2.9860   17.0560   18.1200 O.3   401  12M401     -0.2152
@<TRIPOS>BOND
     1     1     2    1
     2     2     3    1
     3     9     8    1
     4     9    10    1
     5     3     8   ar
     6     3     4   ar
     7     8     7   ar
     8     4     5   ar
     9     7     6   ar
    10     5     6   ar
