@<TRIPOS>MOLECULE
2f64_12Q_A_1.pdb
 12 13 0 0 0
SMALL
GASTEIGER

@<TRIPOS>ATOM
      1  CAH      -28.8080    4.8350  -26.0860 C.3   472  12Q472      0.1335
      2  NAC      -27.4450    4.8590  -25.5190 N.ar  472  12Q472     -0.2935
      3  CAA      -26.8430    6.0820  -25.1750 C.ar  472  12Q472      0.0625
      4  CAD      -27.5150    7.2900  -25.3630 C.ar  472  12Q472      0.0173
      5  CAI      -26.9090    8.4930  -25.0200 C.ar  472  12Q472      0.0015
      6  CAK      -25.6240    8.4930  -24.4860 C.ar  472  12Q472      0.0001
      7  CAF      -24.9500    7.2910  -24.2960 C.ar  472  12Q472      0.0014
      8  CAB      -25.5540    6.0870  -24.6380 C.ar  472  12Q472      0.0160
      9  CAE      -24.8700    4.8910  -24.4440 C.ar  472  12Q472      0.0063
     10  CAJ      -25.4660    3.6830  -24.7870 C.ar  472  12Q472      0.0608
     11  CAG      -26.7500    3.6540  -25.3200 C.ar  472  12Q472      0.2610
     12  OAL      -27.2620    2.5740  -25.6140 O.2   472  12Q472     -0.2670
@<TRIPOS>BOND
     1     1     2    1
     2    12    11    2
     3     2    11   ar
     4     2     3   ar
     5     4     3   ar
     6     4     5   ar
     7    11    10   ar
     8     3     8   ar
     9     5     6   ar
    10    10     9   ar
    11     8     9   ar
    12     8     7   ar
    13     6     7   ar
