@<TRIPOS>MOLECULE
2f67_12B_A_1.pdb
 13 15 0 0 0
SMALL
GASTEIGER

@<TRIPOS>ATOM
      1  CAA       26.2030  -20.3300   18.1700 C.ar  382  12B382      0.0388
      2  CAB       25.1090  -19.6640   18.6830 C.2   382  12B382      0.1445
      3  CAF       24.0930  -20.4340   19.2350 C.2   382  12B382      0.0288
      4  CAK       24.2350  -21.8280   19.2410 C.2   382  12B382     -0.0188
      5  CAJ       25.3600  -22.4730   18.7110 C.3   382  12B382      0.0525
      6  CAD       26.3740  -21.6970   18.1610 C.ar  382  12B382     -0.0146
      7  CAI       27.5440  -22.2110   17.5990 C.ar  382  12B382     -0.0038
      8  CAM       28.4950  -21.3240   17.0730 C.ar  382  12B382      0.0005
      9  CAH       28.2830  -19.9380   17.1020 C.ar  382  12B382      0.0127
     10  CAC       27.1100  -19.4430   17.6640 C.ar  382  12B382      0.0969
     11  CAG       26.5130  -18.2140   17.8930 C.1   382  12B382      0.2047
     12  OAL       27.0070  -17.1400   17.5780 O.2   382  12B382     -0.2093
     13  NAE       25.3240  -18.3590   18.4990 N.2   382  12B382     -0.3329
@<TRIPOS>BOND
     1     8     9   ar
     2     8     7   ar
     3     9    10   ar
     4    12    11    2
     5     7     6   ar
     6    10    11    1
     7    10     1   ar
     8    11    13    2
     9     6     1   ar
    10     6     5    1
    11     1     2    1
    12    13     2    2
    13     2     3    1
    14     5     4    1
    15     3     4    2
