@<TRIPOS>MOLECULE
2f69_SAH_A_1.pdb
 26 28 0 0 0
SMALL
GASTEIGER

@<TRIPOS>ATOM
      1  N        -44.4400   36.8090    6.8520 N.3   800  SAH800     -0.1208
      2  CA       -43.1820   36.2690    6.2630 C.3   800  SAH800      0.1952
      3  CB       -42.8970   34.8930    6.9300 C.3   800  SAH800      0.0422
      4  CG       -42.1960   35.0920    8.3110 C.3   800  SAH800      0.0597
      5  SD       -40.5170   35.7450    8.0450 S.3   800  SAH800     -0.1375
      6  C        -43.2990   36.1620    4.7610 C.2   800  SAH800      0.3819
      7  O        -42.2840   35.7150    4.1450 O.co2 800  SAH800     -0.2441
      8  OXT      -44.3360   36.6420    4.2230 O.co2 800  SAH800     -0.2441
      9  C5'      -40.4260   37.1920    9.1800 C.3   800  SAH800      0.0899
     10  C4'      -41.2100   38.4280    8.7440 C.3   800  SAH800      0.1630
     11  O4'      -42.6710   38.1810    8.9310 O.3   800  SAH800     -0.3153
     12  C3'      -40.9250   39.6420    9.6470 C.3   800  SAH800      0.2168
     13  O3'      -39.8020   40.3470    9.0720 O.3   800  SAH800     -0.2175
     14  C2'      -42.2510   40.4180    9.6190 C.3   800  SAH800      0.2569
     15  O2'      -42.3320   41.1200    8.3500 O.3   800  SAH800     -0.2130
     16  C1'      -43.3120   39.3720    9.5300 C.3   800  SAH800      0.3185
     17  N9       -43.7910   38.9140   10.8250 N.pl3 800  SAH800     -0.1439
     18  C8       -43.6150   37.7060   11.4110 C.3   800  SAH800      0.3377
     19  N7       -44.3330   37.6390   12.5470 N.2   800  SAH800     -0.2095
     20  C5       -44.9720   38.8460   12.6670 C.2   800  SAH800      0.2526
     21  C6       -45.8900   39.3690   13.5780 C.2   800  SAH800      0.4393
     22  N6       -46.3130   38.7550   14.7100 N.pl3 800  SAH800      0.2180
     23  N1       -46.3190   40.6690   13.3890 N.2   800  SAH800      0.0021
     24  C2       -45.9490   41.3210   12.2730 C.3   800  SAH800      0.5254
     25  N3       -45.0880   40.8930   11.3160 N.2   800  SAH800     -0.0055
     26  C4       -44.6420   39.5840   11.5580 C.2   800  SAH800      0.3518
@<TRIPOS>BOND
     1     7     6   ar
     2     8     6   ar
     3     6     2    1
     4     2     1    1
     5     2     3    1
     6     3     4    1
     7     5     4    1
     8     5     9    1
     9    15    14    1
    10    10    11    1
    11    10     9    1
    12    10    12    1
    13    11    16    1
    14    13    12    1
    15    16    14    1
    16    16    17    1
    17    14    12    1
    18    17    18    1
    19    17    26    1
    20    25    26    2
    21    25    24    1
    22    18    19    1
    23    26    20    1
    24    24    23    1
    25    19    20    2
    26    20    21    1
    27    23    21    2
    28    21    22    1
