@<TRIPOS>MOLECULE
2f6d_ACR_A_1.pdb
 44 47 0 0 0
SMALL
GASTEIGER

@<TRIPOS>ATOM
      1  C1A       11.5760    5.0770   -5.9520 C.3   995  ACR995      0.1273
      2  C2A       11.8110    4.1590   -7.0990 C.3   995  ACR995      0.2049
      3  C3A       10.7780    3.9060   -8.1490 C.3   995  ACR995      0.2179
      4  C4A        9.3880    3.6520   -7.6330 C.3   995  ACR995      0.2053
      5  C5A        9.1360    4.3690   -6.3190 C.2   995  ACR995      0.0180
      6  C6A        7.7290    4.2950   -5.7820 C.3   995  ACR995      0.2066
      7  C7A       10.1010    4.9540   -5.5820 C.2   995  ACR995     -0.0100
      8  O2A       13.1430    4.1170   -7.5590 O.3   995  ACR995     -0.2184
      9  O3A       11.1800    3.0870   -9.2190 O.3   995  ACR995     -0.2172
     10  O4A        8.4250    3.9580   -8.6360 O.3   995  ACR995     -0.2157
     11  O6A        7.6610    2.9500   -5.2730 O.3   995  ACR995     -0.2155
     12  C1B       14.0420    9.6790   -4.5210 C.3   995  ACR995      0.2694
     13  C2B       14.8940    8.6650   -5.2430 C.3   995  ACR995      0.2394
     14  C3B       14.1070    7.7230   -6.1400 C.3   995  ACR995      0.2054
     15  C4B       12.7360    7.3120   -5.6520 C.3   995  ACR995      0.1333
     16  C5B       11.9460    8.4350   -4.9960 C.3   995  ACR995      0.1364
     17  C6B       10.6430    8.1090   -4.3230 C.3   995  ACR995      0.0337
     18  N4B       12.0640    6.3510   -6.5100 N.3   995  ACR995     -0.2087
     19  O2B       16.0410    9.2490   -5.8070 O.3   995  ACR995     -0.2149
     20  O3B       14.8840    6.6870   -6.6830 O.3   995  ACR995     -0.2186
     21  O5B       12.7570    9.2610   -4.1820 O.3   995  ACR995     -0.3295
     22  C1C       12.2280   14.5730   -5.8340 C.3   995  ACR995      0.2695
     23  C2C       12.3980   14.0210   -4.4450 C.3   995  ACR995      0.2404
     24  C3C       13.1580   12.7110   -4.3160 C.3   995  ACR995      0.2167
     25  C4C       12.9510   11.7570   -5.4850 C.3   995  ACR995      0.1804
     26  C5C       12.7460   12.4190   -6.8450 C.3   995  ACR995      0.1803
     27  C6C       12.1900   11.4800   -7.8720 C.3   995  ACR995      0.2141
     28  O2C       12.7990   14.9790   -3.5160 O.3   995  ACR995     -0.2149
     29  O3C       13.0740   12.1630   -3.0380 O.3   995  ACR995     -0.2175
     30  O4C       13.8600   10.6530   -5.5980 O.3   995  ACR995     -0.3257
     31  O5C       12.0730   13.6840   -6.9040 O.3   995  ACR995     -0.3257
     32  O6C       12.3460   12.0630   -9.1690 O.3   995  ACR995     -0.2176
     33  C1D       15.3010   18.7330   -7.5320 C.3   995  ACR995      0.3023
     34  C2D       14.7260   18.7430   -6.1220 C.3   995  ACR995      0.2433
     35  C3D       14.1890   17.4070   -5.5790 C.3   995  ACR995      0.2168
     36  C4D       13.7130   16.3880   -6.6070 C.3   995  ACR995      0.1804
     37  C5D       14.3920   16.4500   -7.9610 C.3   995  ACR995      0.1804
     38  C6D       13.6310   15.7290   -9.0550 C.3   995  ACR995      0.2141
     39  O1D       15.1130   20.0080   -8.1340 O.3   995  ACR995     -0.1869
     40  O2D       15.6680   19.3490   -5.2560 O.3   995  ACR995     -0.2148
     41  O3D       13.2800   17.5060   -4.5000 O.3   995  ACR995     -0.2175
     42  O4D       13.5690   15.0560   -6.0730 O.3   995  ACR995     -0.3257
     43  O5D       14.8870   17.7050   -8.4270 O.3   995  ACR995     -0.3237
     44  O6D       14.5550   15.4580  -10.0900 O.3   995  ACR995     -0.2176
@<TRIPOS>BOND
     1    44    38    1
     2     9     3    1
     3    32    27    1
     4    38    37    1
     5    10     4    1
     6    43    37    1
     7    43    33    1
     8     3     4    1
     9     3     2    1
    10    39    33    1
    11    37    36    1
    12    27    26    1
    13     4     5    1
    14     8     2    1
    15    33    34    1
    16     2     1    1
    17    31    26    1
    18    31    22    1
    19    26    25    1
    20    20    14    1
    21    36    42    1
    22    36    35    1
    23    18     1    1
    24    18    15    1
    25     5     6    1
    26     5     7    2
    27    14    15    1
    28    14    13    1
    29    34    35    1
    30    34    40    1
    31    42    22    1
    32     1     7    1
    33    22    23    1
    34    19    13    1
    35     6    11    1
    36    15    16    1
    37    30    25    1
    38    30    12    1
    39    35    41    1
    40    25    24    1
    41    13    12    1
    42    16    17    1
    43    16    21    1
    44    12    21    1
    45    23    24    1
    46    23    28    1
    47    24    29    1
