@<TRIPOS>MOLECULE
2f6t_1C2_A_1.pdb
 26 27 0 0 0
SMALL
GASTEIGER

@<TRIPOS>ATOM
      1  O6       -10.2890   46.9830   46.3080 O.3   608  1C2608     -0.2891
      2  S1        -9.1500   47.6340   46.9710 S.3   608  1C2608     -0.1124
      3  O4        -8.0610   46.6760   47.1530 O.3   608  1C2608     -0.2891
      4  O5        -8.7600   48.9290   46.3640 O.3   608  1C2608     -0.2891
      5  N3        -9.6980   48.0460   48.4440 N.pl3 608  1C2608     -0.1365
      6  C15      -10.2950   47.1330   49.2730 C.ar  608  1C2608      0.0872
      7  C16       -9.5240   46.3910   50.1720 C.ar  608  1C2608      0.0176
      8  C14      -11.6840   46.9590   49.2730 C.ar  608  1C2608      0.0150
      9  C13      -12.3190   46.0530   50.1310 C.ar  608  1C2608     -0.0048
     10  C12      -13.8250   45.8760   50.1120 C.3   608  1C2608      0.1236
     11  N2       -14.3710   45.3040   51.3590 N.am  608  1C2608     -0.2348
     12  C7       -15.6750   45.0640   51.4650 C.2   608  1C2608      0.4052
     13  O3       -16.2550   44.5920   52.4330 O.2   608  1C2608     -0.2262
     14  O2       -16.3980   45.4300   50.2750 O.3   608  1C2608     -0.4418
     15  C8       -17.8140   45.4510   50.0410 C.3   608  1C2608      0.1378
     16  C11      -18.0090   45.6610   48.5410 C.3   608  1C2608      0.0437
     17  C10      -18.4640   46.5780   50.8350 C.3   608  1C2608      0.0437
     18  C9       -18.3630   44.0820   50.4060 C.3   608  1C2608      0.0437
     19  C4       -13.4950   44.9840   52.4800 C.3   608  1C2608      0.1610
     20  C5       -13.2760   46.1750   53.3680 C.2   608  1C2608      0.2600
     21  O1       -12.4680   46.1370   54.2770 O.2   608  1C2608     -0.2715
     22  N1       -13.9980   47.2640   53.1280 N.am  608  1C2608     -0.2021
     23  C6       -13.8350   48.4550   53.9550 C.3   608  1C2608      0.1386
     24  C3       -12.2180   44.3430   51.9280 C.3   608  1C2608      0.0554
     25  C2       -11.5380   45.3190   50.9990 C.ar  608  1C2608     -0.0223
     26  C1       -10.1510   45.4740   51.0300 C.ar  608  1C2608     -0.0031
@<TRIPOS>BOND
     1     1     2    1
     2     4     2    1
     3     2     3    1
     4     2     5    1
     5     5     6    1
     6    16    15    1
     7     6     8   ar
     8     6     7   ar
     9     8     9   ar
    10    15    14    1
    11    15    18    1
    12    15    17    1
    13    10     9    1
    14    10    11    1
    15     9    25   ar
    16     7    26   ar
    17    14    12    1
    18    25    26   ar
    19    25    24    1
    20    11    12   am
    21    11    19    1
    22    12    13    2
    23    24    19    1
    24    19    20    1
    25    22    20   am
    26    22    23    1
    27    20    21    2
