@<TRIPOS>MOLECULE
2f6v_SK2_A_1.pdb
 29 31 0 0 0
SMALL
GASTEIGER

@<TRIPOS>ATOM
      1  O6       -10.3300   46.8010   46.3010 O.3   608  SK2608     -0.2891
      2  S1        -9.2080   47.5010   46.9620 S.3   608  SK2608     -0.1124
      3  O4        -8.1040   46.5490   47.1250 O.3   608  SK2608     -0.2891
      4  O5        -8.8170   48.7640   46.3200 O.3   608  SK2608     -0.2891
      5  N3        -9.7340   47.8960   48.4470 N.pl3 608  SK2608     -0.1365
      6  C15      -10.2590   46.9640   49.2960 C.ar  608  SK2608      0.0872
      7  C16       -9.4100   46.1880   50.0870 C.ar  608  SK2608      0.0176
      8  C14      -11.6370   46.7980   49.4300 C.ar  608  SK2608      0.0150
      9  C13      -12.1540   45.8530   50.3210 C.ar  608  SK2608     -0.0048
     10  C12      -13.6560   45.7040   50.4460 C.3   608  SK2608      0.1236
     11  N2       -14.0510   44.9600   51.6520 N.am  608  SK2608     -0.2347
     12  C4       -13.1020   44.6650   52.7160 C.3   608  SK2608      0.1610
     13  C5       -12.8240   45.8690   53.5820 C.2   608  SK2608      0.2600
     14  O1       -11.8210   45.9130   54.2870 O.2   608  SK2608     -0.2715
     15  N1       -13.6590   46.8990   53.5410 N.am  608  SK2608     -0.2021
     16  C6       -13.3930   48.0730   54.3700 C.3   608  SK2608      0.1386
     17  C3       -11.8530   44.0680   52.0590 C.3   608  SK2608      0.0554
     18  C2       -11.2920   45.0860   51.0830 C.ar  608  SK2608     -0.0223
     19  C1        -9.9090   45.2360   50.9790 C.ar  608  SK2608     -0.0031
     20  C7       -15.2950   44.5370   51.8310 C.2   608  SK2608      0.4058
     21  O3       -15.7010   43.9060   52.8020 O.2   608  SK2608     -0.2262
     22  O2       -16.1740   44.8840   50.7490 O.3   608  SK2608     -0.4295
     23  C8       -17.5160   44.3950   50.7670 C.3   608  SK2608      0.2367
     24  C11      -18.2600   45.2870   49.8000 C.ar  608  SK2608      0.0213
     25  C19      -18.4100   46.6580   50.0310 C.ar  608  SK2608     -0.0007
     26  C9       -19.1090   47.4230   49.1010 C.ar  608  SK2608     -0.0002
     27  C18      -18.7790   44.6840   48.6540 C.ar  608  SK2608     -0.0007
     28  C10      -19.4870   45.4500   47.7260 C.ar  608  SK2608     -0.0002
     29  C17      -19.6380   46.8140   47.9600 C.ar  608  SK2608     -0.0000
@<TRIPOS>BOND
     1     1     2    1
     2     4     2    1
     3     2     3    1
     4     2     5    1
     5    28    29   ar
     6    28    27   ar
     7    29    26   ar
     8     5     6    1
     9    27    24   ar
    10    26    25   ar
    11     6     8   ar
    12     6     7   ar
    13     8     9   ar
    14    24    25   ar
    15    24    23    1
    16     7    19   ar
    17     9    10    1
    18     9    18   ar
    19    10    11    1
    20    22    23    1
    21    22    20    1
    22    19    18   ar
    23    18    17    1
    24    11    20   am
    25    11    12    1
    26    20    21    2
    27    17    12    1
    28    12    13    1
    29    15    13   am
    30    15    16    1
    31    13    14    2
