@<TRIPOS>MOLECULE
2f6w_UN3_A_1.pdb
 17 18 0 0 0
SMALL
GASTEIGER

@<TRIPOS>ATOM
      1  O3        41.4760   17.0280   12.0410 O.3   608  UN3608     -0.2688
      2  S1        42.4080   15.9130   12.3130 S.3   608  UN3608     -0.0105
      3  O1        43.8060   16.4030   12.3050 O.3   608  UN3608     -0.2688
      4  O2        42.4040   14.6600   11.5400 O.3   608  UN3608     -0.2688
      5  N3        42.7530   15.3800   13.6880 N.2   608  UN3608      0.0533
      6  C5        42.6990   14.3030   14.5250 C.2   608  UN3608      0.3516
      7  N2        43.4360   14.5310   15.6000 N.pl3 608  UN3608     -0.0739
      8  C4        44.2510   15.6900   16.0750 C.3   608  UN3608      0.2848
      9  N1        43.2860   13.3580   16.3330 N.2   608  UN3608     -0.0916
     10  C6        42.0810   13.0590   14.4690 C.3   608  UN3608      0.1707
     11  C3        42.4780   12.4930   15.6630 C.2   608  UN3608      0.1116
     12  C2        42.1690   11.1430   16.1960 C.ar  608  UN3608      0.0176
     13  C7        41.0380   10.3510   16.0130 C.ar  608  UN3608      0.0013
     14  C8        40.9690    9.0770   16.5900 C.ar  608  UN3608      0.0000
     15  C9        42.0680    8.6340   17.3240 C.ar  608  UN3608      0.0000
     16  C10       43.2260    9.4150   17.4810 C.ar  608  UN3608      0.0000
     17  C1        43.2810   10.6790   16.9030 C.ar  608  UN3608      0.0013
@<TRIPOS>BOND
     1     4     2    1
     2     1     2    1
     3     3     2    1
     4     2     5    1
     5     5     6    2
     6    10     6    1
     7    10    11    1
     8     6     7    1
     9     7     8    1
    10     7     9    1
    11    11    12    1
    12    11     9    2
    13    13    12   ar
    14    13    14   ar
    15    12    17   ar
    16    14    15   ar
    17    17    16   ar
    18    15    16   ar
