@<TRIPOS>MOLECULE
2f6y_ENT_A_1.pdb
 26 27 0 0 0
SMALL
GASTEIGER

@<TRIPOS>ATOM
      1  O6        41.4250   16.9190   11.7600 O.3   608  ENT608     -0.2891
      2  S1        42.5050   15.9160   12.1170 S.3   608  ENT608     -0.1124
      3  O4        42.5170   14.6270   11.3730 O.3   608  ENT608     -0.2891
      4  O5        43.8120   16.5170   12.5160 O.3   608  ENT608     -0.2891
      5  N1        41.8880   15.4410   13.5230 N.pl3 608  ENT608     -0.1365
      6  C5        42.3520   14.5050   14.3850 C.ar  608  ENT608      0.0872
      7  C4        42.0870   13.1430   14.1930 C.ar  608  ENT608      0.0176
      8  C1        42.5380   12.1660   15.0810 C.ar  608  ENT608     -0.0031
      9  C2        43.0640   14.9680   15.4820 C.ar  608  ENT608      0.0150
     10  C6        43.4920   13.9900   16.3750 C.ar  608  ENT608     -0.0048
     11  C8        44.2340   14.5300   17.5840 C.3   608  ENT608      0.1236
     12  N2        44.4160   13.5130   18.6340 N.am  608  ENT608     -0.2348
     13  C9        43.7290   12.2120   18.5550 C.3   608  ENT608      0.1610
     14  C10       42.3130   12.2070   19.0800 C.2   608  ENT608      0.2600
     15  O3        41.6230   11.2630   18.7450 O.2   608  ENT608     -0.2715
     16  N3        41.8030   13.1670   19.8680 N.am  608  ENT608     -0.2021
     17  C16       40.4530   13.2550   20.4200 C.3   608  ENT608      0.1386
     18  C7        43.7490   11.5850   17.1630 C.3   608  ENT608      0.0554
     19  C3        43.2520   12.6210   16.1830 C.ar  608  ENT608     -0.0223
     20  C11       45.2240   13.7050   19.6880 C.2   608  ENT608      0.4052
     21  O1        45.8570   14.7510   19.8550 O.2   608  ENT608     -0.2262
     22  O2        45.3810   12.6060   20.6450 O.3   608  ENT608     -0.4418
     23  C12       46.7450   12.3330   21.0090 C.3   608  ENT608      0.1378
     24  C15       47.3790   11.1610   20.2910 C.3   608  ENT608      0.0437
     25  C14       47.7320   13.4740   20.7860 C.3   608  ENT608      0.0437
     26  C13       46.8190   11.9150   22.4610 C.3   608  ENT608      0.0437
@<TRIPOS>BOND
     1     3     2    1
     2     1     2    1
     3     2     4    1
     4     2     5    1
     5     5     6    1
     6     7     6   ar
     7     7     8   ar
     8     6     9   ar
     9     8    19   ar
    10     9    10   ar
    11    19    10   ar
    12    19    18    1
    13    10    11    1
    14    18    13    1
    15    11    12    1
    16    13    12    1
    17    13    14    1
    18    12    20   am
    19    15    14    2
    20    14    16   am
    21    20    21    2
    22    20    22    1
    23    16    17    1
    24    24    23    1
    25    22    23    1
    26    25    23    1
    27    23    26    1
