@<TRIPOS>MOLECULE
2f6z_UN5_A_1.pdb
 34 36 0 0 0
SMALL
GASTEIGER

@<TRIPOS>ATOM
      1  O8        42.1340   12.7070   19.3600 O.2   608  UN5608     -0.2715
      2  C9        41.6850   11.8470   18.6070 C.2   608  UN5608      0.2599
      3  N4        40.3630   11.7330   18.5270 N.am  608  UN5608     -0.2021
      4  C20       39.5740   12.5390   19.4440 C.3   608  UN5608      0.1386
      5  C8        42.5750   10.9990   17.7340 C.3   608  UN5608      0.1581
      6  N2        41.7810   10.4200   16.6450 N.am  608  UN5608     -0.2685
      7  C11       41.4220   11.1840   15.4460 C.3   608  UN5608      0.1203
      8  C6        42.1220   12.5330   15.3730 C.ar  608  UN5608     -0.0049
      9  C2        41.5980   13.4880   14.4970 C.ar  608  UN5608      0.0150
     10  C5        42.1780   14.7620   14.3900 C.ar  608  UN5608      0.0872
     11  N1        41.6450   15.6930   13.5530 N.pl3 608  UN5608     -0.1365
     12  S1        42.2500   15.9450   12.0670 S.3   608  UN5608     -0.1124
     13  O3        41.3270   16.9030   11.4450 O.3   608  UN5608     -0.2891
     14  O2        43.6240   16.3930   12.2180 O.3   608  UN5608     -0.2891
     15  O1        42.2530   14.6100   11.4220 O.3   608  UN5608     -0.2891
     16  C4        43.2600   15.0460   15.2200 C.ar  608  UN5608      0.0176
     17  C3        43.2070   12.8430   16.1720 C.ar  608  UN5608     -0.0223
     18  C7        43.7350   11.7880   17.1210 C.3   608  UN5608      0.0553
     19  C1        43.7940   14.1040   16.0960 C.ar  608  UN5608     -0.0031
     20  C10       41.3780    9.1580   16.7880 C.2   608  UN5608      0.2265
     21  O4        41.6760    8.4940   17.7750 O.2   608  UN5608     -0.2748
     22  C12       40.5310    8.5820   15.6790 C.3   608  UN5608      0.0900
     23  C13       40.0970    7.1420   15.9500 C.3   608  UN5608      0.0360
     24  C14       39.0860    6.7490   14.8920 C.ar  608  UN5608     -0.0204
     25  C16       39.5100    6.0780   13.7460 C.ar  608  UN5608     -0.0042
     26  C19       38.5880    5.7110   12.7610 C.ar  608  UN5608      0.0011
     27  C15       37.2410    6.0330   12.9180 C.ar  608  UN5608      0.0179
     28  C18       36.8210    6.7180   14.0610 C.ar  608  UN5608      0.0871
     29  C17       37.7440    7.0840   15.0360 C.ar  608  UN5608      0.0137
     30  N3        35.5350    7.0730   14.2770 N.pl3 608  UN5608     -0.1365
     31  S2        34.4960    7.6230   13.1840 S.3   608  UN5608     -0.1124
     32  O5        33.9520    6.4720   12.4250 O.3   608  UN5608     -0.2891
     33  O6        35.1430    8.5670   12.2350 O.3   608  UN5608     -0.2891
     34  O7        33.4560    8.3920   13.9150 O.3   608  UN5608     -0.2891
@<TRIPOS>BOND
     1    15    12    1
     2    13    12    1
     3    12    14    1
     4    12    11    1
     5    33    31    1
     6    32    31    1
     7    26    27   ar
     8    26    25   ar
     9    27    28   ar
    10    31    34    1
    11    31    30    1
    12    11    10    1
    13    25    24   ar
    14    28    30    1
    15    28    29   ar
    16    10     9   ar
    17    10    16   ar
    18     9     8   ar
    19    24    29   ar
    20    24    23    1
    21    16    19   ar
    22     8     7    1
    23     8    17   ar
    24     7     6    1
    25    22    23    1
    26    22    20    1
    27    19    17   ar
    28    17    18    1
    29     6    20   am
    30     6     5    1
    31    20    21    2
    32    18     5    1
    33     5     2    1
    34     3     2   am
    35     3     4    1
    36     2     1    2
