@<TRIPOS>MOLECULE
2f70_UN6_A_1.pdb
 28 29 0 0 0
SMALL
GASTEIGER

@<TRIPOS>ATOM
      1  O7       -20.7290   49.8970   49.0850 O.3   608  UN6608     -0.2891
      2  S1       -20.5930   49.3700   47.7150 S.3   608  UN6608     -0.1124
      3  O5       -21.6840   49.8030   46.8180 O.3   608  UN6608     -0.2891
      4  O6       -19.4170   50.0460   47.1420 O.3   608  UN6608     -0.2891
      5  N1       -20.4840   47.7680   47.6600 N.pl3 608  UN6608     -0.1365
      6  C5       -19.5450   47.0300   48.3060 C.ar  608  UN6608      0.0872
      7  C4       -19.2520   45.7920   47.7420 C.ar  608  UN6608      0.0179
      8  C1       -18.3110   44.9450   48.3160 C.ar  608  UN6608      0.0011
      9  C2       -18.9360   47.4710   49.4910 C.ar  608  UN6608      0.0154
     10  C6       -17.9910   46.6420   50.1150 C.ar  608  UN6608      0.0008
     11  C3       -17.7270   45.4190   49.5010 C.ar  608  UN6608     -0.0025
     12  C7       -17.3150   47.0880   51.4030 C.3   608  UN6608      0.1415
     13  N2       -15.8630   47.1960   51.2690 N.am  608  UN6608     -0.2005
     14  C8       -15.0080   46.2830   51.7430 C.2   608  UN6608      0.2420
     15  O1       -15.3940   45.2730   52.3370 O.2   608  UN6608     -0.2733
     16  C9       -13.5290   46.5180   51.4820 C.3   608  UN6608      0.0915
     17  C10      -13.0880   45.5270   50.3780 C.3   608  UN6608      0.0360
     18  C11      -11.5900   45.7680   50.2520 C.ar  608  UN6608     -0.0204
     19  C14      -11.0980   46.7000   49.3410 C.ar  608  UN6608      0.0137
     20  C15       -9.7350   46.9760   49.2220 C.ar  608  UN6608      0.0871
     21  N3        -9.2960   47.9050   48.3250 N.pl3 608  UN6608     -0.1365
     22  S2        -8.7890   47.6070   46.8320 S.3   608  UN6608     -0.1124
     23  O4       -10.0170   47.0390   46.2150 O.3   608  UN6608     -0.2891
     24  O3        -8.5110   48.9790   46.3740 O.3   608  UN6608     -0.2891
     25  O2        -7.6920   46.6320   46.9610 O.3   608  UN6608     -0.2891
     26  C12       -8.8510   46.3040   50.0680 C.ar  608  UN6608      0.0179
     27  C16       -9.3050   45.3730   50.9920 C.ar  608  UN6608      0.0011
     28  C13      -10.6770   45.1210   51.0820 C.ar  608  UN6608     -0.0042
@<TRIPOS>BOND
     1    23    22    1
     2    24    22    1
     3     3     2    1
     4    22    25    1
     5    22    21    1
     6     4     2    1
     7     5     2    1
     8     5     6    1
     9     2     1    1
    10     7     6   ar
    11     7     8   ar
    12     6     9   ar
    13     8    11   ar
    14    21    20    1
    15    20    19   ar
    16    20    26   ar
    17    19    18   ar
    18     9    10   ar
    19    11    10   ar
    20    26    27   ar
    21    10    12    1
    22    18    17    1
    23    18    28   ar
    24    17    16    1
    25    27    28   ar
    26    13    12    1
    27    13    14   am
    28    16    14    1
    29    14    15    2
