@<TRIPOS>MOLECULE
2f71_UN7_A_1.pdb
 32 34 0 0 0
SMALL
GASTEIGER

@<TRIPOS>ATOM
      1  O53       41.5150   16.9390   11.3980 O.3   608  UN7608     -0.2891
      2  S33       42.4310   15.9710   12.0000 S.3   608  UN7608     -0.1124
      3  O51       42.3620   14.6510   11.3360 O.3   608  UN7608     -0.2891
      4  O52       43.7990   16.4410   12.1400 O.3   608  UN7608     -0.2891
      5  N9        41.7570   15.7350   13.4570 N.pl3 608  UN7608     -0.1365
      6  C5        42.2810   14.8420   14.3530 C.ar  608  UN7608      0.0872
      7  C4        43.3590   15.1170   15.1920 C.ar  608  UN7608      0.0176
      8  C2        41.7350   13.5610   14.4090 C.ar  608  UN7608      0.0150
      9  C6        42.2260   12.5910   15.2790 C.ar  608  UN7608     -0.0049
     10  C3        43.2930   12.8630   16.0950 C.ar  608  UN7608     -0.0223
     11  C7        43.7810   11.7700   17.0300 C.3   608  UN7608      0.0553
     12  C1        43.8710   14.1370   16.0500 C.ar  608  UN7608     -0.0031
     13  C19       41.6110   11.2240   15.3350 C.3   608  UN7608      0.1203
     14  N15       41.8800   10.4400   16.5350 N.am  608  UN7608     -0.2685
     15  C13       42.6140   10.9920   17.6800 C.3   608  UN7608      0.1581
     16  C16       41.7320   11.8860   18.5090 C.2   608  UN7608      0.2599
     17  N27       40.4270   11.7160   18.4000 N.am  608  UN7608     -0.2021
     18  C28       39.4050   12.4840   19.0980 C.3   608  UN7608      0.1386
     19  O26       42.1830   12.7750   19.2110 O.2   608  UN7608     -0.2715
     20  C20       41.4280    9.1810   16.6110 C.2   608  UN7608      0.2265
     21  O21       41.6650    8.5230   17.6300 O.2   608  UN7608     -0.2748
     22  C22       40.6810    8.4600   15.5040 C.3   608  UN7608      0.0900
     23  C25       39.9190    7.1810   15.8530 C.3   608  UN7608      0.0359
     24  C35       39.0500    6.7600   14.6890 C.ar  608  UN7608     -0.0215
     25  C39       37.7340    7.1950   14.5210 C.ar  608  UN7608      0.0023
     26  C42       36.9790    6.8250   13.4060 C.ar  608  UN7608      0.0795
     27  C46       35.5620    7.2660   13.1680 C.2   608  UN7608      0.3877
     28  O49       35.2140    8.1330   12.3210 O.co2 608  UN7608     -0.2406
     29  O48       34.7390    6.6740   13.9090 O.co2 608  UN7608     -0.2406
     30  C38       37.5560    5.9870   12.4650 C.ar  608  UN7608      0.0066
     31  C41       38.8660    5.5500   12.6100 C.ar  608  UN7608     -0.0001
     32  C40       39.6130    5.9410   13.7190 C.ar  608  UN7608     -0.0042
@<TRIPOS>BOND
     1     3     2    1
     2     1     2    1
     3     2     4    1
     4     2     5    1
     5    28    27   ar
     6    30    31   ar
     7    30    26   ar
     8    31    32   ar
     9    27    26    1
    10    27    29   ar
    11    26    25   ar
    12     5     6    1
    13    32    24   ar
    14     6     8   ar
    15     6     7   ar
    16     8     9   ar
    17    25    24   ar
    18    24    23    1
    19     7    12   ar
    20     9    13    1
    21     9    10   ar
    22    13    14    1
    23    22    23    1
    24    22    20    1
    25    12    10   ar
    26    10    11    1
    27    14    20   am
    28    14    15    1
    29    20    21    2
    30    11    15    1
    31    15    16    1
    32    17    16   am
    33    17    18    1
    34    16    19    2
