@<TRIPOS>MOLECULE
2f7a_CCU_B_1.pdb
 14 13 0 0 0
SMALL
GASTEIGER

@<TRIPOS>ATOM
      1  C2        41.0000   37.8170  -16.5170 C.2   1001  CCU1001     0.0267
      2  C3        40.3640   38.3580  -17.6040 C.2   1001  CCU1001    -0.0547
      3  C4        41.0100   38.8740  -18.7920 C.2   1001  CCU1001    -0.0547
      4  C6        38.8840   39.4870  -19.9540 C.2   1001  CCU1001     0.3795
      5  O4        38.5370   40.5660  -20.4400 O.co2 1001  CCU1001    -0.2413
      6  O3        38.1540   38.7670  -19.5940 O.co2 1001  CCU1001    -0.2413
      7  C5        40.3880   39.3640  -19.8280 C.2   1001  CCU1001     0.0267
      8  C1        42.4450   37.6270  -16.2680 C.2   1001  CCU1001     0.3795
      9  O1        43.3970   37.8720  -17.1470 O.co2 1001  CCU1001    -0.2413
     10  O2        42.7080   37.2170  -15.1580 O.co2 1001  CCU1001    -0.2413
     11  H2        40.3470   37.4860  -15.7260 H     1001  CCU1001     0.0690
     12  H3        39.3220   38.3770  -17.5250 H     1001  CCU1001     0.0620
     13  H4        42.0500   38.8550  -18.8570 H     1001  CCU1001     0.0620
     14  H5        40.9780   39.7140  -20.6450 H     1001  CCU1001     0.0690
@<TRIPOS>BOND
     1    14     7    1
     2     5     4   ar
     3     4     7    1
     4     4     6   ar
     5     7     3    2
     6    13     3    1
     7     3     2    1
     8     2    12    1
     9     2     1    2
    10     9     8   ar
    11     1     8    1
    12     1    11    1
    13     8    10   ar
