@<TRIPOS>MOLECULE
2f7c_CCU_A_1.pdb
 10 9 0 0 0
SMALL
GASTEIGER

@<TRIPOS>ATOM
      1  C2        63.2030   21.4670   61.2170 C.2     2  CCU2        0.0861
      2  C3        62.8820   22.1680   62.3000 C.2     2  CCU2        0.0070
      3  C4        62.1560   21.6230   63.5430 C.2     2  CCU2        0.0070
      4  C6        61.8640   23.8290   64.6460 C.2     2  CCU2        0.3880
      5  O4        60.8900   24.4730   65.0410 O.co2   2  CCU2       -0.2405
      6  O3        62.8950   24.3510   64.3560 O.co2   2  CCU2       -0.2405
      7  C5        61.7310   22.3650   64.5580 C.2     2  CCU2        0.0861
      8  C1        62.9410   20.0110   60.9220 C.2     2  CCU2        0.3880
      9  O1        62.4700   19.1960   61.7640 O.co2   2  CCU2       -0.2405
     10  O2        63.2200   19.6470   59.8050 O.co2   2  CCU2       -0.2405
@<TRIPOS>BOND
     1    10     8   ar
     2     8     1    1
     3     8     9   ar
     4     1     2    2
     5     2     3    1
     6     3     7    2
     7     6     4   ar
     8     7     4    1
     9     4     5   ar
