@<TRIPOS>MOLECULE
2f7d_NOQ_A_1.pdb
 24 25 0 0 0
SMALL
GASTEIGER

@<TRIPOS>ATOM
      1  C2        -4.3200   24.0720    6.5940 C.ar  600  NOQ600      0.0382
      2  C3        -4.2560   25.3140    7.2470 C.ar  600  NOQ600      0.1388
      3  C4        -3.3790   26.3080    6.7750 C.ar  600  NOQ600      0.0382
      4  C5        -2.5790   26.0640    5.6750 C.ar  600  NOQ600      0.0215
      5  C6        -3.5180   23.8240    5.4910 C.ar  600  NOQ600      0.0215
      6  C7        -2.6490   24.8210    5.0290 C.ar  600  NOQ600      0.1059
      7  O1        -5.0910   25.5790    8.2180 O.3   600  NOQ600     -0.4714
      8  C11        1.6340   19.6070    5.8670 C.3   600  NOQ600      0.1637
      9  N10        1.8190   20.9480    5.3130 N.am  600  NOQ600     -0.1988
     10  C18        1.3700   22.0630    5.8830 C.2   600  NOQ600      0.2413
     11  O19        0.5830   22.0630    6.8260 O.2   600  NOQ600     -0.2733
     12  C12        1.9150   23.3960    5.2620 C.3   600  NOQ600      0.0799
     13  C16        2.8430   24.0860    6.2930 C.3   600  NOQ600      0.0092
     14  C17        3.3400   25.4160    5.7860 C.3   600  NOQ600      0.0005
     15  C15        2.2100   26.3430    5.3980 C.3   600  NOQ600      0.0001
     16  C14        1.2400   25.6870    4.4490 C.3   600  NOQ600      0.0022
     17  C13        0.7080   24.3190    4.9630 C.3   600  NOQ600      0.0327
     18  C30       -0.1890   23.7070    3.8600 C.3   600  NOQ600      0.1563
     19  S8        -1.7580   24.5710    3.5360 S.O2  600  NOQ600      0.0087
     20  O9        -2.6140   23.6750    2.5500 O.2   600  NOQ600     -0.1686
     21  O41       -1.4490   25.9750    2.8660 O.2   600  NOQ600     -0.1686
     22  C44       -5.1970   26.6920    8.9010 C.3   600  NOQ600      0.2525
     23  C20        2.8300   19.1400    6.6540 C.2   600  NOQ600      0.1193
     24  N21        3.0600   17.8930    6.7720 N.2   600  NOQ600     -0.1495
@<TRIPOS>BOND
     1    20    19    2
     2    21    19    2
     3    19    18    1
     4    19     6    1
     5    18    17    1
     6    16    17    1
     7    16    15    1
     8    17    12    1
     9     6     5   ar
    10     6     4   ar
    11    12    10    1
    12    12    13    1
    13     9     8    1
    14     9    10   am
    15    15    14    1
    16     5     1   ar
    17     4     3   ar
    18    14    13    1
    19     8    23    1
    20    10    11    2
    21     1     2   ar
    22    23    24    2
    23     3     2   ar
    24     2     7    1
    25     7    22    1
