@<TRIPOS>MOLECULE
2f7e_2EA_E_1.pdb
 30 34 0 0 0
SMALL
GASTEIGER

@<TRIPOS>ATOM
      1  C1         7.1940    9.8740    1.4010 C.ar  351  2EA351      0.0016
      2  C2         7.1390   10.0700    2.8160 C.ar  351  2EA351      0.0001
      3  C3         5.8710   10.0630    3.4880 C.ar  351  2EA351      0.0030
      4  C4         4.6410    9.8600    2.7450 C.ar  351  2EA351      0.0192
      5  C5         4.6990    9.6670    1.3390 C.ar  351  2EA351      0.0015
      6  C6         5.9660    9.6760    0.6850 C.ar  351  2EA351      0.0001
      7  C7         5.8080   10.2560    4.8940 C.ar  351  2EA351      0.0207
      8  C8         4.5270   10.2380    5.5000 C.ar  351  2EA351      0.0989
      9  N1         3.3720   10.0440    4.7870 N.ar  351  2EA351     -0.2423
     10  C9         3.3960    9.8550    3.4280 C.ar  351  2EA351      0.0988
     11  C10       12.8970   13.7010    0.3450 C.2   351  2EA351     -0.0199
     12  C11       13.7820   12.9750   -0.5090 C.2   351  2EA351      0.0148
     13  C12       14.3270   11.7740   -0.0610 C.2   351  2EA351      0.0804
     14  C13       14.0340   11.2410    1.2190 C.2   351  2EA351      0.0113
     15  C14       13.1270   11.9790    2.1040 C.2   351  2EA351     -0.0202
     16  C15       12.5690   13.2070    1.6480 C.3   351  2EA351      0.0521
     17  N2        15.1980   10.9050   -0.7010 N.2   351  2EA351     -0.2442
     18  C16       15.4590    9.8460    0.1300 C.2   351  2EA351      0.0946
     19  C17       14.7620   10.0150    1.3200 C.2   351  2EA351     -0.0003
     20  C18       10.9270    9.9030   -0.7610 C.ar  351  2EA351      0.1356
     21  N3         9.8270   10.5090   -1.2770 N.ar  351  2EA351     -0.2391
     22  C19        8.6530   10.4970   -0.5890 C.ar  351  2EA351      0.0991
     23  C20        8.5120    9.8700    0.6690 C.ar  351  2EA351      0.0222
     24  C21        9.6680    9.2370    1.2000 C.ar  351  2EA351      0.0401
     25  C22       10.9040    9.2440    0.4890 C.ar  351  2EA351      0.1577
     26  O1        12.1110    8.6530    0.8970 O.3   351  2EA351     -0.4723
     27  C24       12.2990    8.2130    2.2420 C.3   351  2EA351      0.2246
     28  C23       13.8010    7.8520    2.3940 C.3   351  2EA351      0.1397
     29  C25       14.7550    9.0790    2.5210 C.3   351  2EA351      0.0508
     30  N4        14.1940    7.0140    1.2520 N.3   351  2EA351     -0.1286
@<TRIPOS>BOND
     1    21    20   ar
     2    21    22   ar
     3    20    25   ar
     4    17    13    2
     5    17    18    1
     6    22    23   ar
     7    12    13    1
     8    12    11    2
     9    13    14    1
    10    18    19    2
    11    11    16    1
    12    25    26    1
    13    25    24   ar
    14    23    24   ar
    15    23     1    1
    16     6     5   ar
    17     6     1   ar
    18    26    27    1
    19    14    19    1
    20    14    15    2
    21    30    28    1
    22    19    29    1
    23     5     4   ar
    24     1     2   ar
    25    16    15    1
    26    27    28    1
    27    28    29    1
    28     4    10   ar
    29     4     3   ar
    30     2     3   ar
    31    10     9   ar
    32     3     7   ar
    33     9     8   ar
    34     7     8   ar
