@<TRIPOS>MOLECULE
2f7i_26C_A_1.pdb
 17 18 0 0 0
SMALL
GASTEIGER

@<TRIPOS>ATOM
      1  O17       20.4220   85.0780    2.8760 O.co2 326  26C326     -0.2406
      2  C15       21.6240   85.0640    3.5660 C.2   326  26C326      0.3878
      3  O16       22.7080   85.0450    2.9480 O.co2 326  26C326     -0.2406
      4  C6        21.6130   85.0710    5.0640 C.ar  326  26C326      0.0798
      5  C1        22.7060   85.6390    5.7720 C.ar  326  26C326      0.0066
      6  C5        20.5200   84.5140    5.7690 C.ar  326  26C326      0.0066
      7  C4        20.5170   84.5260    7.1510 C.ar  326  26C326      0.0004
      8  C3        21.6100   85.0960    7.8780 C.ar  326  26C326      0.0043
      9  C2        22.7070   85.6520    7.1530 C.ar  326  26C326      0.0004
     10  C7        21.6100   85.1090    9.2680 C.ar  326  26C326      0.0549
     11  C12       21.5470   83.8980   10.0270 C.ar  326  26C326      0.1422
     12  F2        21.5570   82.6660    9.4440 F     326  26C326     -0.2041
     13  C11       21.5450   83.9230   11.4080 C.ar  326  26C326      0.0298
     14  C10       21.6040   85.1340   12.0710 C.ar  326  26C326      0.0046
     15  C9        21.6640   86.3310   11.3620 C.ar  326  26C326      0.0298
     16  C8        21.6670   86.3330    9.9810 C.ar  326  26C326      0.1422
     17  F1        21.6610   87.5540    9.3510 F     326  26C326     -0.2041
@<TRIPOS>BOND
     1     1     2   ar
     2     3     2   ar
     3     2     4    1
     4     4     6   ar
     5     4     5   ar
     6     6     7   ar
     7     5     9   ar
     8     7     8   ar
     9     9     8   ar
    10     8    10    1
    11    10    16   ar
    12    10    11   ar
    13    17    16    1
    14    12    11    1
    15    16    15   ar
    16    11    13   ar
    17    15    14   ar
    18    13    14   ar
