@<TRIPOS>MOLECULE
2f7o_MSN_A_1.pdb
 11 11 0 0 0
SMALL
GASTEIGER

@<TRIPOS>ATOM
      1  C5        31.3190   65.8770    9.4500 C.3   5002  MSN5002     0.1371
      2  N5        31.1480   64.5080    9.9440 N.3   5002  MSN5002    -0.1291
      3  C4        32.8010   66.1880    9.5120 C.3   5002  MSN5002     0.2030
      4  O4        33.6220   65.0880    9.9130 O.3   5002  MSN5002    -0.2187
      5  C3        33.0740   66.7150    8.0990 C.3   5002  MSN5002     0.2146
      6  O3        33.8360   65.8240    7.2910 O.3   5002  MSN5002    -0.2176
      7  C2        31.7990   67.0490    7.3310 C.3   5002  MSN5002     0.1960
      8  O2        31.7660   67.2890    5.9230 O.3   5002  MSN5002    -0.2194
      9  C1        30.9360   65.9490    7.9790 C.3   5002  MSN5002     0.1008
     10  S6        29.2320   66.5180    8.0170 S.3   5002  MSN5002    -0.1360
     11  C7        28.4200   65.3730    9.1430 C.3   5002  MSN5002     0.0693
@<TRIPOS>BOND
     1     8     7    1
     2     6     5    1
     3     7     9    1
     4     7     5    1
     5     9    10    1
     6     9     1    1
     7    10    11    1
     8     5     3    1
     9     1     3    1
    10     1     2    1
    11     3     4    1
