@<TRIPOS>MOLECULE
2f7p_2SK_A_1.pdb
 18 19 0 0 0
SMALL
GASTEIGER

@<TRIPOS>ATOM
      1  C5        31.3020   66.1950    9.0630 C.3   5009  2SK5009     0.1185
      2  N5        31.1040   64.8680    9.6610 N.3   5009  2SK5009    -0.2111
      3  C4        32.7860   66.5780    9.0790 C.3   5009  2SK5009     0.2014
      4  O4        33.6320   65.5030    9.5100 O.3   5009  2SK5009    -0.2188
      5  C3        33.1520   67.0770    7.6940 C.3   5009  2SK5009     0.2145
      6  O3        33.7860   66.0820    6.9070 O.3   5009  2SK5009    -0.2176
      7  C2        31.7850   67.3730    7.0690 C.3   5009  2SK5009     0.1960
      8  O2        31.7250   67.5970    5.6690 O.3   5009  2SK5009    -0.2194
      9  C1        30.9320   66.2310    7.5900 C.3   5009  2SK5009     0.0992
     10  S6        29.1720   66.3690    7.3850 S.3   5009  2SK5009    -0.1360
     11  C7        28.5300   68.0320    7.6240 C.3   5009  2SK5009     0.0693
     12  C8        29.7680   64.2680    9.7680 C.3   5009  2SK5009     0.1150
     13  C9        28.9780   64.5820   11.0560 C.ar  5009  2SK5009    -0.0048
     14  C14       28.2240   65.7460   11.0990 C.ar  5009  2SK5009    -0.0029
     15  C13       27.5150   66.0230   12.2820 C.ar  5009  2SK5009    -0.0003
     16  C10       29.0130   63.7240   12.1650 C.ar  5009  2SK5009    -0.0029
     17  C11       28.3120   64.0040   13.3530 C.ar  5009  2SK5009    -0.0003
     18  C12       27.5400   65.1880   13.4060 C.ar  5009  2SK5009    -0.0000
@<TRIPOS>BOND
     1     8     7    1
     2     6     5    1
     3     7     9    1
     4     7     5    1
     5    10     9    1
     6    10    11    1
     7     9     1    1
     8     5     3    1
     9     1     3    1
    10     1     2    1
    11     3     4    1
    12     2    12    1
    13    12    13    1
    14    13    14   ar
    15    13    16   ar
    16    14    15   ar
    17    16    17   ar
    18    15    18   ar
    19    17    18   ar
