@<TRIPOS>MOLECULE
2f7q_AOL_A_1.pdb
 10 10 0 0 0
SMALL
GASTEIGER

@<TRIPOS>ATOM
      1  O4        33.3420   65.1970    9.4890 O.3   5009  AOL5009    -0.2187
      2  C4        32.7070   66.3840    9.0440 C.3   5009  AOL5009     0.2048
      3  C3        32.9590   66.8630    7.6050 C.3   5009  AOL5009     0.2163
      4  O3        33.6910   65.8680    6.9130 O.3   5009  AOL5009    -0.2175
      5  C2        31.5970   67.2940    7.0600 C.3   5009  AOL5009     0.2163
      6  O2        31.5540   67.4700    5.6640 O.3   5009  AOL5009    -0.2175
      7  C1        30.6800   66.2180    7.6450 C.3   5009  AOL5009     0.2048
      8  O1        30.6060   65.0350    6.8680 O.3   5009  AOL5009    -0.2187
      9  C5        31.2020   66.1070    9.0790 C.3   5009  AOL5009     0.1576
     10  N5        30.7560   64.7610    9.4680 N.3   5009  AOL5009    -0.1273
@<TRIPOS>BOND
     1     6     5    1
     2     8     7    1
     3     4     3    1
     4     5     3    1
     5     5     7    1
     6     3     2    1
     7     7     9    1
     8     2     9    1
     9     2     1    1
    10     9    10    1
