@<TRIPOS>MOLECULE
2f7r_SK3_A_1.pdb
 17 18 0 0 0
SMALL
GASTEIGER

@<TRIPOS>ATOM
      1  C5        31.1660   66.0880    9.3840 C.3   5009  SK35009     0.1390
      2  N5        30.7410   64.9140   10.1680 N.3   5009  SK35009    -0.2093
      3  C4        32.6890   66.2100    9.2730 C.3   5009  SK35009     0.2032
      4  O4        33.3630   65.0010    9.5860 O.3   5009  SK35009    -0.2187
      5  C3        32.9940   66.6320    7.8250 C.3   5009  SK35009     0.2163
      6  O3        33.6270   65.6100    7.0610 O.3   5009  SK35009    -0.2175
      7  C2        31.6070   66.9820    7.2930 C.3   5009  SK35009     0.2163
      8  O2        31.4810   67.0820    5.8940 O.3   5009  SK35009    -0.2175
      9  C1        30.6080   66.0520    7.9710 C.3   5009  SK35009     0.2032
     10  O1        30.5290   64.7760    7.3920 O.3   5009  SK35009    -0.2187
     11  C6        29.3570   65.0710   10.6230 C.3   5009  SK35009     0.1151
     12  C7        28.7790   63.9150   11.4650 C.ar  5009  SK35009    -0.0048
     13  C12       28.8370   64.0190   12.8490 C.ar  5009  SK35009    -0.0029
     14  C11       28.3020   62.8980   13.4950 C.ar  5009  SK35009    -0.0003
     15  C8        28.3100   62.9210   10.5900 C.ar  5009  SK35009    -0.0029
     16  C9        27.7920   61.8130   11.3060 C.ar  5009  SK35009    -0.0003
     17  C10       27.8110   61.8540   12.7060 C.ar  5009  SK35009    -0.0000
@<TRIPOS>BOND
     1     8     7    1
     2     6     5    1
     3     7     5    1
     4     7     9    1
     5    10     9    1
     6     5     3    1
     7     9     1    1
     8     3     1    1
     9     3     4    1
    10     1     2    1
    11     2    11    1
    12    15    16   ar
    13    15    12   ar
    14    11    12    1
    15    16    17   ar
    16    12    13   ar
    17    17    14   ar
    18    13    14   ar
