@<TRIPOS>MOLECULE
2f7s_GDP_A_1.pdb
 28 30 0 0 0
SMALL
GASTEIGER

@<TRIPOS>ATOM
      1  PB        19.5970   -0.2310  -23.9120 P.3   601  GDP601      0.5373
      2  O1B       20.8540    0.4400  -23.4110 O.3   601  GDP601     -0.1143
      3  O2B       18.4030    0.4850  -23.3260 O.3   601  GDP601     -0.1143
      4  O3B       19.5480   -0.2520  -25.4320 O.2   601  GDP601     -0.2221
      5  O3A       19.4820   -1.7360  -23.4210 O.3   601  GDP601     -0.2261
      6  PA        20.1160   -2.9130  -24.2940 P.3   601  GDP601      0.2231
      7  O1A       19.0640   -3.4430  -25.2140 O.2   601  GDP601     -0.5169
      8  O2A       21.3830   -2.5520  -24.9980 O.3   601  GDP601     -0.4370
      9  O5'       20.3870   -3.9980  -23.1410 O.3   601  GDP601     -0.3111
     10  C5'       21.5240   -3.9730  -22.2770 C.3   601  GDP601      0.1813
     11  C4'       21.7770   -5.4200  -21.8670 C.3   601  GDP601      0.1799
     12  O4'       20.6460   -5.9200  -21.1480 O.3   601  GDP601     -0.3326
     13  C3'       21.9250   -6.3210  -23.0920 C.3   601  GDP601      0.2158
     14  O3'       23.0400   -7.1990  -22.9350 O.3   601  GDP601     -0.2175
     15  C2'       20.6080   -7.0750  -23.1780 C.3   601  GDP601      0.2310
     16  O2'       20.6910   -8.4090  -23.6550 O.3   601  GDP601     -0.2158
     17  C1'       20.1510   -7.1230  -21.7480 C.3   601  GDP601      0.2293
     18  N9        18.6740   -7.1760  -21.7360 N.pl3 601  GDP601     -0.2354
     19  C8        17.8380   -6.3880  -22.4410 C.3   601  GDP601      0.2246
     20  N7        16.5460   -6.7080  -22.1960 N.2   601  GDP601     -0.2322
     21  C5        16.5490   -7.7170  -21.3140 C.2   601  GDP601      0.2182
     22  C6        15.5110   -8.5270  -20.6380 C.1   601  GDP601      0.2372
     23  O6        14.2860   -8.3230  -20.8390 O.2   601  GDP601     -0.2069
     24  N1        15.9430   -9.4860  -19.8100 N.2   601  GDP601     -0.2485
     25  C2        17.2470   -9.7330  -19.5850 C.1   601  GDP601      0.2531
     26  N2        17.5620  -10.7200  -18.7200 N.pl3 601  GDP601     -0.0226
     27  N3        18.2550   -9.0370  -20.1650 N.2   601  GDP601     -0.3074
     28  C4        17.9550   -8.0310  -21.0200 C.2   601  GDP601      0.2300
@<TRIPOS>BOND
     1     4     1    2
     2     7     6    2
     3     8     6    1
     4     6     5    1
     5     6     9    1
     6     1     5    1
     7     1     2    1
     8     1     3    1
     9    16    15    1
    10    15    13    1
    11    15    17    1
    12     9    10    1
    13    13    14    1
    14    13    11    1
    15    19    20    1
    16    19    18    1
    17    10    11    1
    18    20    21    2
    19    11    12    1
    20    17    18    1
    21    17    12    1
    22    18    28    1
    23    21    28    1
    24    21    22    1
    25    28    27    2
    26    23    22    2
    27    22    24    2
    28    27    25    2
    29    24    25    2
    30    25    26    1
