@<TRIPOS>MOLECULE
2f7x_4EA_E_1.pdb
 28 31 0 0 0
SMALL
GASTEIGER

@<TRIPOS>ATOM
      1  C1         7.5250    9.8420    1.3590 C.2   351  4EA351      0.0016
      2  C2         7.2070    9.9320    2.6770 C.2   351  4EA351      0.0001
      3  C3         5.8370    9.8700    3.2310 C.ar  351  4EA351      0.0031
      4  C4         4.6730    9.7030    2.4200 C.ar  351  4EA351      0.0207
      5  C7         5.6800    9.9780    4.6300 C.ar  351  4EA351      0.0207
      6  C8         4.3860    9.9180    5.1710 C.ar  351  4EA351      0.0989
      7  N1         3.2690    9.7600    4.4090 N.ar  351  4EA351     -0.2423
      8  C9         3.4180    9.6540    3.0590 C.ar  351  4EA351      0.0989
      9  C10       13.9520   13.3190   -1.2940 C.2   351  4EA351     -0.0199
     10  C11       14.8480   12.2120   -1.3840 C.2   351  4EA351      0.0148
     11  C12       15.1890   11.5060   -0.2300 C.2   351  4EA351      0.0804
     12  C13       14.6670   11.8550    1.0420 C.2   351  4EA351      0.0113
     13  C14       13.7430   12.9880    1.1470 C.2   351  4EA351     -0.0202
     14  C15       13.3990   13.7110   -0.0360 C.3   351  4EA351      0.0521
     15  N2        16.0390   10.4000   -0.0690 N.2   351  4EA351     -0.2442
     16  C16       16.0530   10.0590    1.2680 C.2   351  4EA351      0.0946
     17  C17       15.2200   10.9280    1.9780 C.2   351  4EA351     -0.0003
     18  C18       11.4690   10.0210   -0.2340 C.ar  351  4EA351      0.1356
     19  N3        10.3930   10.1350   -1.0680 N.ar  351  4EA351     -0.2391
     20  C19        9.1410   10.0730   -0.5330 C.ar  351  4EA351      0.0991
     21  C20        8.9060    9.9010    0.8480 C.ar  351  4EA351      0.0222
     22  C21       10.0310    9.7850    1.6960 C.ar  351  4EA351      0.0401
     23  C22       11.3460    9.8440    1.1620 C.ar  351  4EA351      0.1577
     24  O1        12.5110    9.7350    1.9070 O.3   351  4EA351     -0.4723
     25  C24       12.4680   10.0180    3.3140 C.3   351  4EA351      0.2246
     26  C23       13.8700    9.8290    3.9160 C.3   351  4EA351      0.1397
     27  C25       14.9240   10.9090    3.4660 C.3   351  4EA351      0.0508
     28  N4        14.3160    8.4600    3.5960 N.3   351  4EA351     -0.1286
@<TRIPOS>BOND
     1    10     9    2
     2    10    11    1
     3     9    14    1
     4    19    20   ar
     5    19    18   ar
     6    20    21   ar
     7    18    23   ar
     8    11    15    2
     9    11    12    1
    10    15    16    1
    11    14    13    1
    12    21     1    1
    13    21    22   ar
    14    12    13    2
    15    12    17    1
    16    23    22   ar
    17    23    24    1
    18    16    17    2
    19     1     2    2
    20    24    25    1
    21    17    27    1
    22     4     8   ar
    23     4     3   ar
    24     2     3    1
    25     8     7   ar
    26     3     5   ar
    27    25    26    1
    28    27    26    1
    29    28    26    1
    30     7     6   ar
    31     5     6   ar
