@<TRIPOS>MOLECULE
2f7z_6EA_E_1.pdb
 30 34 0 0 0
SMALL
GASTEIGER

@<TRIPOS>ATOM
      1  N1         2.9020   10.0600    4.3680 N.ar  1000  6EA1000    -0.2423
      2  C2         3.2310   10.1650    3.0480 C.ar  1000  6EA1000     0.0990
      3  C3         4.5410   10.0110    2.5760 C.ar  1000  6EA1000     0.0232
      4  C4         5.5800    9.7300    3.4830 C.ar  1000  6EA1000     0.0327
      5  C5         5.2410    9.6190    4.8480 C.ar  1000  6EA1000     0.0232
      6  C6         3.9020    9.7920    5.2450 C.ar  1000  6EA1000     0.0990
      7  C11        6.9720    9.5540    2.9540 C.2   1000  6EA1000     0.1311
      8  C12        8.0960    9.2490    3.7440 C.2   1000  6EA1000     0.0322
      9  C13        9.3610    9.0880    3.1270 C.2   1000  6EA1000     0.0080
     10  C14        9.5170    9.2370    1.7100 C.2   1000  6EA1000     0.0630
     11  C15        8.3610    9.5600    0.9160 C.2   1000  6EA1000     0.1364
     12  N16        7.1440    9.7000    1.5700 N.2   1000  6EA1000    -0.4041
     13  C19       10.7930    9.0620    1.0890 C.2   1000  6EA1000     0.1593
     14  C20       10.8320    9.2390   -0.3310 C.2   1000  6EA1000     0.1305
     15  N21        9.7400    9.5540   -1.0860 N.2   1000  6EA1000    -0.2581
     16  C22        8.5110    9.7130   -0.4950 C.3   1000  6EA1000     0.1841
     17  O25       11.8800    8.7240    1.9190 O.2   1000  6EA1000    -0.4723
     18  C26       13.1430    8.5150    1.3510 C.3   1000  6EA1000     0.2246
     19  C27       14.0390    8.1900    2.5350 C.3   1000  6EA1000     0.1397
     20  N30       14.9040    7.0930    2.1470 N.3   1000  6EA1000    -0.1286
     21  C31       14.9100    9.3740    3.0400 C.3   1000  6EA1000     0.0508
     22  C33       15.5050   10.3030    1.9940 C.2   1000  6EA1000    -0.0003
     23  C36       16.7680   10.1490    1.4520 C.2   1000  6EA1000     0.0946
     24  N37       17.0050   11.1430    0.5400 N.2   1000  6EA1000    -0.2442
     25  C38       15.8950   11.9620    0.4760 C.2   1000  6EA1000     0.0804
     26  C39       14.9200   11.4650    1.3800 C.2   1000  6EA1000     0.0113
     27  C43       15.6910   13.0930   -0.3150 C.2   1000  6EA1000     0.0148
     28  C44       14.4550   13.7860   -0.2210 C.2   1000  6EA1000    -0.0199
     29  C45       13.4350   13.3330    0.6720 C.3   1000  6EA1000     0.0521
     30  C46       13.6480   12.1790    1.4800 C.2   1000  6EA1000    -0.0202
@<TRIPOS>BOND
     1    15    16    1
     2    15    14    2
     3    16    11    1
     4    14    13    1
     5    27    28    2
     6    27    25    1
     7    28    29    1
     8    25    24    2
     9    25    26    1
    10    24    23    1
    11    29    30    1
    12    11    12    2
    13    11    10    1
    14    13    10    2
    15    13    17    1
    16    18    17    1
    17    18    19    1
    18    26    30    2
    19    26    22    1
    20    23    22    2
    21    12     7    2
    22    10     9    1
    23    22    21    1
    24    20    19    1
    25    19    21    1
    26     3     2   ar
    27     3     4   ar
    28     7     4    1
    29     7     8    1
    30     2     1   ar
    31     9     8    2
    32     4     5   ar
    33     1     6   ar
    34     5     6   ar
