@<TRIPOS>MOLECULE
2f80_017_B_1.pdb
 38 41 0 0 0
SMALL
GASTEIGER

@<TRIPOS>ATOM
      1  N1        21.1430   28.7980   14.0100 N.pl3 301  017301     -0.1281
      2  C2        20.5620   27.6460   14.4460 C.ar  301  017301      0.0892
      3  C3        19.2200   27.4510   14.1280 C.ar  301  017301      0.0194
      4  C4        18.5750   26.2900   14.5490 C.ar  301  017301      0.0213
      5  C5        19.3070   25.3530   15.2830 C.ar  301  017301      0.1223
      6  C6        20.6580   25.5150   15.6220 C.ar  301  017301      0.0213
      7  C7        21.2920   26.6990   15.1850 C.ar  301  017301      0.0194
      8  S8        18.4080   23.8460   15.8120 S.O2  301  017301      0.0634
      9  O9        17.2190   23.5220   14.8850 O.2   301  017301     -0.1528
     10  O10       19.4760   22.6930   15.9630 O.2   301  017301     -0.1528
     11  N11       17.8200   24.1710   17.4900 N.3   301  017301     -0.1529
     12  C12       18.8420   24.5720   18.5060 C.3   301  017301      0.0958
     13  C13       18.5320   23.9580   19.8970 C.3   301  017301      0.0178
     14  C14       18.3170   22.4680   19.6970 C.3   301  017301      0.0015
     15  C15       19.7340   24.2060   20.8030 C.3   301  017301      0.0015
     16  C16       16.5610   25.0320   17.5180 C.3   301  017301      0.1304
     17  C17       15.4090   24.0820   18.0090 C.3   301  017301      0.1898
     18  O18       14.2840   24.8750   18.3430 O.3   301  017301     -0.2197
     19  C19       15.0610   22.9430   17.0100 C.3   301  017301      0.1347
     20  N20       14.1470   22.0380   17.6660 N.am  301  017301     -0.1675
     21  C21       14.4610   20.7880   18.0620 C.2   301  017301      0.4211
     22  O22       15.5720   20.2090   17.7850 O.2   301  017301     -0.2246
     23  O23       13.4090   20.1960   18.8200 O.3   301  017301     -0.4345
     24  C24       13.5140   18.7410   19.0150 C.3   301  017301      0.2048
     25  C25       12.8390   18.3920   20.3620 C.3   301  017301      0.1884
     26  O26       11.4100   18.6260   20.1590 O.3   301  017301     -0.3265
     27  C27       11.1950   18.2080   18.8220 C.3   301  017301      0.2388
     28  O28       10.2770   19.0030   18.0950 O.3   301  017301     -0.3304
     29  C29       11.1260   19.5880   17.0830 C.3   301  017301      0.1451
     30  C30       12.2140   18.5700   16.7260 C.3   301  017301      0.0409
     31  C31       12.4780   18.0440   18.1150 C.3   301  017301      0.1016
     32  C32       14.3430   23.3390   15.6960 C.3   301  017301      0.0508
     33  C33       12.5470   21.8390   14.6860 C.ar  301  017301     -0.0042
     34  C34       12.1480   20.7570   13.8910 C.ar  301  017301     -0.0003
     35  C35       13.1250   19.9890   13.2360 C.ar  301  017301     -0.0000
     36  C36       14.4820   20.3080   13.3800 C.ar  301  017301     -0.0003
     37  C37       14.8810   21.3940   14.1770 C.ar  301  017301     -0.0042
     38  C38       13.9040   22.1590   14.8300 C.ar  301  017301     -0.0204
@<TRIPOS>BOND
     1    35    36   ar
     2    35    34   ar
     3    36    37   ar
     4    34    33   ar
     5     1     2    1
     6     3     2   ar
     7     3     4   ar
     8    37    38   ar
     9     2     7   ar
    10     4     5   ar
    11    33    38   ar
    12    38    32    1
    13     9     8    2
    14     7     6   ar
    15     5     6   ar
    16     5     8    1
    17    32    19    1
    18     8    10    2
    19     8    11    1
    20    30    29    1
    21    30    31    1
    22    19    20    1
    23    19    17    1
    24    29    28    1
    25    11    16    1
    26    11    12    1
    27    16    17    1
    28    20    21   am
    29    22    21    2
    30    17    18    1
    31    21    23    1
    32    28    27    1
    33    31    27    1
    34    31    24    1
    35    12    13    1
    36    23    24    1
    37    27    26    1
    38    24    25    1
    39    14    13    1
    40    13    15    1
    41    26    25    1
