@<TRIPOS>MOLECULE
2f81_017_A_1.pdb
 38 41 0 0 0
SMALL
GASTEIGER

@<TRIPOS>ATOM
      1  N1         8.1990   57.2630   14.1130 N.pl3 302  017302     -0.1281
      2  C2         8.6730   58.4230   14.5710 C.ar  302  017302      0.0892
      3  C3        10.0100   58.6630   14.2710 C.ar  302  017302      0.0194
      4  C4        10.5810   59.8330   14.7070 C.ar  302  017302      0.0213
      5  C5         9.7660   60.7150   15.4280 C.ar  302  017302      0.1223
      6  C6         8.4290   60.4810   15.7340 C.ar  302  017302      0.0213
      7  C7         7.8370   59.2820   15.2920 C.ar  302  017302      0.0194
      8  S8        10.6440   62.2180   15.9530 S.O2  302  017302      0.0634
      9  O9        11.8530   62.4980   15.0290 O.2   302  017302     -0.1528
     10  O10        9.6620   63.3930   16.1790 O.2   302  017302     -0.1528
     11  N11       11.3060   61.8570   17.5900 N.3   302  017302     -0.1529
     12  C12       10.2860   61.5940   18.6410 C.3   302  017302      0.0958
     13  C13       10.7920   62.1880   19.9860 C.3   302  017302      0.0178
     14  C14       10.7790   63.6990   19.8520 C.3   302  017302      0.0015
     15  C15        9.8740   61.7390   21.0950 C.3   302  017302      0.0015
     16  C16       12.6140   61.1770   17.5660 C.3   302  017302      0.1304
     17  C17       13.7530   62.0970   18.1130 C.3   302  017302      0.1898
     18  O18       14.9180   61.2810   18.3050 O.3   302  017302     -0.2197
     19  C19       14.1140   63.2160   17.0780 C.3   302  017302      0.1347
     20  N20       14.9710   64.1310   17.7720 N.am  302  017302     -0.1675
     21  C21       14.6300   65.3880   18.1050 C.2   302  017302      0.4211
     22  O22       13.5360   65.9490   17.8240 O.2   302  017302     -0.2246
     23  O23       15.7420   65.9160   18.8150 O.3   302  017302     -0.4345
     24  C24       15.6310   67.3850   19.0220 C.3   302  017302      0.2048
     25  C25       16.2760   67.5730   20.4170 C.3   302  017302      0.1884
     26  O26       17.7030   67.4920   20.2200 O.3   302  017302     -0.3265
     27  C27       17.9450   67.9230   18.8900 C.3   302  017302      0.2388
     28  O28       18.8550   67.0570   18.1820 O.3   302  017302     -0.3304
     29  C29       18.0780   66.5450   17.1070 C.3   302  017302      0.1451
     30  C30       17.0330   67.6250   16.7630 C.3   302  017302      0.0409
     31  C31       16.6820   68.1000   18.1650 C.3   302  017302      0.1016
     32  C32       14.8240   62.7100   15.7830 C.3   302  017302      0.0508
     33  C33       16.5910   64.3280   14.7970 C.ar  302  017302     -0.0042
     34  C34       16.9590   65.4490   13.9880 C.ar  302  017302     -0.0003
     35  C35       15.9410   66.1220   13.3210 C.ar  302  017302     -0.0000
     36  C36       14.6090   65.7340   13.4210 C.ar  302  017302     -0.0003
     37  C37       14.2890   64.6420   14.2180 C.ar  302  017302     -0.0042
     38  C38       15.2590   63.9200   14.9130 C.ar  302  017302     -0.0204
@<TRIPOS>BOND
     1    35    36   ar
     2    35    34   ar
     3    36    37   ar
     4    34    33   ar
     5     1     2    1
     6    37    38   ar
     7     3     2   ar
     8     3     4   ar
     9     2     7   ar
    10     4     5   ar
    11    33    38   ar
    12    38    32    1
    13     9     8    2
    14     7     6   ar
    15     5     6   ar
    16     5     8    1
    17    32    19    1
    18     8    10    2
    19     8    11    1
    20    30    29    1
    21    30    31    1
    22    19    20    1
    23    19    17    1
    24    29    28    1
    25    16    11    1
    26    16    17    1
    27    11    12    1
    28    20    21   am
    29    22    21    2
    30    21    23    1
    31    17    18    1
    32    31    27    1
    33    31    24    1
    34    28    27    1
    35    12    13    1
    36    23    24    1
    37    27    26    1
    38    24    25    1
    39    14    13    1
    40    13    15    1
    41    26    25    1
