@<TRIPOS>MOLECULE
2f89_210_F_1.pdb
 13 12 0 0 0
SMALL
GASTEIGER

@<TRIPOS>ATOM
      1  P1        15.4960   75.7870   24.1120 P.3   9001  2109001     0.1511
      2  O2        16.8100   75.9320   23.4640 O.3   9001  2109001    -0.3553
      3  O3        15.2890   74.3620   24.7710 O.3   9001  2109001    -0.3553
      4  O5        14.1260   75.8030   23.2730 O.2   9001  2109001    -0.4573
      5  C7        15.1480   77.2250   25.2510 C.3   9001  2109001     0.2174
      6  P8        16.5110   77.4700   26.5180 P.3   9001  2109001     0.1511
      7  O9        17.8710   77.9190   26.0540 O.2   9001  2109001    -0.4573
      8  O10       16.5020   76.0190   27.2210 O.3   9001  2109001    -0.3553
      9  O12       15.8680   78.6010   27.4250 O.3   9001  2109001    -0.3553
     10  O14       13.9480   76.8500   25.9130 O.3   9001  2109001    -0.2108
     11  C16       14.8800   78.5590   24.4240 C.3   9001  2109001     0.0651
     12  C19       14.2800   79.7430   25.2790 C.3   9001  2109001     0.1128
     13  N22       12.8470   80.0570   24.9160 N.3   9001  2109001    -0.1313
@<TRIPOS>BOND
     1     4     1    2
     2     2     1    1
     3     1     3    1
     4     1     5    1
     5    11     5    1
     6    11    12    1
     7    13    12    1
     8     5    10    1
     9     5     6    1
    10     7     6    2
    11     6     8    1
    12     6     9    1
