@<TRIPOS>MOLECULE
2f8c_ZOL_F_1.pdb
 16 16 0 0 0
SMALL
GASTEIGER

@<TRIPOS>ATOM
      1  O17       16.8100   76.0560   23.2620 O.3   9001  ZOL9001    -0.3552
      2  P14       15.4290   76.0940   23.8230 P.3   9001  ZOL9001     0.1531
      3  O16       15.1510   74.8320   24.7620 O.3   9001  ZOL9001    -0.3552
      4  O15       14.2300   76.0720   22.7420 O.2   9001  ZOL9001    -0.4572
      5  C8        15.0700   77.5070   24.8860 C.3   9001  ZOL9001     0.2364
      6  P9        16.4230   77.6300   26.1450 P.3   9001  ZOL9001     0.1531
      7  O10       15.9760   78.9300   26.9840 O.3   9001  ZOL9001    -0.3552
      8  O11       16.2300   76.2730   26.9310 O.3   9001  ZOL9001    -0.3552
      9  O12       17.7470   77.8020   25.4670 O.2   9001  ZOL9001    -0.4572
     10  O13       13.7940   77.2930   25.5300 O.3   9001  ZOL9001    -0.2088
     11  C7        15.0610   78.7550   23.9450 C.3   9001  ZOL9001     0.1520
     12  N15       14.7610   80.0300   24.5850 N.ar  9001  ZOL9001    -0.3043
     13  C16       13.7150   80.3000   25.2650 C.ar  9001  ZOL9001     0.1787
     14  N17       13.7750   81.4660   25.6410 N.ar  9001  ZOL9001    -0.2223
     15  C18       14.8430   82.0740   25.2620 C.ar  9001  ZOL9001     0.1193
     16  C19       15.5290   81.1210   24.5450 C.ar  9001  ZOL9001     0.0981
@<TRIPOS>BOND
     1     4     2    2
     2     1     2    1
     3     2     3    1
     4     2     5    1
     5    11    12    1
     6    11     5    1
     7    16    12   ar
     8    16    15   ar
     9    12    13   ar
    10     5    10    1
    11     5     6    1
    12    15    14   ar
    13    13    14   ar
    14     9     6    2
    15     6     8    1
    16     6     7    1
