@<TRIPOS>MOLECULE
2f8e_U5P_A_1.pdb
 20 21 0 0 0
SMALL
GASTEIGER

@<TRIPOS>ATOM
      1  N1        19.7890   27.7150   21.4850 N.am  2003  U5P2003    -0.1766
      2  C2        18.7910   28.5930   21.2230 C.1   2003  U5P2003     0.2845
      3  N3        18.9790   29.9200   21.4360 N.2   2003  U5P2003    -0.2452
      4  C4        20.1590   30.3880   21.9090 C.1   2003  U5P2003     0.2182
      5  C5        21.1910   29.5010   22.1810 C.2   2003  U5P2003     0.1242
      6  C6        20.9700   28.1490   21.9540 C.2   2003  U5P2003     0.0929
      7  O2        17.6790   28.2180   20.7840 O.2   2003  U5P2003    -0.1918
      8  O4        20.3230   31.6100   22.1030 O.2   2003  U5P2003    -0.2085
      9  C1'       19.6710   26.2630   21.2850 C.3   2003  U5P2003     0.2401
     10  C2'       18.6300   25.6210   22.1890 C.3   2003  U5P2003     0.2319
     11  O2'       19.2010   25.2620   23.4520 O.3   2003  U5P2003    -0.2157
     12  C3'       18.1840   24.4040   21.4030 C.3   2003  U5P2003     0.2158
     13  C4'       18.6660   24.6320   19.9750 C.3   2003  U5P2003     0.1800
     14  O3'       18.8000   23.2300   21.9370 O.3   2003  U5P2003    -0.2175
     15  O4'       19.3110   25.9090   19.9480 O.3   2003  U5P2003    -0.3320
     16  C5'       17.5150   24.5860   18.9770 C.3   2003  U5P2003     0.1830
     17  O5'       17.9870   24.8930   17.6650 O.3   2003  U5P2003    -0.2926
     18  P         17.1320   25.8350   16.6710 P.3   2003  U5P2003     0.3942
     19  O1P       15.8850   26.2840   17.3940 O.3   2003  U5P2003    -0.1425
     20  O2P       18.0640   26.8720   16.0880 O.3   2003  U5P2003    -0.1425
@<TRIPOS>BOND
     1    20    18    1
     2    18    19    1
     3    18    17    1
     4    17    16    1
     5    16    13    1
     6    15    13    1
     7    15     9    1
     8    13    12    1
     9     7     2    2
    10     2     3    2
    11     2     1   am
    12     9     1    1
    13     9    10    1
    14    12    14    1
    15    12    10    1
    16     3     4    2
    17     1     6    1
    18     4     8    2
    19     4     5    1
    20     6     5    2
    21    10    11    1
