@<TRIPOS>MOLECULE
2f8f_GSH_A_1.pdb
 20 19 0 0 0
SMALL
GASTEIGER

@<TRIPOS>ATOM
      1  N1        14.4800   -3.8990   22.3770 N.3   212  GSH212     -0.1208
      2  CA1       15.0450   -2.5660   22.5020 C.3   212  GSH212      0.1948
      3  C1        14.6750   -1.8130   21.2530 C.2   212  GSH212      0.3819
      4  O11       15.3130   -2.1390   20.2360 O.co2 212  GSH212     -0.2441
      5  O12       13.7830   -0.9230   21.1650 O.co2 212  GSH212     -0.2441
      6  CB1       14.6380   -1.9400   23.8350 C.3   212  GSH212      0.0402
      7  CG1       15.0960   -0.5010   24.0050 C.3   212  GSH212      0.0889
      8  CD1       16.0560   -0.2780   25.1530 C.2   212  GSH212      0.2418
      9  OE1       16.7720   -1.3170   25.7920 O.2   212  GSH212     -0.2733
     10  N2        16.1760    0.9980   25.4800 N.am  212  GSH212     -0.1968
     11  CA2       17.1310    1.5430   26.4170 C.3   212  GSH212      0.1843
     12  C2        16.4240    2.5160   27.3160 C.2   212  GSH212      0.2627
     13  O2        15.3620    3.2920   26.8410 O.2   212  GSH212     -0.2714
     14  CB2       18.2200    2.3490   25.7030 C.3   212  GSH212      0.0997
     15  SG2       18.6710    1.8270   24.0240 S.3   212  GSH212     -0.0797
     16  N3        16.8380    2.6590   28.5640 N.am  212  GSH212     -0.1917
     17  CA3       16.2200    3.7030   29.3710 C.3   212  GSH212      0.2285
     18  C3        15.3720    3.0720   30.4340 C.2   212  GSH212      0.3865
     19  O31       15.0460    1.8800   30.2730 O.co2 212  GSH212     -0.2437
     20  O32       15.0350    3.7050   31.4690 O.co2 212  GSH212     -0.2437
@<TRIPOS>BOND
     1     4     3   ar
     2     5     3   ar
     3     3     2    1
     4     1     2    1
     5     2     6    1
     6     6     7    1
     7     7     8    1
     8    15    14    1
     9     8    10   am
    10     8     9    2
    11    10    11    1
    12    14    11    1
    13    11    12    1
    14    13    12    2
    15    12    16   am
    16    16    17    1
    17    17    18    1
    18    19    18   ar
    19    18    20   ar
