@<TRIPOS>MOLECULE
2f8g_017_B_1.pdb
 38 41 0 0 0
SMALL
GASTEIGER

@<TRIPOS>ATOM
      1  N1        11.3930   17.4080   21.4820 N.pl3 401  017401     -0.1281
      2  C2        12.4430   18.0070   20.8380 C.ar  401  017401      0.0892
      3  C3        13.3160   18.8320   21.5430 C.ar  401  017401      0.0194
      4  C4        14.3420   19.4980   20.8770 C.ar  401  017401      0.0213
      5  C5        14.5400   19.2250   19.5170 C.ar  401  017401      0.1223
      6  C6        13.6350   18.4830   18.7400 C.ar  401  017401      0.0213
      7  C7        12.5820   17.8360   19.4380 C.ar  401  017401      0.0194
      8  S8        15.7490   20.2650   18.6240 S.O2  401  017401      0.0634
      9  O9        16.7860   20.7570   19.6270 O.2   401  017401     -0.1528
     10  O10       16.2630   19.4170   17.4360 O.2   401  017401     -0.1528
     11  N11       14.9730   21.6620   17.8780 N.3   401  017401     -0.1529
     12  C12       13.9330   21.3620   16.8460 C.3   401  017401      0.0958
     13  C13       13.9560   22.4270   15.7360 C.3   401  017401      0.0178
     14  C14       15.2940   22.4620   15.0410 C.3   401  017401      0.0015
     15  C15       12.8080   22.2160   14.7760 C.3   401  017401      0.0015
     16  C16       14.7330   22.8000   18.8470 C.3   401  017401      0.1304
     17  C17       15.6880   23.9740   18.3970 C.3   401  017401      0.1898
     18  O18       15.1770   25.1080   19.0740 O.3   401  017401     -0.2197
     19  C19       17.2020   23.8050   18.7000 C.3   401  017401      0.1347
     20  N20       17.9170   24.9210   18.1120 N.am  401  017401     -0.1675
     21  C21       18.6570   24.7060   16.9980 C.2   401  017401      0.4211
     22  O22       18.8760   23.6180   16.3790 O.2   401  017401     -0.2246
     23  O23       19.1820   25.9290   16.5510 O.3   401  017401     -0.4345
     24  C24       20.2890   25.8870   15.5890 C.3   401  017401      0.2048
     25  C25       20.1990   27.1730   14.7640 C.3   401  017401      0.1884
     26  O26       20.7120   28.2250   15.6150 O.3   401  017401     -0.3265
     27  C27       21.6620   27.5630   16.4550 C.3   401  017401      0.2388
     28  O28       21.5090   27.9890   17.8050 O.3   401  017401     -0.3304
     29  C29       21.2250   26.7880   18.5540 C.3   401  017401      0.1451
     30  C30       21.8090   25.6060   17.7370 C.3   401  017401      0.0409
     31  C31       21.6130   26.1030   16.3410 C.3   401  017401      0.1016
     32  C32       17.5850   23.7370   20.2080 C.3   401  017401      0.0508
     33  C33       19.8570   24.5860   20.9110 C.ar  401  017401     -0.0042
     34  C34       21.2340   24.3730   21.0570 C.ar  401  017401     -0.0003
     35  C35       21.8300   23.1710   20.6820 C.ar  401  017401     -0.0000
     36  C36       21.0340   22.1420   20.1670 C.ar  401  017401     -0.0003
     37  C37       19.6680   22.3300   19.9990 C.ar  401  017401     -0.0042
     38  C38       19.0810   23.5350   20.4250 C.ar  401  017401     -0.0204
@<TRIPOS>BOND
     1    25    24    1
     2    25    26    1
     3    15    13    1
     4    14    13    1
     5    24    31    1
     6    24    23    1
     7    26    27    1
     8    13    12    1
     9    31    27    1
    10    31    30    1
    11    22    21    2
    12    27    28    1
    13    23    21    1
    14    12    11    1
    15    21    20   am
    16    10     8    2
    17    30    29    1
    18    28    29    1
    19    11     8    1
    20    11    16    1
    21    20    19    1
    22    17    19    1
    23    17    16    1
    24    17    18    1
    25     8     5    1
    26     8     9    2
    27    19    32    1
    28     6     7   ar
    29     6     5   ar
    30     7     2   ar
    31     5     4   ar
    32    37    36   ar
    33    37    38   ar
    34    36    35   ar
    35    32    38    1
    36    38    33   ar
    37    35    34   ar
    38     2     1    1
    39     2     3   ar
    40     4     3   ar
    41    33    34   ar
