@<TRIPOS>MOLECULE
2f8i_205_A_1.pdb
 20 22 0 0 0
SMALL
GASTEIGER

@<TRIPOS>ATOM
      1  C1        20.8230    0.3720   27.7630 C.3   1002  2051002     0.0885
      2  C2        21.2950    0.0900   26.4540 C.2   1002  2051002     0.1511
      3  C6        21.6150    0.0470   28.9540 C.2   1002  2051002    -0.0119
      4  C5        22.8080   -0.5110   28.7270 C.2   1002  2051002     0.0790
      5  C4        23.3020   -0.8050   27.4390 C.2   1002  2051002     0.0462
      6  C3        22.5370   -0.4900   26.3140 C.2   1002  2051002     0.1740
      7  C11       21.4880    1.0250   22.1890 C.ar  1002  2051002     0.0641
      8  C10       21.5850   -0.1870   22.8140 C.ar  1002  2051002     0.0875
      9  C8        21.7960   -0.2300   24.1730 C.2   1002  2051002     0.2834
     10  C12       21.3400    1.0310   20.8180 C.ar  1002  2051002     0.0116
     11  C14       21.4390   -1.3800   20.7880 C.ar  1002  2051002     0.0116
     12  C13       21.3160   -0.1690   20.1090 C.ar  1002  2051002     0.0017
     13  C15       21.5730   -1.3730   22.1460 C.ar  1002  2051002     0.0641
     14  C18       23.5550   -0.8150   29.9720 C.2   1002  2051002     0.3875
     15  O19       23.3310   -0.1280   31.0050 O.co2 1002  2051002    -0.2406
     16  O20       24.3720   -1.7470   29.9590 O.co2 1002  2051002    -0.2406
     17  O17       22.8560   -0.7010   24.9500 O.2   1002  2051002    -0.4250
     18  N17       20.8640    0.2450   25.1630 N.2   1002  2051002    -0.3684
     19 CL16       21.7290   -2.9200   23.0090 Cl    1002  2051002    -0.0820
     20 CL17       21.5190    2.5360   23.1610 Cl    1002  2051002    -0.0820
@<TRIPOS>BOND
     1    12    11   ar
     2    12    10   ar
     3    11    13   ar
     4    10     7   ar
     5    13     8   ar
     6    13    19    1
     7     7     8   ar
     8     7    20    1
     9     8     9    1
    10     9    17    1
    11     9    18    2
    12    17     6    1
    13    18     2    2
    14     6     2    1
    15     6     5    2
    16     2     1    1
    17     5     4    1
    18     1     3    1
    19     4     3    2
    20     4    14    1
    21    16    14   ar
    22    14    15   ar
