@<TRIPOS>MOLECULE
2f8j_PMP_A_1.pdb
 16 16 0 0 0
SMALL
GASTEIGER

@<TRIPOS>ATOM
      1  N1       -27.3110   13.1700    3.8240 N.ar  500  PMP500     -0.2452
      2  C2       -26.7210   12.5520    4.8710 C.ar  500  PMP500      0.0978
      3  C2A      -25.1800   12.5570    4.9950 C.3   500  PMP500      0.0555
      4  C3       -27.5200   11.9090    5.8360 C.ar  500  PMP500      0.2063
      5  O3       -26.9100   11.2810    6.8880 O.3   500  PMP500     -0.2856
      6  C4       -28.9240   11.9160    5.7060 C.ar  500  PMP500      0.0369
      7  C4A      -29.8740   11.2190    6.7060 C.3   500  PMP500      0.1386
      8  N4A      -30.5610   10.0220    6.1560 N.3   500  PMP500     -0.1261
      9  C5       -29.4550   12.5870    4.5870 C.ar  500  PMP500      0.0275
     10  C6       -28.6180   13.2090    3.6560 C.ar  500  PMP500      0.0965
     11  C5A      -30.9670   12.6380    4.3570 C.3   500  PMP500      0.1816
     12  O4P      -31.7100   13.4440    5.1710 O.3   500  PMP500     -0.2653
     13  P        -33.2970   13.2990    4.8450 P.3   500  PMP500      0.5329
     14  O1P      -33.9630   14.7560    4.8590 O.3   500  PMP500     -0.1145
     15  O2P      -33.8200   12.6380    6.1910 O.3   500  PMP500     -0.1145
     16  O3P      -33.6180   12.5370    3.6070 O.2   500  PMP500     -0.2224
@<TRIPOS>BOND
     1    16    13    2
     2    10     1   ar
     3    10     9   ar
     4     1     2   ar
     5    11     9    1
     6    11    12    1
     7     9     6   ar
     8    13    14    1
     9    13    12    1
    10    13    15    1
    11     2     3    1
    12     2     4   ar
    13     6     4   ar
    14     6     7    1
    15     4     5    1
    16     8     7    1
