@<TRIPOS>MOLECULE
2f8l_SAM_A_1.pdb
 27 29 0 0 0
SMALL
GASTEIGER

@<TRIPOS>ATOM
      1  N         41.8180   18.5170   45.3490 N.3   400  SAM400     -0.1208
      2  CA        41.7690   18.9830   46.7120 C.3   400  SAM400      0.1952
      3  C         43.1030   18.7370   47.4540 C.2   400  SAM400      0.3819
      4  O         44.0320   18.2050   46.8780 O.co2 400  SAM400     -0.2441
      5  OXT       43.3100   19.0620   48.6220 O.co2 400  SAM400     -0.2441
      6  CB        40.5590   18.3640   47.3920 C.3   400  SAM400      0.0414
      7  CG        39.2900   19.1290   47.0470 C.3   400  SAM400      0.0503
      8  SD        37.9300   18.8070   48.2010 S.3   400  SAM400     -0.1761
      9  CE        37.4250   17.1300   47.7250 C.3   400  SAM400      0.0590
     10  C5'       36.7040   19.9240   47.3650 C.3   400  SAM400      0.0806
     11  C4'       36.8080   21.4390   47.6840 C.3   400  SAM400      0.1622
     12  O4'       35.7210   22.2250   47.1980 O.3   400  SAM400     -0.3153
     13  C3'       36.8430   21.8010   49.1790 C.3   400  SAM400      0.2168
     14  O3'       38.1420   22.1310   49.4810 O.3   400  SAM400     -0.2175
     15  C2'       35.8490   22.9600   49.4340 C.3   400  SAM400      0.2569
     16  O2'       36.2860   23.9670   50.3400 O.3   400  SAM400     -0.2130
     17  C1'       35.6980   23.4310   47.9970 C.3   400  SAM400      0.3185
     18  N9        34.5170   24.2530   47.7190 N.pl3 400  SAM400     -0.1439
     19  C8        33.1810   23.9920   47.9910 C.3   400  SAM400      0.3377
     20  N7        32.4450   24.9840   47.4910 N.2   400  SAM400     -0.2095
     21  C5        33.2860   25.8730   46.8880 C.2   400  SAM400      0.2526
     22  C6        33.0850   27.0780   46.2530 C.2   400  SAM400      0.4393
     23  N6        31.8680   27.5850   46.1080 N.pl3 400  SAM400      0.2180
     24  N1        34.1950   27.7500   45.7580 N.2   400  SAM400      0.0021
     25  C2        35.4760   27.2710   45.9010 C.3   400  SAM400      0.5254
     26  N3        35.6730   26.1000   46.5620 N.2   400  SAM400     -0.0055
     27  C4        34.5970   25.4250   47.0380 C.2   400  SAM400      0.3518
@<TRIPOS>BOND
     1     1     2    1
     2    24    25    1
     3    24    22    2
     4    25    26    1
     5    23    22    1
     6    22    21    1
     7    26    27    2
     8     2     6    1
     9     2     3    1
    10     4     3   ar
    11    21    27    1
    12    21    20    2
    13    27    18    1
    14     7     6    1
    15     7     8    1
    16    12    11    1
    17    12    17    1
    18    10    11    1
    19    10     8    1
    20     3     5   ar
    21    20    19    1
    22    11    13    1
    23    18    19    1
    24    18    17    1
    25     9     8    1
    26    17    15    1
    27    13    15    1
    28    13    14    1
    29    15    16    1
