@<TRIPOS>MOLECULE
2f8p_CEI_A_1.pdb
 31 34 0 0 0
SMALL
GASTEIGER

@<TRIPOS>ATOM
      1  O33        7.3650   28.1620   34.0160 O.2   1526  CEI1526    -0.2425
      2  C2         8.1780   28.9290   34.5360 C.2   1526  CEI1526     0.3568
      3  C10        9.1970   28.4670   35.5690 C.3   1526  CEI1526     0.1430
      4  C11       10.3090   27.7040   34.8720 C.ar  1526  CEI1526    -0.0104
      5  C12       10.3110   26.3110   34.9620 C.ar  1526  CEI1526    -0.0004
      6  C13       11.3230   25.5910   34.3070 C.ar  1526  CEI1526     0.0417
      7  C14       12.3270   26.2860   33.6190 C.ar  1526  CEI1526     0.1957
      8  O17       13.3000   25.5900   32.9940 O.3   1526  CEI1526    -0.2866
      9  C15       12.3270   27.6900   33.5530 C.ar  1526  CEI1526     0.0417
     10  C16       11.3070   28.3970   34.1840 C.ar  1526  CEI1526    -0.0004
     11  N1         8.2050   30.2480   34.2640 N.am  1526  CEI1526     0.0341
     12  C9         7.6850   30.8120   33.1370 C.2   1526  CEI1526     0.3903
     13  C8         6.8220   31.9130   33.2090 C.2   1526  CEI1526     0.1984
     14  C26        6.3850   32.4910   34.5530 C.3   1526  CEI1526     0.0932
     15  C27        5.1070   31.7630   35.0190 C.ar  1526  CEI1526    -0.0149
     16  C28        4.1390   32.4390   35.7660 C.ar  1526  CEI1526    -0.0038
     17  C29        2.9820   31.7730   36.1760 C.ar  1526  CEI1526    -0.0003
     18  C30        2.7600   30.4250   35.8780 C.ar  1526  CEI1526    -0.0000
     19  C31        3.7130   29.7380   35.1230 C.ar  1526  CEI1526    -0.0003
     20  C32        4.8690   30.4190   34.7160 C.ar  1526  CEI1526    -0.0038
     21  N7         6.3370   32.4450   32.0710 N.2   1526  CEI1526    -0.3981
     22  C6         6.6830   31.9490   30.8520 C.2   1526  CEI1526     0.1623
     23  C5         7.5310   30.8580   30.7920 C.3   1526  CEI1526     0.3214
     24  N4         8.0130   30.3120   31.9350 N.2   1526  CEI1526    -0.0517
     25  C19        6.2000   32.6130   29.5910 C.ar  1526  CEI1526     0.0300
     26  C20        6.0080   31.8210   28.4470 C.ar  1526  CEI1526     0.0056
     27  C21        5.5290   32.3920   27.2600 C.ar  1526  CEI1526     0.0421
     28  C22        5.2430   33.7560   27.2430 C.ar  1526  CEI1526     0.1957
     29  O25        4.7900   34.2950   26.0980 O.3   1526  CEI1526    -0.2866
     30  C23        5.4470   34.5720   28.3740 C.ar  1526  CEI1526     0.0421
     31  C24        5.8930   33.9680   29.5680 C.ar  1526  CEI1526     0.0056
@<TRIPOS>BOND
     1    29    28    1
     2    28    27   ar
     3    28    30   ar
     4    27    26   ar
     5    30    31   ar
     6    26    25   ar
     7    31    25   ar
     8    25    22    1
     9    23    22    1
    10    23    24    1
    11    22    21    2
    12    24    12    2
    13    21    13    2
    14     8     7    1
    15    12    13    1
    16    12    11    1
    17    13    14    1
    18     9     7   ar
    19     9    10   ar
    20     7     6   ar
    21     1     2    2
    22    10     4   ar
    23    11     2   am
    24     6     5   ar
    25     2     3    1
    26    14    15    1
    27    20    15   ar
    28    20    19   ar
    29     4     5   ar
    30     4     3    1
    31    15    16   ar
    32    19    18   ar
    33    16    17   ar
    34    18    17   ar
