@<TRIPOS>MOLECULE
2f8z_ZOL_F_1.pdb
 16 16 0 0 0
SMALL
GASTEIGER

@<TRIPOS>ATOM
      1  O17       17.1000   76.1550   23.0700 O.3   5001  ZOL5001    -0.3552
      2  P14       15.7360   76.0960   23.6310 P.3   5001  ZOL5001     0.1531
      3  O16       15.5100   74.7280   24.3820 O.3   5001  ZOL5001    -0.3552
      4  O15       14.4840   76.0760   22.6600 O.2   5001  ZOL5001    -0.4572
      5  C8        15.3430   77.5610   24.7540 C.3   5001  ZOL5001     0.2364
      6  P9        16.6480   77.6460   26.0330 P.3   5001  ZOL5001     0.1531
      7  O10       16.2750   78.9410   26.9220 O.3   5001  ZOL5001    -0.3552
      8  O11       16.3370   76.3060   26.7910 O.3   5001  ZOL5001    -0.3552
      9  O12       18.0480   77.6830   25.4990 O.2   5001  ZOL5001    -0.4572
     10  O13       14.1240   77.3620   25.4620 O.3   5001  ZOL5001    -0.2088
     11  C7        15.2060   78.8620   23.8590 C.3   5001  ZOL5001     0.1520
     12  N15       14.8370   80.1200   24.5920 N.ar  5001  ZOL5001    -0.3043
     13  C16       13.7640   80.3410   25.2210 C.ar  5001  ZOL5001     0.1787
     14  N17       13.7940   81.4780   25.7130 N.ar  5001  ZOL5001    -0.2223
     15  C18       14.8650   82.1010   25.4610 C.ar  5001  ZOL5001     0.1193
     16  C19       15.5750   81.2080   24.7010 C.ar  5001  ZOL5001     0.0981
@<TRIPOS>BOND
     1     4     2    2
     2     1     2    1
     3     2     3    1
     4     2     5    1
     5    11    12    1
     6    11     5    1
     7    12    16   ar
     8    12    13   ar
     9    16    15   ar
    10     5    10    1
    11     5     6    1
    12    13    14   ar
    13    15    14   ar
    14     9     6    2
    15     6     8    1
    16     6     7    1
