@<TRIPOS>MOLECULE
2f8z_IPE_F_1.pdb
 14 13 0 0 0
SMALL
GASTEIGER

@<TRIPOS>ATOM
      1  C1        11.1450   77.4440   22.1080 C.3   9001  IPE9001     0.1535
      2  O1         9.7420   77.6010   22.2370 O.3   9001  IPE9001    -0.3135
      3  C2        11.8120   78.5580   22.9950 C.3   9001  IPE9001     0.0545
      4  C3        11.3230   78.5530   24.4410 C.2   9001  IPE9001    -0.0414
      5  C4        11.1400   79.6850   25.1230 C.2   9001  IPE9001    -0.0090
      6  C5        11.0510   77.2140   25.0550 C.3   9001  IPE9001     0.0264
      7  PA         8.6840   76.8450   21.3710 P.3   9001  IPE9001     0.2230
      8  O1A        7.2810   77.1730   21.6970 O.3   9001  IPE9001    -0.4370
      9  O2A        9.1000   75.3350   21.4200 O.2   9001  IPE9001    -0.5169
     10  O3A        9.1870   77.3490   19.9120 O.3   9001  IPE9001    -0.2261
     11  PB         8.5350   76.6910   18.5580 P.3   9001  IPE9001     0.5373
     12  O1B        7.2030   76.0180   18.5520 O.3   9001  IPE9001    -0.1143
     13  O2B        9.6670   75.7490   18.0000 O.3   9001  IPE9001    -0.1143
     14  O3B        8.6450   78.0770   17.7880 O.2   9001  IPE9001    -0.2221
@<TRIPOS>BOND
     1    14    11    2
     2    13    11    1
     3    12    11    1
     4    11    10    1
     5    10     7    1
     6     7     9    2
     7     7     8    1
     8     7     2    1
     9     1     2    1
    10     1     3    1
    11     3     4    1
    12     4     6    1
    13     4     5    2
