@<TRIPOS>MOLECULE
2f90_3PG_A_1.pdb
 11 10 0 0 0
SMALL
GASTEIGER

@<TRIPOS>ATOM
      1  C1        38.9400   30.3480   68.8430 C.2   408  3PG408      0.3972
      2  O1        37.6580   30.7500   68.5930 O.co2 408  3PG408     -0.2427
      3  O2        39.1340   29.0350   68.7850 O.co2 408  3PG408     -0.2427
      4  C2        39.9800   31.3510   69.1370 C.3   408  3PG408      0.2838
      5  O3        39.5070   32.1900   70.2130 O.3   408  3PG408     -0.2081
      6  C3        40.2870   32.1810   67.8970 C.3   408  3PG408      0.1983
      7  O1P       40.7740   31.3950   66.8650 O.3   408  3PG408     -0.2669
      8  P         41.4930   32.1090   65.5780 P.3   408  3PG408      0.5327
      9  O2P       40.3650   33.1040   64.8290 O.3   408  3PG408     -0.1145
     10  O3P       42.8060   33.0220   66.0830 O.3   408  3PG408     -0.1145
     11  O4P       41.9810   30.9300   64.4760 O.2   408  3PG408     -0.2224
@<TRIPOS>BOND
     1    11     8    2
     2     9     8    1
     3     8    10    1
     4     8     7    1
     5     7     6    1
     6     6     4    1
     7     2     1   ar
     8     3     1   ar
     9     1     4    1
    10     4     5    1
