@<TRIPOS>MOLECULE
2f92_AHD_F_1.pdb
 14 13 0 0 0
SMALL
GASTEIGER

@<TRIPOS>ATOM
      1  C2        15.5790   79.9600   25.6350 C.3   9001  AHD9001     0.0240
      2  C3        14.1890   80.5680   25.9900 C.3   9001  AHD9001     0.1094
      3  C7        15.4790   78.5250   25.0430 C.3   9001  AHD9001     0.0462
      4  C8        15.4300   77.3100   26.0270 C.3   9001  AHD9001     0.2160
      5  O12       16.3980   76.0250   28.2420 O.3   9001  AHD9001    -0.3553
      6  P9        16.6790   77.3390   27.3610 P.3   9001  AHD9001     0.1511
      7  O10       16.2070   78.5030   28.3450 O.3   9001  AHD9001    -0.3553
      8  O11       18.1020   77.4530   26.8980 O.2   9001  AHD9001    -0.4573
      9  P14       15.7030   75.8030   25.0320 P.3   9001  AHD9001     0.1511
     10  O15       17.1160   75.7790   24.5390 O.3   9001  AHD9001    -0.3553
     11  O16       15.2990   74.5640   25.9470 O.3   9001  AHD9001    -0.3553
     12  O17       14.5740   75.7530   23.8920 O.2   9001  AHD9001    -0.4573
     13  O13       14.1280   77.2390   26.6240 O.3   9001  AHD9001    -0.2108
     14  N4        13.7370   80.0460   27.2980 N.3   9001  AHD9001    -0.1314
@<TRIPOS>BOND
     1    12     9    2
     2    10     9    1
     3     9    11    1
     4     9     4    1
     5     3     1    1
     6     3     4    1
     7     1     2    1
     8     2    14    1
     9     4    13    1
    10     4     6    1
    11     8     6    2
    12     6     5    1
    13     6     7    1
