@<TRIPOS>MOLECULE
2f93_RET_A_1.pdb
 20 20 0 0 0
SMALL
GASTEIGER

@<TRIPOS>ATOM
      1  C1        85.4670    0.1540   26.5080 C.3   301  RET301      0.0183
      2  C2        85.9350   -0.9020   25.4880 C.3   301  RET301      0.0044
      3  C3        86.7020   -2.0530   26.0370 C.3   301  RET301      0.0047
      4  C4        86.0230   -2.7220   27.2230 C.3   301  RET301      0.0217
      5  C5        85.4700   -1.7510   28.2780 C.2   301  RET301     -0.0479
      6  C6        85.2480   -0.4190   27.9620 C.2   301  RET301     -0.0307
      7  C7        84.7940    0.4000   29.1060 C.2   301  RET301     -0.0052
      8  C8        84.4900    1.7320   29.1890 C.2   301  RET301     -0.0049
      9  C9        84.0460    2.4530   30.3640 C.2   301  RET301     -0.0258
     10  C10       83.8430    3.7910   30.1300 C.2   301  RET301     -0.0257
     11  C11       83.4010    4.6940   31.2160 C.3   301  RET301      0.0510
     12  C12       83.2530    6.0100   30.8290 C.2   301  RET301     -0.0299
     13  C13       82.8380    7.0450   31.7890 C.2   301  RET301     -0.0478
     14  C14       82.7450    8.2860   31.2350 C.3   301  RET301      0.0217
     15  C15       82.9990    9.4750   32.0350 C.3   301  RET301      0.0047
     16  C16       86.5490    1.3070   26.5300 C.3   301  RET301      0.0043
     17  C17       84.1370    0.6980   25.8310 C.3   301  RET301      0.0043
     18  C18       85.3100   -2.4790   29.5760 C.3   301  RET301      0.0260
     19  C19       83.8540    1.7660   31.6830 C.3   301  RET301      0.0307
     20  C20       82.5630    6.7310   33.2150 C.3   301  RET301      0.0260
@<TRIPOS>BOND
     1     2     3    1
     2     2     1    1
     3    17     1    1
     4     3     4    1
     5     1    16    1
     6     1     6    1
     7     4     5    1
     8     6     5    2
     9     6     7    1
    10     5    18    1
    11     7     8    2
    12     8     9    1
    13    10     9    2
    14    10    11    1
    15     9    19    1
    16    12    11    1
    17    12    13    2
    18    14    13    1
    19    14    15    1
    20    13    20    1
