@<TRIPOS>MOLECULE
2f94_BFQ_F_1.pdb
 19 18 0 0 0
SMALL
GASTEIGER

@<TRIPOS>ATOM
      1  P1        15.4920   75.7290   24.5860 P.3   9001  BFQ9001     0.1511
      2  O2        16.8770   75.6010   24.0480 O.3   9001  BFQ9001    -0.3553
      3  O3        15.1810   74.5550   25.5790 O.3   9001  BFQ9001    -0.3553
      4  O5        14.3750   75.6690   23.4600 O.2   9001  BFQ9001    -0.4573
      5  C7        15.2460   77.2840   25.5040 C.3   9001  BFQ9001     0.2173
      6  P8        16.5150   77.3950   26.8230 P.3   9001  BFQ9001     0.1511
      7  O9        17.9200   77.3270   26.3520 O.2   9001  BFQ9001    -0.4573
      8  O10       16.1530   78.7360   27.6040 O.3   9001  BFQ9001    -0.3553
      9  O12       16.1660   76.2030   27.8180 O.3   9001  BFQ9001    -0.3553
     10  O14       13.9520   77.2860   26.1050 O.3   9001  BFQ9001    -0.2108
     11  C16       15.3800   78.5040   24.5380 C.3   9001  BFQ9001     0.0620
     12  C19       14.1310   79.4740   24.5990 C.3   9001  BFQ9001     0.0756
     13  N22       14.1820   80.5680   25.6150 N.3   9001  BFQ9001    -0.2714
     14  C23       15.4940   81.2280   25.7410 C.3   9001  BFQ9001     0.0721
     15  C26       15.4860   82.6840   25.2180 C.3   9001  BFQ9001     0.0173
     16  C29       16.7280   82.8060   24.3040 C.3   9001  BFQ9001     0.0014
     17  C32       17.0970   84.2520   23.9780 C.3   9001  BFQ9001     0.0000
     18  C35       18.2100   84.2310   22.8980 C.3   9001  BFQ9001     0.0000
     19  C39       13.6630   80.1560   26.9250 C.3   9001  BFQ9001     0.0896
@<TRIPOS>BOND
     1    18    17    1
     2     4     1    2
     3    17    16    1
     4     2     1    1
     5    16    15    1
     6    11    12    1
     7    11     5    1
     8     1     5    1
     9     1     3    1
    10    12    13    1
    11    15    14    1
    12     5    10    1
    13     5     6    1
    14    13    14    1
    15    13    19    1
    16     7     6    2
    17     6     8    1
    18     6     9    1
