@<TRIPOS>MOLECULE
2f95_RET_A_1.pdb
 20 20 0 0 0
SMALL
GASTEIGER

@<TRIPOS>ATOM
      1  C1        85.6530    0.2150   26.4600 C.3   301  RET301      0.0183
      2  C2        86.1160   -0.8330   25.4310 C.3   301  RET301      0.0044
      3  C3        86.9320   -1.9520   25.9830 C.3   301  RET301      0.0047
      4  C4        86.2670   -2.6570   27.1500 C.3   301  RET301      0.0217
      5  C5        85.6710   -1.7070   28.2100 C.2   301  RET301     -0.0479
      6  C6        85.4410   -0.3690   27.9040 C.2   301  RET301     -0.0307
      7  C7        84.9870    0.4430   29.0510 C.2   301  RET301     -0.0052
      8  C8        84.6840    1.7750   29.1360 C.2   301  RET301     -0.0049
      9  C9        84.2330    2.4950   30.3070 C.2   301  RET301     -0.0258
     10  C10       84.0390    3.8340   30.0710 C.2   301  RET301     -0.0257
     11  C11       83.5890    4.7330   31.1510 C.3   301  RET301      0.0510
     12  C12       83.4540    6.0560   30.7670 C.2   301  RET301     -0.0299
     13  C13       83.0260    7.0880   31.7350 C.2   301  RET301     -0.0478
     14  C14       82.9570    8.3400   31.1950 C.3   301  RET301      0.0217
     15  C15       83.1080    9.5200   32.0440 C.3   301  RET301      0.0047
     16  C16       86.7440    1.3540   26.4930 C.3   301  RET301      0.0043
     17  C17       84.3210    0.7730   25.7880 C.3   301  RET301      0.0043
     18  C18       85.5140   -2.4520   29.5010 C.3   301  RET301      0.0260
     19  C19       84.0270    1.8010   31.6260 C.3   301  RET301      0.0307
     20  C20       82.7230    6.7550   33.1580 C.3   301  RET301      0.0260
@<TRIPOS>BOND
     1     2     3    1
     2     2     1    1
     3    17     1    1
     4     3     4    1
     5     1    16    1
     6     1     6    1
     7     4     5    1
     8     6     5    2
     9     6     7    1
    10     5    18    1
    11     7     8    2
    12     8     9    1
    13    10     9    2
    14    10    11    1
    15     9    19    1
    16    12    11    1
    17    12    13    2
    18    14    13    1
    19    14    15    1
    20    13    20    1
