@<TRIPOS>MOLECULE
2f98_NGV_A_1.pdb
 28 31 0 0 0
SMALL
GASTEIGER

@<TRIPOS>ATOM
      1  O17       28.2670   27.9490   -3.3810 O.2   333  NGV333     -0.2494
      2  C14       27.4430   27.0570   -3.3960 C.2   333  NGV333      0.3246
      3  O16       27.6470   25.8780   -4.2330 O.3   333  NGV333     -0.4440
      4  C15       28.9250   25.3800   -4.6240 C.3   333  NGV333      0.2556
      5  C10       26.1600   27.0870   -2.6150 C.3   333  NGV333      0.1399
      6  C9        25.9170   26.0400   -1.7200 C.2   333  NGV333     -0.0265
      7  C13       26.9180   24.9340   -1.5000 C.3   333  NGV333      0.0273
      8  C8        24.7370   26.0010   -0.9930 C.2   333  NGV333      0.0345
      9  C19       25.1970   28.0910   -2.8030 C.ar  333  NGV333     -0.0022
     10  C20       24.0150   28.0390   -2.0640 C.ar  333  NGV333      0.0748
     11  C7        23.7850   26.9990   -1.1700 C.2   333  NGV333      0.1978
     12  O22       22.7220   26.9350   -0.5160 O.2   333  NGV333     -0.2865
     13  C11       25.3920   29.1720   -3.6960 C.ar  333  NGV333     -0.0045
     14  C18       24.4190   30.1790   -3.8720 C.ar  333  NGV333      0.0178
     15  C17       23.2250   30.1480   -3.1460 C.ar  333  NGV333      0.0767
     16  C5        22.2640   31.1540   -3.3170 C.2   333  NGV333      0.2013
     17  O20       21.1920   31.1060   -2.6580 O.2   333  NGV333     -0.2864
     18  C6        22.9950   29.1080   -2.2440 C.ar  333  NGV333      0.2012
     19  O21       21.8610   29.0570   -1.5480 O.3   333  NGV333     -0.2864
     20  C12       24.6380   31.2360   -4.7680 C.3   333  NGV333      0.1970
     21  O18       25.7700   31.2960   -5.4790 O.3   333  NGV333     -0.2134
     22  C21       23.6770   32.2390   -4.9360 C.ar  333  NGV333      0.0181
     23  C1        23.9040   33.2780   -5.8440 C.ar  333  NGV333     -0.0012
     24  C2        22.9620   34.2870   -6.0340 C.ar  333  NGV333      0.0030
     25  C3        21.7720   34.2520   -5.3130 C.ar  333  NGV333      0.0421
     26  C16       22.4890   32.2040   -4.2110 C.ar  333  NGV333      0.0766
     27  C4        21.5390   33.2150   -4.4070 C.ar  333  NGV333      0.1985
     28  O19       20.3910   33.2130   -3.7370 O.3   333  NGV333     -0.2865
@<TRIPOS>BOND
     1    24    23   ar
     2    24    25   ar
     3    23    22   ar
     4    21    20    1
     5    25    27   ar
     6    22    20    1
     7    22    26   ar
     8    20    14    1
     9     4     3    1
    10    27    26   ar
    11    27    28    1
    12     3     2    1
    13    26    16    1
    14    14    13   ar
    15    14    15   ar
    16    13     9   ar
    17     2     1    2
    18     2     5    1
    19    16    15    1
    20    16    17    2
    21    15    18   ar
    22     9     5    1
    23     9    10   ar
    24     5     6    1
    25    18    10   ar
    26    18    19    1
    27    10    11    1
    28     6     7    1
    29     6     8    2
    30    11     8    1
    31    11    12    2
