@<TRIPOS>MOLECULE
2f99_AKV_A_1.pdb
 30 32 0 0 0
SMALL
GASTEIGER

@<TRIPOS>ATOM
      1  O20       29.5920   36.4370    9.6830 O.2   1335  AKV1335    -0.2864
      2  C5        30.1700   35.3800    9.9480 C.2   1335  AKV1335     0.2019
      3  C17       31.4890   35.1810    9.5200 C.ar  1335  AKV1335     0.0807
      4  C6        32.1600   36.1710    8.7850 C.ar  1335  AKV1335     0.1969
      5  O21       31.5430   37.3310    8.4880 O.3   1335  AKV1335    -0.2867
      6  C16       29.5010   34.3960   10.6810 C.ar  1335  AKV1335     0.0810
      7  C4        28.1880   34.5770   11.1160 C.ar  1335  AKV1335     0.1988
      8  O19       27.5210   35.7220   10.8450 O.3   1335  AKV1335    -0.2865
      9  C3        27.5390   33.5790   11.8410 C.ar  1335  AKV1335     0.0421
     10  C2        28.1790   32.3970   12.1310 C.ar  1335  AKV1335     0.0034
     11  C1        29.4820   32.2290   11.7020 C.ar  1335  AKV1335     0.0035
     12  C21       30.1470   33.2060   10.9740 C.ar  1335  AKV1335     0.0451
     13  C12       31.4620   32.9980   10.5550 C.2   1335  AKV1335     0.1959
     14  O18       32.0290   31.9250   10.8310 O.2   1335  AKV1335    -0.2866
     15  C18       32.1320   33.9840    9.8230 C.ar  1335  AKV1335     0.0448
     16  C11       33.4450   33.7650    9.4090 C.ar  1335  AKV1335    -0.0005
     17  C19       34.1500   34.7170    8.6730 C.ar  1335  AKV1335    -0.0095
     18  C10       35.5510   34.4700    8.2370 C.3   1335  AKV1335     0.1357
     19  C14       35.7250   33.2070    7.6240 C.2   1335  AKV1335     0.3216
     20  O16       36.1550   32.0300    8.3750 O.3   1335  AKV1335    -0.4442
     21  C15       37.3480   32.2890    9.1190 C.3   1335  AKV1335     0.2556
     22  O17       35.4030   33.0460    6.4750 O.2   1335  AKV1335    -0.2497
     23  C20       33.4690   35.9970    8.3610 C.ar  1335  AKV1335     0.0438
     24  C7        34.1730   37.0560    7.5470 C.3   1335  AKV1335     0.1843
     25  O22       35.4890   36.6820    7.2900 O.3   1335  AKV1335    -0.2177
     26  C8        34.2270   38.3970    8.1090 C.3   1335  AKV1335     0.1020
     27  C9        35.3290   39.0550    7.5010 C.2   1335  AKV1335     0.1536
     28  O23       36.5190   38.6770    7.7820 O.2   1335  AKV1335    -0.2960
     29  C13       35.1320   40.3240    6.9840 C.3   1335  AKV1335     0.0646
     30  C22       36.3540   41.0070    6.8540 C.3   1335  AKV1335     0.0082
@<TRIPOS>BOND
     1    22    19    2
     2    30    29    1
     3    29    27    1
     4    25    24    1
     5    27    28    2
     6    27    26    1
     7    24    26    1
     8    24    23    1
     9    19    18    1
    10    19    20    1
    11    18    17    1
    12    23    17   ar
    13    23     4   ar
    14    20    21    1
    15     5     4    1
    16    17    16   ar
    17     4     3   ar
    18    16    15   ar
    19     3    15   ar
    20     3     2    1
    21     1     2    2
    22    15    13    1
    23     2     6    1
    24    13    14    2
    25    13    12    1
    26     6    12   ar
    27     6     7   ar
    28     8     7    1
    29    12    11   ar
    30     7     9   ar
    31    11    10   ar
    32     9    10   ar
