@<TRIPOS>MOLECULE
2f9a_F24_A_1.pdb
 23 22 0 0 0
SMALL
GASTEIGER

@<TRIPOS>ATOM
      1  C1        27.1950    4.9660   22.5480 C.3   500  F24500      0.0963
      2  O1        31.3380   -5.8480   13.3470 O.co2 500  F24500     -0.2457
      3  C2        27.3620    4.2010   21.2170 C.3   500  F24500      0.1570
      4  O2        25.3860    4.3070   24.1970 O.3   500  F24500     -0.2202
      5  C3        30.8670   -5.6890   14.5010 C.2   500  F24500      0.3649
      6  C4        27.7920    6.3830   22.4840 C.3   500  F24500      0.1872
      7  O4        30.7070   -6.6160   15.3180 O.co2 500  F24500     -0.2457
      8  C5        26.9590    2.7160   21.2490 C.3   500  F24500      0.0331
      9  O5        27.1790    7.2740   23.4380 O.3   500  F24500     -0.2202
     10  C6        30.4440   -4.3120   14.9380 C.3   500  F24500      0.1140
     11  O6        26.6200    4.8660   20.1900 O.3   500  F24500     -0.2230
     12  C7        30.2890   -3.5620   19.2440 C.3   500  F24500      0.0000
     13  C8        25.7350    5.0030   23.0070 C.3   500  F24500      0.1872
     14  C9        30.9170   -4.1590   16.3740 C.3   500  F24500      0.0113
     15  C10       28.2020    1.8280   21.3170 C.3   500  F24500      0.0026
     16  C11       28.5930    1.2130   19.9780 C.3   500  F24500      0.0001
     17  C12       31.0850   -2.7000   16.8710 C.3   500  F24500      0.0006
     18  C13       31.6290    1.2970   19.0090 C.3   500  F24500      0.0000
     19  C14       30.8110   -2.4190   18.3700 C.3   500  F24500      0.0000
     20  C16       31.4640   -1.2230   19.0860 C.3   500  F24500      0.0000
     21  C18       30.6810    0.0900   19.0170 C.3   500  F24500      0.0000
     22  C20       29.6850    0.1580   20.1750 C.3   500  F24500      0.0000
     23  C21       30.7300   -5.3220   17.3520 C.3   500  F24500      0.0006
@<TRIPOS>BOND
     1     2     5   ar
     2     5    10    1
     3     5     7   ar
     4    10    14    1
     5    14    17    1
     6    14    23    1
     7    17    19    1
     8    19    20    1
     9    19    12    1
    10    18    21    1
    11    21    20    1
    12    21    22    1
    13    16    22    1
    14    16    15    1
    15    11     3    1
    16     3     8    1
    17     3     1    1
    18     8    15    1
    19     6     1    1
    20     6     9    1
    21     1    13    1
    22    13     4    1
