@<TRIPOS>MOLECULE
2f9b_N1H_H_1.pdb
 30 33 0 0 0
SMALL
GASTEIGER

@<TRIPOS>ATOM
      1  C1        47.3280   -9.0340   12.4180 C.2   258  N1H258      0.2190
      2  C2        47.1790   -7.7050   11.9870 C.2   258  N1H258      0.0535
      3  C3        48.1510   -7.0680   11.2280 C.2   258  N1H258      0.0384
      4  C4        49.2370   -7.8290   10.9410 C.2   258  N1H258      0.1568
      5  C5        49.4100   -9.0820   11.3330 C.2   258  N1H258      0.1471
      6  N6        48.4600   -9.6540   12.0570 N.2   258  N1H258     -0.3852
      7  N7        46.3940   -9.6240   13.1250 N.pl3 258  N1H258     -0.0932
      8  N3        50.3240   -7.5330   10.2380 N.2   258  N1H258     -0.4034
      9  CN4       50.5730   -9.5780   10.9020 C.3   258  N1H258      0.1206
     10  C8        51.1830   -8.5520   10.1710 C.2   258  N1H258      0.1193
     11  C1'       52.3800   -8.4240    9.4460 C.ar  258  N1H258      0.0644
     12  C2'       53.2400   -9.5130    9.2950 C.ar  258  N1H258      0.0017
     13  C3'       54.4380   -9.4190    8.5970 C.ar  258  N1H258     -0.0107
     14  CV'       55.3420  -10.6470    8.4540 C.3   258  N1H258      0.1404
     15  CW'       55.9840  -10.9640    9.8040 C.2   258  N1H258      0.3692
     16  OX'       55.2840  -11.5700   10.6000 O.co2 258  N1H258     -0.2453
     17  OY'       57.1330  -10.5750    9.9530 O.co2 258  N1H258     -0.2453
     18  C4'       54.8010   -8.2120    8.0330 C.ar  258  N1H258     -0.0005
     19  C5'       53.9890   -7.0790    8.1460 C.ar  258  N1H258      0.0388
     20  C6'       52.7820   -7.2230    8.8550 C.ar  258  N1H258      0.1977
     21  O6'       51.9170   -6.1640    8.9670 O.3   258  N1H258     -0.2865
     22  C1B       54.4050   -5.8730    7.5760 C.ar  258  N1H258      0.0047
     23  C2B       53.4900   -5.0430    6.9270 C.ar  258  N1H258      0.0002
     24  C3B       53.9070   -3.8580    6.3420 C.ar  258  N1H258      0.0017
     25  C4B       55.2440   -3.4720    6.3910 C.ar  258  N1H258      0.0241
     26  C5B       56.1950   -4.2480    7.0250 C.ar  258  N1H258      0.1429
     27  N5B       57.4540   -3.8360    7.0770 N.pl3 258  N1H258      0.0577
     28  O51       58.3800   -4.3120    8.1070 O.2   258  N1H258     -0.1261
     29  O52       58.0340   -2.8290    6.0780 O.2   258  N1H258     -0.1261
     30  C6B       55.7700   -5.4480    7.6150 C.ar  258  N1H258      0.0242
@<TRIPOS>BOND
     1    29    27    2
     2    24    25   ar
     3    24    23   ar
     4    25    26   ar
     5    23    22   ar
     6    26    27    1
     7    26    30   ar
     8    27    28    2
     9    22    30   ar
    10    22    19    1
    11    18    19   ar
    12    18    13   ar
    13    19    20   ar
    14    14    13    1
    15    14    15    1
    16    13    12   ar
    17    20    21    1
    18    20    11   ar
    19    12    11   ar
    20    11    10    1
    21    15    17   ar
    22    15    16   ar
    23    10     8    2
    24    10     9    1
    25     8     4    2
    26     9     5    1
    27     4     3    1
    28     4     5    1
    29     3     2    2
    30     5     6    2
    31     2     1    1
    32     6     1    2
    33     1     7    1
