@<TRIPOS>MOLECULE
2f9g_ADP_A_1.pdb
 27 29 0 0 0
SMALL
GASTEIGER

@<TRIPOS>ATOM
      1  PB        35.4900    4.8630   34.1090 P.3   500  ADP500      0.5373
      2  O1B       36.6330    5.7550   34.2680 O.3   500  ADP500     -0.1143
      3  O2B       35.1360    4.0330   35.3150 O.3   500  ADP500     -0.1143
      4  O3B       34.2110    5.5740   33.5970 O.2   500  ADP500     -0.2221
      5  PA        35.2100    3.3390   31.7340 P.3   500  ADP500      0.2231
      6  O1A       35.5290    1.9010   31.5830 O.2   500  ADP500     -0.5169
      7  O2A       33.7620    3.6600   31.7460 O.3   500  ADP500     -0.4370
      8  O3A       35.9060    3.7760   33.0450 O.3   500  ADP500     -0.2261
      9  O5'       36.0360    4.0080   30.5850 O.3   500  ADP500     -0.3111
     10  C5'       36.0300    5.4460   30.3670 C.3   500  ADP500      0.1813
     11  C4'       36.0420    5.8090   28.8700 C.3   500  ADP500      0.1821
     12  O4'       37.1730    5.1570   28.2350 O.3   500  ADP500     -0.3135
     13  C3'       34.8450    5.3140   28.0530 C.3   500  ADP500      0.2184
     14  O3'       33.7810    6.2510   28.2160 O.3   500  ADP500     -0.2174
     15  C2'       35.4560    5.1820   26.6330 C.3   500  ADP500      0.2570
     16  O2'       35.4680    6.3870   25.8830 O.3   500  ADP500     -0.2130
     17  C1'       36.8990    4.7420   26.8820 C.3   500  ADP500      0.3186
     18  N9        37.0230    3.2570   26.7930 N.pl3 500  ADP500     -0.1439
     19  C8        36.8820    2.3630   27.8090 C.3   500  ADP500      0.3377
     20  N7        37.0600    1.1060   27.4320 N.2   500  ADP500     -0.2095
     21  C5        37.3290    1.2020   26.1260 C.2   500  ADP500      0.2526
     22  C6        37.6210    0.1920   25.1730 C.2   500  ADP500      0.4393
     23  N6        37.6840   -1.0640   25.4200 N.pl3 500  ADP500      0.2180
     24  N1        37.8490    0.6690   23.8980 N.2   500  ADP500      0.0021
     25  C2        37.8100    2.0040   23.5560 C.3   500  ADP500      0.5254
     26  N3        37.5450    2.9580   24.4360 N.2   500  ADP500     -0.0055
     27  C4        37.3110    2.5210   25.6960 C.2   500  ADP500      0.3518
@<TRIPOS>BOND
     1    25    24    1
     2    25    26    1
     3    24    22    2
     4    26    27    2
     5    22    23    1
     6    22    21    1
     7    27    21    1
     8    27    18    1
     9    16    15    1
    10    21    20    2
    11    15    17    1
    12    15    13    1
    13    18    17    1
    14    18    19    1
    15    17    12    1
    16    20    19    1
    17    13    14    1
    18    13    11    1
    19    12    11    1
    20    11    10    1
    21    10     9    1
    22     9     5    1
    23     6     5    2
    24     5     7    1
    25     5     8    1
    26     8     1    1
    27     4     1    2
    28     1     2    1
    29     1     3    1
