@<TRIPOS>MOLECULE
2f9k_ZOL_F_1.pdb
 16 16 0 0 0
SMALL
GASTEIGER

@<TRIPOS>ATOM
      1  O17       16.6780   75.6210   24.1760 O.3   9001  ZOL9001    -0.3552
      2  P14       15.3220   75.5810   24.7890 P.3   9001  ZOL9001     0.1531
      3  O16       15.1240   74.2770   25.6680 O.3   9001  ZOL9001    -0.3552
      4  O15       14.1300   75.5570   23.7330 O.2   9001  ZOL9001    -0.4572
      5  C8        15.0210   77.0200   25.8670 C.3   9001  ZOL9001     0.2364
      6  P9        16.3800   77.1240   27.0700 P.3   9001  ZOL9001     0.1531
      7  O10       16.0060   78.3290   28.0570 O.3   9001  ZOL9001    -0.3552
      8  O11       16.2000   75.8340   27.9790 O.3   9001  ZOL9001    -0.3552
      9  O12       17.7260   77.2050   26.4520 O.2   9001  ZOL9001    -0.4572
     10  O13       13.7750   76.8000   26.5490 O.3   9001  ZOL9001    -0.2088
     11  C7        14.9610   78.2850   24.9600 C.3   9001  ZOL9001     0.1520
     12  N15       14.6850   79.5740   25.5980 N.ar  9001  ZOL9001    -0.3043
     13  C16       13.6500   79.8790   26.3320 C.ar  9001  ZOL9001     0.1787
     14  N17       13.7430   81.0720   26.6940 N.ar  9001  ZOL9001    -0.2223
     15  C18       14.9480   81.6670   26.1730 C.ar  9001  ZOL9001     0.1193
     16  C19       15.4800   80.6270   25.4920 C.ar  9001  ZOL9001     0.0981
@<TRIPOS>BOND
     1     4     2    2
     2     1     2    1
     3     2     3    1
     4     2     5    1
     5    11    12    1
     6    11     5    1
     7    16    12   ar
     8    16    15   ar
     9    12    13   ar
    10     5    10    1
    11     5     6    1
    12    15    14   ar
    13    13    14   ar
    14     9     6    2
    15     6     8    1
    16     6     7    1
