@<TRIPOS>MOLECULE
2f9l_GDP_A_1.pdb
 28 30 0 0 0
SMALL
GASTEIGER

@<TRIPOS>ATOM
      1  PB         8.6660    2.5740   11.0960 P.3   1174  GDP1174     0.5373
      2  O1B        8.5960    1.1920   11.6930 O.3   1174  GDP1174    -0.1143
      3  O2B        7.8900    3.6050   11.8650 O.3   1174  GDP1174    -0.1143
      4  O3B       10.0730    3.0210   10.7230 O.2   1174  GDP1174    -0.2221
      5  O3A        7.8580    2.4510    9.7220 O.3   1174  GDP1174    -0.2261
      6  PA         8.3780    2.1040    8.2650 P.3   1174  GDP1174     0.2231
      7  O1A        8.8380    3.3210    7.5360 O.2   1174  GDP1174    -0.5169
      8  O2A        9.3520    0.9710    8.3400 O.3   1174  GDP1174    -0.4370
      9  O5'        7.0180    1.5850    7.5650 O.3   1174  GDP1174    -0.3111
     10  C5'        6.2750    0.5610    8.2100 C.3   1174  GDP1174     0.1813
     11  C4'        5.3660   -0.0340    7.1520 C.3   1174  GDP1174     0.1799
     12  O4'        4.4000    0.9850    6.8370 O.3   1174  GDP1174    -0.3326
     13  C3'        6.1010   -0.3670    5.8650 C.3   1174  GDP1174     0.2158
     14  O3'        5.4780   -1.5220    5.3000 O.3   1174  GDP1174    -0.2175
     15  C2'        5.8510    0.7970    4.9280 C.3   1174  GDP1174     0.2310
     16  O2'        5.8440    0.4670    3.5240 O.3   1174  GDP1174    -0.2158
     17  C1'        4.4930    1.2480    5.4370 C.3   1174  GDP1174     0.2293
     18  N9         4.3000    2.7020    5.2580 N.pl3 1174  GDP1174    -0.2354
     19  C8         5.1240    3.6860    5.6720 C.3   1174  GDP1174     0.2246
     20  N7         4.6050    4.9110    5.3520 N.2   1174  GDP1174    -0.2322
     21  C5         3.4480    4.6650    4.7320 C.2   1174  GDP1174     0.2182
     22  C6         2.4020    5.4660    4.1540 C.1   1174  GDP1174     0.2372
     23  O6         2.4890    6.7160    4.1520 O.2   1174  GDP1174    -0.2069
     24  N1         1.3420    4.8150    3.6620 N.2   1174  GDP1174    -0.2485
     25  C2         1.1920    3.4640    3.6000 C.1   1174  GDP1174     0.2531
     26  N2         0.0800    2.9490    3.0700 N.pl3 1174  GDP1174    -0.0226
     27  N3         2.1340    2.6390    4.1180 N.2   1174  GDP1174    -0.3074
     28  C4         3.2350    3.2060    4.6810 C.2   1174  GDP1174     0.2300
@<TRIPOS>BOND
     1    26    25    1
     2    16    15    1
     3    25    24    2
     4    25    27    2
     5    24    22    2
     6    27    28    2
     7    23    22    2
     8    22    21    1
     9    28    21    1
    10    28    18    1
    11    21    20    2
    12    15    17    1
    13    15    13    1
    14    18    17    1
    15    18    19    1
    16    14    13    1
    17    20    19    1
    18    17    12    1
    19    13    11    1
    20    12    11    1
    21    11    10    1
    22     7     6    2
    23     9    10    1
    24     9     6    1
    25     6     8    1
    26     6     5    1
    27     5     1    1
    28     4     1    2
    29     1     2    1
    30     1     3    1
