@<TRIPOS>MOLECULE
2f9m_GNP_A_1.pdb
 32 34 0 0 0
SMALL
GASTEIGER

@<TRIPOS>ATOM
      1  PG         7.0760   26.2320   14.8640 P.3   1200  GNP1200     0.4884
      2  O1G        5.8200   27.0610   14.9420 O.3   1200  GNP1200    -0.1240
      3  O2G        6.8300   24.8920   14.2210 O.2   1200  GNP1200    -0.2331
      4  O3G        7.6850   26.1900   16.2330 O.3   1200  GNP1200    -0.1240
      5  N3B        8.1080   27.0320   13.9260 N.3   1200  GNP1200    -0.0163
      6  PB         9.6250   26.6050   13.6140 P.3   1200  GNP1200     0.4669
      7  O1B       10.5200   27.0160   14.7110 O.3   1200  GNP1200    -0.1253
      8  O2B        9.6510   25.1630   13.3290 O.2   1200  GNP1200    -0.2351
      9  O3A       10.0750   27.4390   12.3950 O.3   1200  GNP1200    -0.2360
     10  PA        10.1700   27.0410   10.9040 P.3   1200  GNP1200     0.2220
     11  O1A       11.3210   26.1160   10.6940 O.3   1200  GNP1200    -0.4370
     12  O2A        8.8620   26.6000   10.3900 O.2   1200  GNP1200    -0.5170
     13  O5'       10.5350   28.3820   10.1890 O.3   1200  GNP1200    -0.3111
     14  C5'        9.7310   29.5410   10.3860 C.3   1200  GNP1200     0.1813
     15  C4'       10.0150   30.5180    9.2710 C.3   1200  GNP1200     0.1799
     16  O4'       11.4090   30.8970    9.3810 O.3   1200  GNP1200    -0.3326
     17  C3'        9.8540   29.9290    7.8690 C.3   1200  GNP1200     0.2158
     18  O3'        9.4280   30.9190    6.9640 O.3   1200  GNP1200    -0.2175
     19  C2'       11.2750   29.4740    7.5400 C.3   1200  GNP1200     0.2310
     20  O2'       11.5530   29.3820    6.1610 O.3   1200  GNP1200    -0.2158
     21  C1'       12.0750   30.5930    8.1870 C.3   1200  GNP1200     0.2293
     22  N9        13.4250   30.1760    8.5060 N.pl3 1200  GNP1200    -0.2354
     23  C8        13.8080   29.0360    9.1590 C.3   1200  GNP1200     0.2246
     24  N7        15.0910   28.9260    9.2970 N.2   1200  GNP1200    -0.2322
     25  C5        15.5850   30.0610    8.6770 C.2   1200  GNP1200     0.2182
     26  C6        16.9100   30.4990    8.5030 C.1   1200  GNP1200     0.2372
     27  O6        17.9310   29.9340    8.8710 O.2   1200  GNP1200    -0.2069
     28  N1        16.9830   31.7250    7.8390 N.2   1200  GNP1200    -0.2485
     29  C2        15.8960   32.4360    7.3740 C.1   1200  GNP1200     0.2531
     30  N2        16.1460   33.5960    6.7440 N.pl3 1200  GNP1200    -0.0226
     31  N3        14.6400   32.0320    7.5280 N.2   1200  GNP1200    -0.3074
     32  C4        14.5670   30.8510    8.1880 C.2   1200  GNP1200     0.2300
@<TRIPOS>BOND
     1    20    19    1
     2    30    29    1
     3    18    17    1
     4    29    31    2
     5    29    28    2
     6    31    32    2
     7    19    17    1
     8    19    21    1
     9    28    26    2
    10    17    15    1
    11    21    22    1
    12    21    16    1
    13    32    22    1
    14    32    25    1
    15    26    25    1
    16    26    27    2
    17    22    23    1
    18    25    24    2
    19    23    24    1
    20    15    16    1
    21    15    14    1
    22    13    14    1
    23    13    10    1
    24    12    10    2
    25    11    10    1
    26    10     9    1
    27     9     6    1
    28     8     6    2
    29     6     5    1
    30     6     7    1
    31     5     1    1
    32     3     1    2
    33     1     2    1
    34     1     4    1
