@<TRIPOS>MOLECULE
2f9n_III_E_1.pdb
 30 29 0 0 0
SMALL
GASTEIGER

@<TRIPOS>ATOM
      1  C         37.8270    5.1760   67.3750 C.2   301  ACE301      0.2423
      2  O         38.2250    4.9860   68.5490 O.2   301  ACE301     -0.2733
      3  CH3       36.3780    5.0470   66.9760 C.3   301  ACE301      0.0964
      4  N         38.6230    5.4670   66.3480 N.am  302  LEU302     -0.1978
      5  CA        40.0390    5.7050   66.5200 C.3   302  LEU302      0.1727
      6  C         40.3620    7.0410   65.8770 C.2   302  LEU302      0.2616
      7  O         40.5860    8.0300   66.5840 O.2   302  LEU302     -0.2715
      8  CB        40.8640    4.5600   65.9420 C.3   302  LEU302      0.0311
      9  CG        40.9820    3.4320   66.9820 C.3   302  LEU302      0.0022
     10  CD1       41.3430    2.1330   66.2940 C.3   302  LEU302      0.0001
     11  CD2       42.0090    3.8290   68.0420 C.3   302  LEU302      0.0001
     12  N         40.3770    7.1050   64.5470 N.am  303  LEU303     -0.1963
     13  CA        40.6310    8.3940   63.8850 C.3   303  LEU303      0.1728
     14  C         39.3750    9.2540   64.1650 C.2   303  LEU303      0.2612
     15  O         38.2660    8.7230   64.2560 O.2   303  LEU303     -0.2715
     16  CB        40.7910    8.2190   62.3760 C.3   303  LEU303      0.0311
     17  CG        42.0610    7.5480   61.8930 C.3   303  LEU303      0.0022
     18  CD1       42.0040    7.4430   60.3570 C.3   303  LEU303      0.0001
     19  CD2       43.2680    8.3550   62.3390 C.3   303  LEU303      0.0001
     20  N         39.5700   10.5570   64.3420 N.am  304  AR7304     -0.2031
     21  CA        38.4690   11.4450   64.6120 C.3   304  AR7304      0.1283
     22  C         38.1660   12.4020   63.4350 C.3   304  AR7304      0.2036
     23  O         37.9560   11.6570   62.2430 O.3   304  AR7304     -0.2185
     24  CB        38.7450   12.2270   65.8930 C.3   304  AR7304      0.0281
     25  CG        38.7540   11.3470   67.1220 C.3   304  AR7304      0.0488
     26  CD        39.1960   12.1430   68.3460 C.3   304  AR7304      0.2205
     27  NE        39.1330   11.3150   69.5520 N.pl3 304  AR7304     -0.0865
     28  CZ        39.3620   11.7660   70.7790 C.cat 304  AR7304      0.5346
     29  NH1       39.6670   13.0450   70.9780 N.pl3 304  AR7304      0.1354
     30  NH2       39.3030   10.9240   71.8020 N.pl3 304  AR7304      0.1354
@<TRIPOS>BOND
     1    18    17    1
     2    17    19    1
     3    17    16    1
     4    23    22    1
     5    16    13    1
     6    22    21    1
     7    13    14    1
     8    13    12    1
     9    14    15    2
    10    14    20   am
    11    20    21    1
    12    12     6   am
    13    21    24    1
    14     6     5    1
    15     6     7    2
    16    24    25    1
    17     8     5    1
    18     8     9    1
    19    10     9    1
    20     4     5    1
    21     4     1   am
    22     3     1    1
    23     9    11    1
    24    25    26    1
    25     1     2    2
    26    26    27    1
    27    27    28    2
    28    28    29    1
    29    28    30    1
