@<TRIPOS>MOLECULE
2f9p_III_E_1.pdb
 30 29 0 0 0
SMALL
GASTEIGER

@<TRIPOS>ATOM
      1  C          3.7450   -5.0760   67.0320 C.2   301  ACE301      0.2423
      2  O          3.4400   -5.0760   68.2250 O.2   301  ACE301     -0.2733
      3  CH3        5.1400   -4.7460   66.5800 C.3   301  ACE301      0.0964
      4  N          2.8740   -5.3660   66.0710 N.am  302  LEU302     -0.1978
      5  CA         1.4890   -5.7190   66.3570 C.3   302  LEU302      0.1727
      6  C          1.1780   -7.0490   65.6640 C.2   302  LEU302      0.2616
      7  O          0.9330   -8.0620   66.3290 O.2   302  LEU302     -0.2715
      8  CB         0.5890   -4.6130   65.8520 C.3   302  LEU302      0.0311
      9  CG        -0.4250   -3.9960   66.8130 C.3   302  LEU302      0.0022
     10  CD1        0.0730   -3.8860   68.2380 C.3   302  LEU302      0.0001
     11  CD2       -0.7780   -2.6440   66.2420 C.3   302  LEU302      0.0001
     12  N          1.1690   -7.0550   64.3350 N.am  303  LEU303     -0.1963
     13  CA         0.9440   -8.3170   63.6380 C.3   303  LEU303      0.1728
     14  C          2.2000   -9.1560   63.9020 C.2   303  LEU303      0.2612
     15  O          3.3210   -8.6200   63.9470 O.2   303  LEU303     -0.2715
     16  CB         0.7610   -8.1010   62.1330 C.3   303  LEU303      0.0311
     17  CG        -0.6140   -7.5470   61.7610 C.3   303  LEU303      0.0022
     18  CD1       -0.7040   -7.4540   60.2510 C.3   303  LEU303      0.0001
     19  CD2       -1.7200   -8.4270   62.3210 C.3   303  LEU303      0.0001
     20  N          2.0130  -10.4580   64.1180 N.am  304  AR7304     -0.2031
     21  CA         3.1330  -11.3460   64.3670 C.3   304  AR7304      0.1283
     22  C          3.4520  -12.2290   63.1470 C.3   304  AR7304      0.2036
     23  O          3.4890  -11.4210   61.9720 O.3   304  AR7304     -0.2185
     24  CB         2.8440  -12.1810   65.6090 C.3   304  AR7304      0.0281
     25  CG         2.8050  -11.3620   66.8650 C.3   304  AR7304      0.0488
     26  CD         2.4280  -12.1760   68.0770 C.3   304  AR7304      0.2205
     27  NE         2.4210  -11.3420   69.2870 N.pl3 304  AR7304     -0.0865
     28  CZ         2.0310  -11.7500   70.4980 C.cat 304  AR7304      0.5346
     29  NH1        1.5950  -13.0000   70.6890 N.pl3 304  AR7304      0.1354
     30  NH2        2.0840  -10.8950   71.5220 N.pl3 304  AR7304      0.1354
@<TRIPOS>BOND
     1    18    17    1
     2    17    16    1
     3    17    19    1
     4    23    22    1
     5    16    13    1
     6    22    21    1
     7    13    14    1
     8    13    12    1
     9    14    15    2
    10    14    20   am
    11    20    21    1
    12    12     6   am
    13    21    24    1
    14    24    25    1
    15     6     7    2
    16     6     5    1
    17     8     5    1
    18     8     9    1
    19     4     5    1
    20     4     1   am
    21    11     9    1
    22     3     1    1
    23     9    10    1
    24    25    26    1
    25     1     2    2
    26    26    27    1
    27    27    28    2
    28    28    29    1
    29    28    30    1
