@<TRIPOS>MOLECULE
2f9q_HEM_A_1.pdb
 43 50 0 0 0
SMALL
GASTEIGER

@<TRIPOS>ATOM
      1  CHA      -11.9710   52.9710   -8.6980 C.2   600  HEM600      0.0000
      2  CHB      -13.2810   48.3450   -8.2710 C.2   600  HEM600      0.0000
      3  CHC      -13.6480   48.6720   -3.4670 C.2   600  HEM600      0.0000
      4  CHD      -12.3460   53.3070   -3.8530 C.2   600  HEM600      0.0000
      5  C1A      -12.3210   51.6880   -8.9920 C.ar  600  HEM600      0.0000
      6  C2A      -12.4420   51.1510  -10.3190 C.ar  600  HEM600      0.0000
      7  C3A      -12.8070   49.8630  -10.2080 C.ar  600  HEM600      0.0000
      8  C4A      -12.9320   49.5530   -8.8020 C.ar  600  HEM600      0.0000
      9  CMA      -13.0380   48.8750  -11.3750 C.3   600  HEM600      0.0000
     10  CAA      -12.2100   51.9570  -11.6260 C.3   600  HEM600      0.0000
     11  CBA      -10.7400   52.3180  -11.8900 C.3   600  HEM600      0.0000
     12  CGA      -10.5660   52.8310  -13.3100 C.2   600  HEM600      0.0000
     13  O1A      -11.0080   53.9800  -13.5940 O.co2 600  HEM600      0.0000
     14  O2A       -9.9980   52.0800  -14.1300 O.co2 600  HEM600      0.0000
     15  C1B      -13.5180   48.0400   -6.9630 C.2   600  HEM600      0.0000
     16  C2B      -13.9950   46.7700   -6.4590 C.2   600  HEM600      0.0000
     17  C3B      -14.1010   46.8600   -5.1120 C.2   600  HEM600      0.0000
     18  C4B      -13.6950   48.1960   -4.7480 C.2   600  HEM600      0.0000
     19  CMB      -14.2950   45.5880   -7.3990 C.3   600  HEM600      0.0000
     20  CAB      -14.5440   45.8470   -4.0400 C.3   600  HEM600      0.0000
     21  CBB      -14.2790   44.3980   -4.4620 C.3   600  HEM600      0.0000
     22  C1C      -13.3060   49.9590   -3.1690 C.ar  600  HEM600      0.0000
     23  C2C      -13.4290   50.5310   -1.8500 C.ar  600  HEM600      0.0000
     24  C3C      -12.8690   51.7710   -1.9650 C.ar  600  HEM600      0.0000
     25  C4C      -12.6780   52.0810   -3.3610 C.ar  600  HEM600      0.0000
     26  CMC      -13.5410   49.6100   -0.5960 C.3   600  HEM600      0.0000
     27  CAC      -12.6400   52.8570   -0.8860 C.3   600  HEM600      0.0000
     28  CBC      -13.0150   52.4090    0.5470 C.3   600  HEM600      0.0000
     29  C1D      -12.1790   53.6900   -5.1620 C.2   600  HEM600      0.0000
     30  C2D      -11.9050   55.0360   -5.6190 C.2   600  HEM600      0.0000
     31  C3D      -11.7930   54.9360   -7.1390 C.2   600  HEM600      0.0000
     32  C4D      -11.9870   53.5320   -7.4470 C.2   600  HEM600      0.0000
     33  CMD      -11.7730   56.3040   -4.7700 C.3   600  HEM600      0.0000
     34  CAD      -11.5010   56.0810   -8.1250 C.3   600  HEM600      0.0000
     35  CBD      -10.0050   55.9910   -8.4930 C.3   600  HEM600      0.0000
     36  CGD       -9.4950   57.3070   -9.0480 C.2   600  HEM600      0.0000
     37  O1D       -8.3470   57.6660   -8.7310 O.co2 600  HEM600      0.0000
     38  O2D      -10.2090   58.0210   -9.7910 O.co2 600  HEM600      0.0000
     39  NA       -12.6240   50.6860   -8.1050 N.ar  600  HEM600      0.0000
     40  NB       -13.3470   48.8800   -5.9000 N.2   600  HEM600      0.0000
     41  NC       -12.9540   50.9540   -4.0790 N.ar  600  HEM600      0.0000
     42  ND       -12.2190   52.8370   -6.2650 N.2   600  HEM600      0.0000
     43 FE        -12.7960   50.7840   -6.1640 Fe    600  HEM600      0.0000
@<TRIPOS>BOND
     1    14    12   ar
     2    13    12   ar
     3    12    11    1
     4    11    10    1
     5    10     6    1
     6     9     7    1
     7     6     7   ar
     8     6     5   ar
     9     7     8   ar
    10    38    36   ar
    11    36    37   ar
    12    36    35    1
    13     5     1    2
    14     5    39   ar
    15     8     2    2
    16     8    39   ar
    17     1    32    1
    18    35    34    1
    19     2    15    1
    20    34    31    1
    21    39    43    1
    22    32    31    1
    23    32    42    2
    24    19    16    1
    25    31    30    2
    26    15    16    1
    27    15    40    2
    28    16    17    2
    29    42    43    1
    30    42    29    1
    31    43    40    1
    32    43    41    1
    33    40    18    1
    34    30    29    1
    35    30    33    1
    36    29     4    2
    37    17    18    1
    38    17    20    1
    39    18     3    2
    40    21    20    1
    41    41    25   ar
    42    41    22   ar
    43     4    25    1
    44     3    22    1
    45    25    24   ar
    46    22    23   ar
    47    24    23   ar
    48    24    27    1
    49    23    26    1
    50    27    28    1
