@<TRIPOS>MOLECULE
2f9v_BN6_A_1.pdb
 50 53 0 0 0
SMALL
GASTEIGER

@<TRIPOS>ATOM
      1  C1       191.1850  -10.7460   48.6260 C.2   999  BN6999      0.4215
      2  O2       191.8470  -11.6030   49.2300 O.2   999  BN6999     -0.2246
      3  O3       189.7790  -10.7020   48.5180 O.3   999  BN6999     -0.4335
      4  C4       188.8650  -11.4700   49.3690 C.3   999  BN6999      0.2100
      5  C5       188.1080  -10.7420   50.4920 C.3   999  BN6999      0.0439
      6  C6       187.6970   -9.3360   50.1170 C.3   999  BN6999      0.0038
      7  C7       188.8670  -10.7660   51.8050 C.3   999  BN6999      0.0038
      8  N8       191.7560   -9.7500   47.9440 N.am  999  BN6999     -0.1610
      9  C9       193.2010   -9.5480   47.9140 C.3   999  BN6999      0.1776
     10  C10      193.5820   -8.6330   46.7290 C.3   999  BN6999      0.0291
     11  C11      195.0740   -8.2760   46.7530 C.3   999  BN6999      0.0022
     12  C12      193.2910   -9.3330   45.3950 C.3   999  BN6999      0.0022
     13  C13      195.5050   -7.4270   45.5500 C.3   999  BN6999      0.0001
     14  C14      193.6930   -8.5140   44.1670 C.3   999  BN6999      0.0001
     15  C15      195.1690   -8.1340   44.2290 C.3   999  BN6999      0.0000
     16  C16      193.5440   -8.8590   49.2310 C.2   999  BN6999      0.2793
     17  O17      193.0750   -7.7410   49.4750 O.2   999  BN6999     -0.2698
     18  N18      194.3110   -9.5390   50.0860 N.am  999  BN6999     -0.1048
     19  C20      195.6560   -7.8540   50.9680 C.2   999  BN6999      0.3406
     20  O21      196.5970   -8.0290   50.1850 O.2   999  BN6999     -0.2491
     21  C22      194.6860   -9.4710   52.5600 C.3   999  BN6999      0.1185
     22  C23      194.0250  -10.8450   52.4970 C.3   999  BN6999      0.0218
     23  C24      192.6290  -10.9680   53.0930 C.3   999  BN6999      0.0018
     24  C25      193.8340  -11.6080   53.8140 C.3   999  BN6999      0.0018
     25  N26      195.4590   -6.7080   51.6160 N.am  999  BN6999     -0.1858
     26  C27      196.0800   -5.4670   51.1630 C.3   999  BN6999      0.1362
     27  C28      195.0320   -4.5310   50.5370 C.3   999  BN6999      0.0249
     28  C29      195.0980   -4.7140   49.0250 C.3   999  BN6999      0.0018
     29  C30      194.4740   -3.6740   48.0970 C.3   999  BN6999      0.0001
     30  C31      193.7640   -5.0150   48.3360 C.3   999  BN6999      0.0001
     31  O32      197.5990   -5.7530   53.0680 O.3   999  BN6999     -0.2113
     32  C33      196.8430   -4.7410   52.3070 C.3   999  BN6999      0.2487
     33  O34      197.6760   -2.8170   51.0880 O.2   999  BN6999     -0.2705
     34  C37      200.7800   -3.8450   49.8770 C.2   999  BN6999      0.2642
     35  N40      202.0880   -3.6700   49.7050 N.am  999  BN6999     -0.1895
     36  C41      202.7290   -3.6380   48.3970 C.3   999  BN6999      0.2200
     37  C42      202.4820   -2.3110   47.6110 C.ar  999  BN6999      0.0083
     38  C43      202.5640   -1.0190   48.2290 C.ar  999  BN6999     -0.0021
     39  C44      202.1880   -2.3600   46.2420 C.ar  999  BN6999     -0.0021
     40  C45      202.3760    0.1720   47.5100 C.ar  999  BN6999     -0.0003
     41  C46      201.9960   -1.1620   45.5150 C.ar  999  BN6999     -0.0003
     42  C47      202.0860    0.0900   46.1490 C.ar  999  BN6999     -0.0000
     43  C48      204.2280   -3.8730   48.6180 C.2   999  BN6999      0.3884
     44  O49      204.7710   -3.4810   49.6640 O.co2 999  BN6999     -0.2434
     45  O50      204.8900   -4.4520   47.7580 O.co2 999  BN6999     -0.2434
     46  N19      194.7740   -8.8290   51.2420 N.am  999  BN6999     -0.1704
     47  N35      199.0790   -4.5290   51.4640 N.am  999  BN6999     -0.1933
     48  C36      200.3400   -3.8280   51.3220 C.3   999  BN6999      0.2014
     49  O38      199.9770   -4.0030   48.9440 O.2   999  BN6999     -0.2714
     50  C39      197.9010   -3.9220   51.5600 C.2   999  BN6999      0.2741
@<TRIPOS>BOND
     1    14    15    1
     2    14    12    1
     3    15    13    1
     4    12    10    1
     5    41    42   ar
     6    41    39   ar
     7    13    11    1
     8    42    40   ar
     9    39    37   ar
    10    10    11    1
    11    10     9    1
    12    40    38   ar
    13    37    38   ar
    14    37    36    1
    15    45    43   ar
    16     9     8    1
    17     9    16    1
    18     8     1   am
    19    29    30    1
    20    29    28    1
    21    30    28    1
    22    36    43    1
    23    36    35    1
    24     3     1    1
    25     3     4    1
    26    43    44   ar
    27     1     2    2
    28    49    34    2
    29    28    27    1
    30    16    17    2
    31    16    18   am
    32     4     5    1
    33    35    34   am
    34    34    48    1
    35    18    46    1
    36     6     5    1
    37    20    19    2
    38     5     7    1
    39    27    26    1
    40    19    46   am
    41    19    25   am
    42    33    50    2
    43    26    25    1
    44    26    32    1
    45    46    21    1
    46    48    47    1
    47    47    50   am
    48    50    32    1
    49    32    31    1
    50    22    21    1
    51    22    23    1
    52    22    24    1
    53    23    24    1
