@<TRIPOS>MOLECULE
2f9w_PAU_A_1.pdb
 15 14 0 0 0
SMALL
GASTEIGER

@<TRIPOS>ATOM
      1  O2        28.3640   10.3390   63.2240 O.3   6001  PAU6001    -0.2203
      2  C1        26.9630    9.4360   64.9860 C.3   6001  PAU6001     0.0674
      3  C2        28.3740    9.5230   64.3990 C.3   6001  PAU6001     0.1849
      4  C3        27.0120    8.5790   66.2530 C.3   6001  PAU6001     0.0057
      5  C4        26.4880   10.8460   65.3480 C.3   6001  PAU6001     0.0057
      6  C5        26.0300    8.8120   63.9430 C.3   6001  PAU6001     0.2313
      7  O5'       26.5260    7.5270   63.5630 O.3   6001  PAU6001    -0.2131
      8  C6        24.5940    8.6740   64.4560 C.2   6001  PAU6001     0.2719
      9  O6'       23.8040    9.7790   64.4390 O.2   6001  PAU6001    -0.2706
     10  N         24.1920    7.4820   64.8900 N.am  6001  PAU6001    -0.2027
     11  C8        22.8300    7.2520   65.3970 C.3   6001  PAU6001     0.1270
     12  C9        22.8870    6.4670   66.7100 C.3   6001  PAU6001     0.1374
     13  C         23.5090    5.0810   66.5300 C.2   6001  PAU6001     0.3667
     14  OXT       24.2000    4.8820   65.5060 O.co2 6001  PAU6001    -0.2456
     15  O         23.2840    4.2450   67.4310 O.co2 6001  PAU6001    -0.2456
@<TRIPOS>BOND
     1     1     3    1
     2     7     6    1
     3     6     8    1
     4     6     2    1
     5     3     2    1
     6     9     8    2
     7     8    10   am
     8    10    11    1
     9     2     5    1
    10     2     4    1
    11    11    12    1
    12    14    13   ar
    13    13    12    1
    14    13    15   ar
