@<TRIPOS>MOLECULE
2fa1_BDF_B_1.pdb
 12 12 0 0 0
SMALL
GASTEIGER

@<TRIPOS>ATOM
      1  C1        29.0790   37.6490   48.6120 C.3     1  BDF1        0.2434
      2  C2        29.4930   37.4740   47.1470 C.3     1  BDF1        0.2807
      3  C3        28.9660   38.7210   46.3760 C.3     1  BDF1        0.2410
      4  C4        29.3230   38.5740   44.8720 C.3     1  BDF1        0.2198
      5  C5        28.8070   37.1900   44.4500 C.3     1  BDF1        0.2143
      6  C6        29.3380   35.9680   45.2110 C.3     1  BDF1        0.1803
      7  O1        27.6470   37.5870   48.6420 O.3     1  BDF1       -0.2148
      8  O2        30.9020   37.3750   47.1670 O.3     1  BDF1       -0.1896
      9  O3        29.5260   39.9110   47.0060 O.3     1  BDF1       -0.2149
     10  O4        28.4770   39.5540   44.2830 O.3     1  BDF1       -0.2174
     11  O5        27.3290   37.1600   44.3790 O.3     1  BDF1       -0.2176
     12  O6        28.9360   36.2790   46.5750 O.3     1  BDF1       -0.3254
@<TRIPOS>BOND
     1    10     4    1
     2    11     5    1
     3     5     4    1
     4     5     6    1
     5     4     3    1
     6     6    12    1
     7     3     9    1
     8     3     2    1
     9    12     2    1
    10     2     8    1
    11     2     1    1
    12     1     7    1
