@<TRIPOS>MOLECULE
2fac_PM4_A_1.pdb
 28 27 0 0 0
SMALL
GASTEIGER

@<TRIPOS>ATOM
      1  O23       10.8350   28.4040   25.4170 O.3   301  PM4301     -0.1425
      2  P24       10.3320   27.8000   24.0920 P.3   301  PM4301      0.3942
      3  O26        9.2100   26.8050   24.3640 O.3   301  PM4301     -0.1425
      4  O27        9.7790   28.9610   23.2420 O.3   301  PM4301     -0.2952
      5  C28        9.1560   28.7600   21.9940 C.3   301  PM4301      0.1537
      6  C29        8.5560   30.0940   21.5140 C.3   301  PM4301      0.0646
      7  C30        7.6000   29.8040   20.3390 C.3   301  PM4301      0.0056
      8  C31        7.7520   30.6860   22.6970 C.3   301  PM4301      0.0056
      9  C32        9.6600   31.0830   21.0710 C.3   301  PM4301      0.2312
     10  O33       10.3910   30.4870   19.9940 O.3   301  PM4301     -0.2131
     11  C34        8.9600   32.3650   20.5810 C.2   301  PM4301      0.2719
     12  O35        8.3860   33.1110   21.3770 O.2   301  PM4301     -0.2706
     13  N36        9.0040   32.6250   19.2770 N.am  301  PM4301     -0.2028
     14  C37        8.3720   33.8020   18.6700 C.3   301  PM4301      0.1248
     15  C38        8.9610   34.2310   17.3300 C.3   301  PM4301      0.1102
     16  C39       10.4070   34.6580   17.3930 C.2   301  PM4301      0.2432
     17  O40       11.3300   33.8440   17.3080 O.2   301  PM4301     -0.2733
     18  N41       10.5730   35.9710   17.5430 N.am  301  PM4301     -0.2044
     19  C42       11.8340   36.6950   17.6230 C.3   301  PM4301      0.1272
     20  C43       12.1760   37.1490   16.2090 C.3   301  PM4301      0.0883
     21  S1        13.6540   38.1410   15.8850 S.3   301  PM4301     -0.0753
     22  C1        13.4010   39.6810   16.7220 C.2   301  PM4301      0.1988
     23  O1        12.3750   39.8750   17.3630 O.2   301  PM4301     -0.2845
     24  C2        14.5100   40.7330   16.6010 C.3   301  PM4301      0.0759
     25  C3        14.0480   42.0180   15.9590 C.3   301  PM4301      0.0087
     26  C4        15.2110   42.9950   15.7680 C.3   301  PM4301      0.0005
     27  C5        15.9050   43.3650   17.0240 C.3   301  PM4301      0.0000
     28  C6        17.0290   44.3620   16.7030 C.3   301  PM4301      0.0000
@<TRIPOS>BOND
     1    26    25    1
     2    26    27    1
     3    21    20    1
     4    21    22    1
     5    25    24    1
     6    20    19    1
     7    24    22    1
     8    28    27    1
     9    22    23    2
    10    17    16    2
    11    15    16    1
    12    15    14    1
    13    16    18   am
    14    18    19    1
    15    14    13    1
    16    13    11   am
    17    10     9    1
    18     7     6    1
    19    11     9    1
    20    11    12    2
    21     9     6    1
    22     6     5    1
    23     6     8    1
    24     5     4    1
    25     4     2    1
    26     2     3    1
    27     2     1    1
