@<TRIPOS>MOLECULE
2fad_PM5_A_1.pdb
 29 28 0 0 0
SMALL
GASTEIGER

@<TRIPOS>ATOM
      1  O23       10.9670   28.5880   25.5760 O.3   301  PM5301     -0.1425
      2  P24       10.5700   28.0440   24.1860 P.3   301  PM5301      0.3942
      3  O26        9.5250   26.9280   24.3490 O.3   301  PM5301     -0.1425
      4  O27        9.9520   29.2060   23.3760 O.3   301  PM5301     -0.2952
      5  C28        9.4200   29.1610   22.0570 C.3   301  PM5301      0.1537
      6  C29        8.7760   30.5170   21.6840 C.3   301  PM5301      0.0646
      7  C30        7.7840   30.2500   20.5440 C.3   301  PM5301      0.0056
      8  C31        8.0020   31.0450   22.9040 C.3   301  PM5301      0.0056
      9  C32        9.8390   31.5520   21.2250 C.3   301  PM5301      0.2315
     10  O33       10.5040   31.0480   20.0630 O.3   301  PM5301     -0.2131
     11  C34        9.1370   32.8840   20.8820 C.2   301  PM5301      0.2758
     12  O35        8.5300   33.5120   21.7550 O.2   301  PM5301     -0.2702
     13  N36        9.2230   33.3170   19.6200 N.am  301  PM5301     -0.1800
     14  C37        8.6010   34.5570   19.1460 C.2   301  PM5301      0.0720
     15  C38        8.9980   35.0090   17.7310 C.3   301  PM5301      0.1309
     16  C39       10.4720   35.3370   17.5450 C.2   301  PM5301      0.2473
     17  O40       11.2830   34.4570   17.2730 O.2   301  PM5301     -0.2729
     18  N41       10.7670   36.6330   17.7000 N.am  301  PM5301     -0.2042
     19  C42       12.0760   37.3000   17.5900 C.3   301  PM5301      0.1272
     20  C43       12.4070   37.6550   16.1370 C.3   301  PM5301      0.0883
     21  S1        13.9430   38.6010   15.7600 S.3   301  PM5301     -0.0753
     22  C1        13.6370   40.1740   16.5850 C.2   301  PM5301      0.1988
     23  O1        12.5960   40.3490   17.1760 O.2   301  PM5301     -0.2845
     24  C2        14.6840   41.2820   16.5380 C.3   301  PM5301      0.0759
     25  C3        14.3710   42.3710   15.5080 C.3   301  PM5301      0.0087
     26  C4        15.3610   43.5460   15.6140 C.3   301  PM5301      0.0005
     27  C5        15.7180   43.9110   17.0650 C.3   301  PM5301      0.0000
     28  C6        16.7460   45.0410   17.1560 C.3   301  PM5301      0.0000
     29  C7        17.8280   44.9130   16.1020 C.3   301  PM5301      0.0000
@<TRIPOS>BOND
     1    25    26    1
     2    25    24    1
     3    26    27    1
     4    21    20    1
     5    21    22    1
     6    29    28    1
     7    20    19    1
     8    24    22    1
     9    22    23    2
    10    27    28    1
    11    17    16    2
    12    16    18   am
    13    16    15    1
    14    19    18    1
    15    15    14    1
    16    14    13    2
    17    13    11    1
    18    10     9    1
    19     7     6    1
    20    11     9    1
    21    11    12    2
    22     9     6    1
    23     6     5    1
    24     6     8    1
    25     5     4    1
    26     4     2    1
    27     2     3    1
    28     2     1    1
