@<TRIPOS>MOLECULE
2fae_PM8_A_1.pdb
 32 31 0 0 0
SMALL
GASTEIGER

@<TRIPOS>ATOM
      1  O23        7.9120   29.6350   26.3130 O.3   301  PM8301     -0.1425
      2  P24        7.3660   29.6220   24.8940 P.3   301  PM8301      0.3942
      3  O26        6.1450   28.7030   24.8090 O.3   301  PM8301     -0.1425
      4  O27        6.8500   31.0400   24.6240 O.3   301  PM8301     -0.2952
      5  C28        5.8910   30.8850   23.6290 C.3   301  PM8301      0.1537
      6  C29        5.0520   32.1730   23.6080 C.3   301  PM8301      0.0646
      7  C30        4.1670   32.0650   22.3990 C.3   301  PM8301      0.0056
      8  C31        4.1560   32.2270   24.8990 C.3   301  PM8301      0.0056
      9  C32        5.9510   33.4330   23.5700 C.3   301  PM8301      0.2312
     10  O33        6.8510   33.3310   22.4590 O.3   301  PM8301     -0.2131
     11  C34        5.1140   34.7450   23.4630 C.2   301  PM8301      0.2719
     12  O35        5.3170   35.6900   24.2440 O.2   301  PM8301     -0.2706
     13  N36        4.1810   34.7860   22.4980 N.am  301  PM8301     -0.2028
     14  C37        3.2740   35.9280   22.1980 C.3   301  PM8301      0.1248
     15  C38        2.5710   35.8090   20.7250 C.3   301  PM8301      0.1102
     16  C39        3.7090   35.6450   19.7690 C.2   301  PM8301      0.2432
     17  O40        3.8840   34.6110   19.0950 O.2   301  PM8301     -0.2733
     18  N41        4.5360   36.7160   19.6810 N.am  301  PM8301     -0.2044
     19  C42        5.7640   36.6490   18.9160 C.3   301  PM8301      0.1272
     20  C43        6.0420   36.7140   17.5090 C.3   301  PM8301      0.0883
     21  S1         7.8480   36.3400   17.1390 S.3   301  PM8301     -0.0753
     22  C1         8.9710   37.5050   17.8900 C.2   301  PM8301      0.1988
     23  O1         8.7470   37.9680   19.0050 O.2   301  PM8301     -0.2845
     24  C2        10.2140   37.9080   17.1050 C.3   301  PM8301      0.0759
     25  C3        10.2640   39.3810   16.8160 C.3   301  PM8301      0.0087
     26  C4        11.4900   39.7400   16.0170 C.3   301  PM8301      0.0005
     27  C5        11.4300   41.1940   15.5840 C.3   301  PM8301      0.0000
     28  C6        11.9780   42.1370   16.6310 C.3   301  PM8301      0.0000
     29  C7        13.1290   42.9460   16.0580 C.3   301  PM8301      0.0000
     30  C8        13.3060   44.2600   16.7920 C.3   301  PM8301      0.0000
     31  C9        14.7670   44.6190   16.8650 C.3   301  PM8301      0.0000
     32  C10       14.9760   46.0320   17.1680 C.3   301  PM8301      0.0000
@<TRIPOS>BOND
     1    27    26    1
     2    27    28    1
     3    26    25    1
     4    29    28    1
     5    29    30    1
     6    30    31    1
     7    25    24    1
     8    31    32    1
     9    24    22    1
    10    21    20    1
    11    21    22    1
    12    20    19    1
    13    22    23    2
    14    19    18    1
    15    17    16    2
    16    18    16   am
    17    16    15    1
    18    15    14    1
    19    14    13    1
    20     7     6    1
    21    10     9    1
    22    13    11   am
    23    11     9    1
    24    11    12    2
    25     9     6    1
    26     6     5    1
    27     6     8    1
    28     5     4    1
    29     4     2    1
    30     3     2    1
    31     2     1    1
