@<TRIPOS>MOLECULE
2faf_20S_B_1.pdb
 32 33 0 0 0
SMALL
GASTEIGER

@<TRIPOS>ATOM
      1  C4        21.3620  -56.5520   40.8020 C.2   1001  20S1001     0.3171
      2  C7        22.8470  -56.6630   40.5430 C.3   1001  20S1001     0.1099
      3  C8        23.4950  -55.2940   40.7800 C.3   1001  20S1001     0.0170
      4  C9        23.4040  -54.9210   42.2520 C.3   1001  20S1001     0.0350
      5  C10       23.7820  -53.4710   42.4520 C.2   1001  20S1001     0.0148
      6  C11       22.9110  -52.5780   42.2860 C.1   1001  20S1001    -0.1098
      7  C12       21.9800  -51.7680   42.0840 C.2   1001  20S1001     0.0152
      8  C1        15.7850  -52.6650   41.9360 C.3   1001  20S1001     0.1835
      9  C2        14.8980  -51.8860   40.9810 C.3   1001  20S1001     0.2167
     10  C3        15.8520  -50.7460   40.6110 C.3   1001  20S1001     0.2381
     11  C13       17.2110  -51.4450   40.5310 C.3   1001  20S1001     0.2516
     12  O2        17.0990  -52.6210   41.3430 O.3   1001  20S1001    -0.3272
     13  O4        13.7550  -51.3080   41.6420 O.3   1001  20S1001    -0.2175
     14  C17       15.4330  -54.1210   42.2260 C.3   1001  20S1001     0.2142
     15  O1        14.5600  -54.6350   41.2340 O.3   1001  20S1001    -0.2176
     16  C18       18.3590  -50.5870   41.0610 C.3   1001  20S1001     0.2406
     17  O3        18.3900  -49.3280   40.3670 O.3   1001  20S1001    -0.2149
     18  O5        15.5100  -50.1400   39.3570 O.3   1001  20S1001    -0.2150
     19  C21       18.7190  -52.1820   38.7120 C.3   1001  20S1001     0.2713
     20  C24       18.6330  -52.5880   37.2300 C.3   1001  20S1001     0.2406
     21  C27       18.0410  -53.9860   37.0110 C.3   1001  20S1001     0.2199
     22  C16       18.7300  -54.9800   37.9440 C.3   1001  20S1001     0.2155
     23  C29       18.6250  -54.4530   39.3700 C.3   1001  20S1001     0.1942
     24  O9        17.8830  -51.6170   36.4680 O.3   1001  20S1001    -0.2149
     25  O11       18.2030  -54.4120   35.6400 O.3   1001  20S1001    -0.2174
     26  O13       18.1570  -56.3070   37.8340 O.3   1001  20S1001    -0.2176
     27  O15       19.3410  -53.2100   39.4810 O.3   1001  20S1001    -0.3244
     28  O6        17.3790  -51.8970   39.1660 O.3   1001  20S1001    -0.3033
     29  C32       19.2020  -55.4120   40.3920 C.3   1001  20S1001     0.2405
     30  O17       20.6050  -55.5140   40.1450 O.3   1001  20S1001    -0.4457
     31  C31       22.1780  -50.2890   42.3130 C.3   1001  20S1001     0.0397
     32  O7        20.7620  -57.3070   41.5630 O.2   1001  20S1001    -0.2501
@<TRIPOS>BOND
     1    25    21    1
     2    24    20    1
     3    21    20    1
     4    21    22    1
     5    20    19    1
     6    26    22    1
     7    22    23    1
     8    19    28    1
     9    19    27    1
    10    28    11    1
    11    18    10    1
    12    23    27    1
    13    23    29    1
    14    30    29    1
    15    30     1    1
    16    17    16    1
    17    11    10    1
    18    11    16    1
    19    11    12    1
    20     2     3    1
    21     2     1    1
    22    10     9    1
    23     3     4    1
    24     1    32    2
    25     9    13    1
    26     9     8    1
    27    15    14    1
    28    12     8    1
    29     8    14    1
    30     7     6    2
    31     7    31    1
    32     4     5    1
    33     6     5    2
