@<TRIPOS>MOLECULE
2fah_GDP_A_1.pdb
 28 30 0 0 0
SMALL
GASTEIGER

@<TRIPOS>ATOM
      1  PB        14.4450   50.0890    4.9240 P.3   2000  GDP2000     0.5373
      2  O1B       15.9390   49.9290    4.7640 O.3   2000  GDP2000    -0.1143
      3  O2B       13.9150   48.9550    5.7590 O.3   2000  GDP2000    -0.1143
      4  O3B       13.7600   50.1590    3.5580 O.2   2000  GDP2000    -0.2221
      5  O3A       14.1180   51.5110    5.6280 O.3   2000  GDP2000    -0.2261
      6  PA        13.7140   51.7170    7.1800 P.3   2000  GDP2000     0.2231
      7  O1A       12.3150   51.2910    7.5250 O.2   2000  GDP2000    -0.5169
      8  O2A       14.7630   51.0430    8.0280 O.3   2000  GDP2000    -0.4370
      9  O5'       13.8440   53.3310    7.3000 O.3   2000  GDP2000    -0.3111
     10  C5'       14.8370   54.1180    6.6310 C.3   2000  GDP2000     0.1813
     11  C4'       14.7300   55.5660    7.1400 C.3   2000  GDP2000     0.1799
     12  O4'       13.4920   56.1390    6.7110 O.3   2000  GDP2000    -0.3326
     13  C3'       14.6960   55.5760    8.6590 C.3   2000  GDP2000     0.2158
     14  O3'       15.4600   56.6680    9.1640 O.3   2000  GDP2000    -0.2175
     15  C2'       13.2160   55.7200    9.0300 C.3   2000  GDP2000     0.2310
     16  O2'       12.9690   56.4410   10.2480 O.3   2000  GDP2000    -0.2158
     17  C1'       12.6570   56.4590    7.8360 C.3   2000  GDP2000     0.2293
     18  N9        11.2470   56.0870    7.6070 N.pl3 2000  GDP2000    -0.2354
     19  C8        10.6880   54.8620    7.5480 C.3   2000  GDP2000     0.2246
     20  N7         9.3610   54.9430    7.3000 N.2   2000  GDP2000    -0.2322
     21  C5         9.0730   56.2470    7.2070 C.2   2000  GDP2000     0.2182
     22  C6         7.8710   57.0590    6.9780 C.1   2000  GDP2000     0.2372
     23  O6         6.7840   56.4950    6.8130 O.2   2000  GDP2000    -0.2069
     24  N1         7.9870   58.3900    6.9430 N.2   2000  GDP2000    -0.2485
     25  C2         9.1560   59.0450    7.1280 C.1   2000  GDP2000     0.2531
     26  N2         9.1860   60.4190    7.0770 N.pl3 2000  GDP2000    -0.0226
     27  N3        10.3080   58.3620    7.3460 N.2   2000  GDP2000    -0.3074
     28  C4        10.3150   57.0000    7.4040 C.2   2000  GDP2000     0.2300
@<TRIPOS>BOND
     1     4     1    2
     2     2     1    1
     3     1     5    1
     4     1     3    1
     5     5     6    1
     6    10    11    1
     7    10     9    1
     8    12    11    1
     9    12    17    1
    10    23    22    2
    11    24    22    2
    12    24    25    2
    13    22    21    1
    14    26    25    1
    15    25    27    2
    16    11    13    1
    17     6     9    1
    18     6     7    2
    19     6     8    1
    20    21    20    2
    21    21    28    1
    22    20    19    1
    23    27    28    2
    24    28    18    1
    25    19    18    1
    26    18    17    1
    27    17    15    1
    28    13    15    1
    29    13    14    1
    30    15    16    1
