@<TRIPOS>MOLECULE
2fah_20S_C_1.pdb
 32 33 0 0 0
SMALL
GASTEIGER

@<TRIPOS>ATOM
      1  C4        80.0670   51.6770   71.3490 C.2   6003  20S6003     0.3171
      2  C7        78.6660   52.2630   71.4590 C.3   6003  20S6003     0.1106
      3  C8        77.6840   51.2400   72.0410 C.3   6003  20S6003     0.0256
      4  C9        78.1670   50.7150   73.3950 C.3   6003  20S6003     0.0766
      5  C10       78.3110   49.2540   73.3410 C.1   6003  20S6003    -0.0910
      6  C11       78.3550   48.0660   73.4030 C.1   6003  20S6003    -0.0911
      7  C12       78.4210   46.8390   73.7350 C.3   6003  20S6003     0.0761
      8  C1        84.5840   46.5190   70.2630 C.3   6003  20S6003     0.1835
      9  C2        84.7600   45.4560   69.1820 C.3   6003  20S6003     0.2167
     10  C3        83.5060   44.6220   69.3240 C.3   6003  20S6003     0.2381
     11  C13       82.4420   45.6090   69.8440 C.3   6003  20S6003     0.2516
     12  O2        83.1850   46.5660   70.5730 O.3   6003  20S6003    -0.3272
     13  O4        85.9310   44.6770   69.4340 O.3   6003  20S6003    -0.2175
     14  C17       85.0590   47.8980   69.8060 C.3   6003  20S6003     0.2142
     15  O1        86.4460   47.8350   69.4790 O.3   6003  20S6003    -0.2176
     16  C18       81.4430   45.0050   70.8230 C.3   6003  20S6003     0.2406
     17  O3        80.5910   43.9870   70.2750 O.3   6003  20S6003    -0.2149
     18  O5        83.1760   44.0790   68.0550 O.3   6003  20S6003    -0.2150
     19  C21       80.5440   46.8840   68.8400 C.3   6003  20S6003     0.2713
     20  C24       80.1240   47.3500   67.4390 C.3   6003  20S6003     0.2406
     21  C27       81.0010   48.5080   66.9440 C.3   6003  20S6003     0.2199
     22  C16       81.0730   49.5860   68.0190 C.3   6003  20S6003     0.2155
     23  C29       81.5330   48.9700   69.3440 C.3   6003  20S6003     0.1942
     24  O9        80.1640   46.2410   66.5270 O.3   6003  20S6003    -0.2149
     25  O11       80.4690   49.0740   65.7300 O.3   6003  20S6003    -0.2174
     26  O13       81.9650   50.6320   67.6550 O.3   6003  20S6003    -0.2176
     27  O15       80.5910   47.9910   69.7480 O.3   6003  20S6003    -0.3244
     28  O6        81.8330   46.2710   68.7190 O.3   6003  20S6003    -0.3033
     29  C32       81.6090   50.0130   70.4180 C.3   6003  20S6003     0.2405
     30  O17       80.2660   50.4390   70.6460 O.3   6003  20S6003    -0.4457
     31  C31       78.8480   45.7440   72.7890 C.3   6003  20S6003     0.0150
     32  O7        81.0630   52.2130   71.8250 O.2   6003  20S6003    -0.2501
@<TRIPOS>BOND
     1    25    21    1
     2    24    20    1
     3    21    20    1
     4    21    22    1
     5    20    19    1
     6    26    22    1
     7    22    23    1
     8    18    10    1
     9    28    19    1
    10    28    11    1
    11    19    27    1
    12     9    10    1
    13     9    13    1
    14     9     8    1
    15    10    11    1
    16    23    27    1
    17    23    29    1
    18    15    14    1
    19    14     8    1
    20    11    12    1
    21    11    16    1
    22     8    12    1
    23    17    16    1
    24    29    30    1
    25    30     1    1
    26     1     2    1
    27     1    32    2
    28     2     3    1
    29     3     4    1
    30    31     7    1
    31     5     4    1
    32     5     6    3
    33     6     7    1
