@<TRIPOS>MOLECULE
2fai_459_A_1.pdb
 20 22 0 0 0
SMALL
GASTEIGER

@<TRIPOS>ATOM
      1  CAT        3.6660    0.2770   -3.0930 C.3   101  459101      0.0006
      2  CAK        3.9640   -0.4210   -4.4090 C.3   101  459101      0.0115
      3  CAJ        5.4600   -0.4160   -4.7500 C.3   101  459101      0.0496
      4  CAN        5.5760   -1.4260   -5.8560 C.2   101  459101     -0.0458
      5  CAQ        6.7550   -2.4130   -5.8780 C.3   101  459101      0.0261
      6  CAP        4.5540   -1.4350   -6.8140 C.2   101  459101     -0.0344
      7  CAO        3.4280   -0.5890   -6.8690 C.3   101  459101      0.0303
      8  CAL        3.2010    0.2170   -5.5720 C.3   101  459101      0.0624
      9  CAR        1.7120    0.3400   -5.2700 C.3   101  459101      0.1847
     10  OAS        1.3190   -0.6960   -4.3670 O.3   101  459101     -0.2203
     11  CAM        3.7370    1.6170   -5.7650 C.3   101  459101      0.1452
     12  OAH        5.0690    1.4540   -6.2780 O.3   101  459101     -0.3514
     13  CAI        5.9280    0.9750   -5.2420 C.3   101  459101      0.1410
     14  CAD        7.3800    1.0900   -5.7800 C.ar  101  459101      0.0050
     15  CAC        7.7380    0.7920   -7.1010 C.ar  101  459101      0.0013
     16  CAB        9.0780    0.9200   -7.5080 C.ar  101  459101      0.0418
     17  CAA       10.0410    1.3690   -6.6040 C.ar  101  459101      0.1957
     18  OAG       11.3500    1.5310   -6.9570 O.3   101  459101     -0.2866
     19  CAF        9.6670    1.6780   -5.3040 C.ar  101  459101      0.0418
     20  CAE        8.3500    1.5390   -4.9020 C.ar  101  459101      0.0013
@<TRIPOS>BOND
     1    16    15   ar
     2    16    17   ar
     3    15    14   ar
     4    18    17    1
     5     7     6    1
     6     7     8    1
     7     6     4    2
     8    17    19   ar
     9    12    11    1
    10    12    13    1
    11     5     4    1
    12     4     3    1
    13    14    13    1
    14    14    20   ar
    15    11     8    1
    16     8     9    1
    17     8     2    1
    18    19    20   ar
    19     9    10    1
    20    13     3    1
    21     3     2    1
    22     2     1    1
