@<TRIPOS>MOLECULE
2fak_SA1_2_1.pdb
 20 22 0 0 0
SMALL
GASTEIGER

@<TRIPOS>ATOM
      1  C1        25.4100 -158.2940   57.3910 C.3     0  SA10        0.1433
      2  O2        25.5780 -159.4530   58.1970 O.3     0  SA10       -0.3550
      3  C3        24.3610 -160.2790   58.1660 C.3     0  SA10        0.1358
      4  C4        23.2740 -159.7600   59.1860 C.3     0  SA10        0.0333
      5  C5        24.0180 -160.0930   56.6950 C.3     0  SA10        0.1358
      6  C6        24.9560 -161.0840   56.0780 C.1     0  SA10        0.1278
      7  O7        25.2970 -161.0550   54.9210 O.2     0  SA10       -0.2270
      8  N8        25.3440 -161.9640   57.0070 N.2     0  SA10       -0.1976
      9  C9        24.7720 -161.7560   58.3510 C.3     0  SA10        0.2040
     10  C10       23.6490 -162.8490   58.4790 C.3     0  SA10        0.1864
     11  C11       23.9050 -164.3170   58.1740 C.3     0  SA10        0.0546
     12  C12       22.6780 -165.1590   58.4220 C.2     0  SA10       -0.0284
     13  C13       22.7260 -166.4390   58.8740 C.2     0  SA10       -0.0306
     14  C14       24.0340 -167.1800   59.1820 C.3     0  SA10        0.0257
     15  C15       25.2520 -166.4220   58.6280 C.3     0  SA10        0.0051
     16  C16       25.0690 -164.9450   58.9640 C.3     0  SA10        0.0073
     17  O17       22.5220 -162.3910   57.6610 O.3     0  SA10       -0.2202
     18  C18       25.8510 -161.8880   59.3390 C.2     0  SA10        0.2348
     19  O19       26.9820 -162.2670   59.0000 O.2     0  SA10       -0.2860
     20  C20       24.3720 -158.6600   56.3700 C.3     0  SA10        0.0511
@<TRIPOS>BOND
     1     7     6    2
     2     6     5    1
     3     6     8    2
     4    20     5    1
     5    20     1    1
     6     5     3    1
     7     8     9    1
     8     1     2    1
     9    17    10    1
    10     3     2    1
    11     3     9    1
    12     3     4    1
    13    11    12    1
    14    11    10    1
    15    11    16    1
    16     9    10    1
    17     9    18    1
    18    12    13    2
    19    15    16    1
    20    15    14    1
    21    13    14    1
    22    19    18    2
