@<TRIPOS>MOLECULE
2fal_HEM_A_1.pdb
 43 50 0 0 0
SMALL
GASTEIGER

@<TRIPOS>ATOM
      1 FE         58.4620   -2.1950   48.5930 Fe    148  HEM148      0.0000
      2  CHA       59.4370    0.9520   48.7770 C.2   148  HEM148      0.0000
      3  CHB       59.2980   -2.3860   45.2760 C.2   148  HEM148      0.0000
      4  CHC       57.3450   -5.4330   48.4220 C.2   148  HEM148      0.0000
      5  CHD       57.3810   -1.9890   51.8660 C.2   148  HEM148      0.0000
      6  NA        59.3210   -0.9940   47.3600 N.ar  148  HEM148      0.0000
      7  C1A       59.8640    0.2470   47.6570 C.ar  148  HEM148      0.0000
      8  C2A       60.1930    0.9150   46.3900 C.ar  148  HEM148      0.0000
      9  C3A       60.2380   -0.0390   45.4540 C.ar  148  HEM148      0.0000
     10  C4A       59.5330   -1.1920   45.9950 C.ar  148  HEM148      0.0000
     11  CMA       60.4070    0.1280   43.9320 C.3   148  HEM148      0.0000
     12  CAA       60.4840    2.4290   46.1370 C.3   148  HEM148      0.0000
     13  CBA       61.9580    2.6050   46.5100 C.3   148  HEM148      0.0000
     14  CGA       62.5080    3.9880   46.3900 C.2   148  HEM148      0.0000
     15  O1A       62.9710    4.5170   47.4240 O.co2 148  HEM148      0.0000
     16  O2A       62.4970    4.5330   45.2670 O.co2 148  HEM148      0.0000
     17  NB        58.3030   -3.5980   47.1480 N.2   148  HEM148      0.0000
     18  C1B       58.7630   -3.4940   45.8810 C.2   148  HEM148      0.0000
     19  C2B       58.5560   -4.7680   45.2030 C.2   148  HEM148      0.0000
     20  C3B       57.9370   -5.6200   46.0040 C.2   148  HEM148      0.0000
     21  C4B       57.9240   -4.9360   47.2960 C.2   148  HEM148      0.0000
     22  CMB       58.8910   -5.0440   43.7370 C.3   148  HEM148      0.0000
     23  CAB       57.4160   -7.0150   45.4890 C.2   148  HEM148      0.0000
     24  CBB       56.5320   -7.8260   46.0380 C.2   148  HEM148      0.0000
     25  NC        57.6160   -3.3900   49.7940 N.ar  148  HEM148      0.0000
     26  C1C       57.3220   -4.7570   49.6290 C.ar  148  HEM148      0.0000
     27  C2C       56.6690   -5.3150   50.8090 C.ar  148  HEM148      0.0000
     28  C3C       56.6820   -4.3500   51.7330 C.ar  148  HEM148      0.0000
     29  C4C       57.3620   -3.1900   51.1460 C.ar  148  HEM148      0.0000
     30  CMC       56.1460   -6.7750   51.0160 C.3   148  HEM148      0.0000
     31  CAC       55.9570   -4.2270   53.0770 C.2   148  HEM148      0.0000
     32  CBC       55.6140   -5.3450   53.7160 C.2   148  HEM148      0.0000
     33  ND        58.4030   -0.8430   50.0970 N.2   148  HEM148      0.0000
     34  C1D       58.0590   -0.8810   51.4040 C.2   148  HEM148      0.0000
     35  C2D       58.3040    0.3800   52.0990 C.2   148  HEM148      0.0000
     36  C3D       58.9610    1.1660   51.2530 C.2   148  HEM148      0.0000
     37  C4D       58.9820    0.4100   49.9800 C.2   148  HEM148      0.0000
     38  CMD       57.6650    0.5670   53.4790 C.3   148  HEM148      0.0000
     39  CAD       59.1720    2.7280   51.1640 C.3   148  HEM148      0.0000
     40  CBD       58.4790    3.6580   52.1550 C.3   148  HEM148      0.0000
     41  CGD       56.9860    3.5830   52.2800 C.2   148  HEM148      0.0000
     42  O1D       56.4840    3.5570   53.4490 O.co2 148  HEM148      0.0000
     43  O2D       56.3490    3.7050   51.2110 O.co2 148  HEM148      0.0000
@<TRIPOS>BOND
     1    22    19    1
     2    11     9    1
     3    19    18    1
     4    19    20    2
     5    16    14   ar
     6     3    18    1
     7     3    10    2
     8     9    10   ar
     9     9     8   ar
    10    23    20    1
    11    23    24    2
    12    18    17    2
    13    10     6   ar
    14    20    21    1
    15    12     8    1
    16    12    13    1
    17    14    13    1
    18    14    15   ar
    19     8     7   ar
    20    17    21    1
    21    17     1    1
    22    21     4    2
    23     6     7   ar
    24     6     1    1
    25     7     2    2
    26     4    26    1
    27     1    25    1
    28     1    33    1
    29     2    37    1
    30    26    25   ar
    31    26    27   ar
    32    25    29   ar
    33    37    33    2
    34    37    36    1
    35    33    34    1
    36    27    30    1
    37    27    28   ar
    38    29    28   ar
    39    29     5    1
    40    39    36    1
    41    39    40    1
    42    43    41   ar
    43    36    35    2
    44    34     5    2
    45    34    35    1
    46    28    31    1
    47    35    38    1
    48    40    41    1
    49    41    42   ar
    50    31    32    2
