@<TRIPOS>MOLECULE
2fam_HEM_A_1.pdb
 43 50 0 0 0
SMALL
GASTEIGER

@<TRIPOS>ATOM
      1 FE         58.5910   -2.3970   48.9860 Fe    148  HEM148      0.0000
      2  CHA       59.2790    0.9180   48.9750 C.2   148  HEM148      0.0000
      3  CHB       59.1610   -2.5290   45.6790 C.2   148  HEM148      0.0000
      4  CHC       57.5560   -5.7460   48.8090 C.2   148  HEM148      0.0000
      5  CHD       57.6970   -2.2390   52.1500 C.2   148  HEM148      0.0000
      6  NA        59.2170   -1.1380   47.6830 N.ar  148  HEM148      0.0000
      7  C1A       59.3440    0.2340   47.7880 C.ar  148  HEM148      0.0000
      8  C2A       59.7190    0.8780   46.5290 C.ar  148  HEM148      0.0000
      9  C3A       59.8270   -0.1250   45.6380 C.ar  148  HEM148      0.0000
     10  C4A       59.4280   -1.3580   46.3340 C.ar  148  HEM148      0.0000
     11  CMA       60.3060   -0.0320   44.1710 C.3   148  HEM148      0.0000
     12  CAA       60.3030    2.3090   46.4150 C.3   148  HEM148      0.0000
     13  CBA       59.4360    3.2090   45.5120 C.3   148  HEM148      0.0000
     14  CGA       59.8700    4.6460   45.3810 C.2   148  HEM148      0.0000
     15  O1A       60.1340    5.0770   44.2370 O.co2 148  HEM148      0.0000
     16  O2A       59.9210    5.3510   46.4120 O.co2 148  HEM148      0.0000
     17  NB        58.3200   -3.8440   47.5610 N.2   148  HEM148      0.0000
     18  C1B       58.7650   -3.7060   46.2620 C.2   148  HEM148      0.0000
     19  C2B       58.5570   -4.9370   45.5000 C.2   148  HEM148      0.0000
     20  C3B       58.0730   -5.8500   46.3610 C.2   148  HEM148      0.0000
     21  C4B       57.9840   -5.1750   47.6490 C.2   148  HEM148      0.0000
     22  CMB       58.8840   -5.1580   44.0090 C.3   148  HEM148      0.0000
     23  CAB       57.7950   -7.3400   46.1010 C.2   148  HEM148      0.0000
     24  CBB       56.5510   -7.7880   46.1850 C.2   148  HEM148      0.0000
     25  NC        57.9010   -3.6650   50.1230 N.ar  148  HEM148      0.0000
     26  C1C       57.3980   -4.9440   49.9000 C.ar  148  HEM148      0.0000
     27  C2C       56.8570   -5.5150   51.1180 C.ar  148  HEM148      0.0000
     28  C3C       56.9430   -4.5260   52.0160 C.ar  148  HEM148      0.0000
     29  C4C       57.3950   -3.3160   51.3540 C.ar  148  HEM148      0.0000
     30  CMC       56.4520   -6.9800   51.3440 C.3   148  HEM148      0.0000
     31  CAC       56.3310   -4.4970   53.4180 C.2   148  HEM148      0.0000
     32  CBC       56.0650   -5.6420   54.0360 C.2   148  HEM148      0.0000
     33  ND        58.4240   -0.9250   50.2900 N.2   148  HEM148      0.0000
     34  C1D       58.1990   -1.0760   51.6360 C.2   148  HEM148      0.0000
     35  C2D       58.2600    0.2110   52.3250 C.2   148  HEM148      0.0000
     36  C3D       58.7010    1.1110   51.4320 C.2   148  HEM148      0.0000
     37  C4D       58.8390    0.3800   50.1650 C.2   148  HEM148      0.0000
     38  CMD       57.6320    0.4980   53.7000 C.3   148  HEM148      0.0000
     39  CAD       58.9420    2.6130   51.6920 C.3   148  HEM148      0.0000
     40  CBD       58.3810    3.4880   50.5600 C.3   148  HEM148      0.0000
     41  CGD       57.1610    4.1320   51.1180 C.2   148  HEM148      0.0000
     42  O1D       56.8120    5.2460   50.6750 O.co2 148  HEM148      0.0000
     43  O2D       56.6180    3.5030   52.0500 O.co2 148  HEM148      0.0000
@<TRIPOS>BOND
     1    22    19    1
     2    11     9    1
     3    15    14   ar
     4    14    13    1
     5    14    16   ar
     6    19    18    1
     7    19    20    2
     8    13    12    1
     9     9    10   ar
    10     9     8   ar
    11     3    18    1
    12     3    10    2
    13    23    24    2
    14    23    20    1
    15    18    17    2
    16    10     6   ar
    17    20    21    1
    18    12     8    1
    19     8     7   ar
    20    17    21    1
    21    17     1    1
    22    21     4    2
    23     6     7   ar
    24     6     1    1
    25     7     2    2
    26     4    26    1
    27     2    37    1
    28     1    25    1
    29     1    33    1
    30    26    25   ar
    31    26    27   ar
    32    25    29   ar
    33    37    33    2
    34    37    36    1
    35    33    34    1
    36    40    41    1
    37    40    39    1
    38    42    41   ar
    39    27    30    1
    40    27    28   ar
    41    41    43   ar
    42    29    28   ar
    43    29     5    1
    44    36    39    1
    45    36    35    2
    46    34     5    2
    47    34    35    1
    48    28    31    1
    49    35    38    1
    50    31    32    2
