@<TRIPOS>MOLECULE
2faq_ATP_A_1.pdb
 31 33 0 0 0
SMALL
GASTEIGER

@<TRIPOS>ATOM
      1  PG         6.0200   25.3500   35.5460 P.3   1304  ATP1304     0.5373
      2  O1G        5.8770   26.4730   34.5850 O.2   1304  ATP1304    -0.2221
      3  O2G        7.2250   25.6730   36.5420 O.3   1304  ATP1304    -0.1143
      4  O3G        4.6670   25.1640   36.3920 O.3   1304  ATP1304    -0.1143
      5  PB         5.8980   23.8570   33.2660 P.3   1304  ATP1304     0.2277
      6  O1B        4.4990   24.3210   33.1610 O.3   1304  ATP1304    -0.4368
      7  O2B        5.9750   22.3230   32.7940 O.2   1304  ATP1304    -0.5168
      8  O3B        6.4130   23.9470   34.8010 O.3   1304  ATP1304    -0.2258
      9  PA         8.3830   24.3760   32.2660 P.3   1304  ATP1304     0.2189
     10  O1A        9.2040   25.6060   32.4360 O.2   1304  ATP1304    -0.5170
     11  O2A        8.7510   23.3320   33.4280 O.3   1304  ATP1304    -0.4371
     12  O3A        6.8010   24.7910   32.2910 O.3   1304  ATP1304    -0.2700
     13  O5'        8.7130   23.7080   30.8470 O.3   1304  ATP1304    -0.3112
     14  C5'        8.4390   24.6700   29.8300 C.3   1304  ATP1304     0.1813
     15  C4'        8.1860   24.0160   28.4770 C.3   1304  ATP1304     0.1821
     16  O4'        9.1980   24.4650   27.5230 O.3   1304  ATP1304    -0.3135
     17  C3'        8.2630   22.4650   28.5460 C.3   1304  ATP1304     0.2184
     18  O3'        6.9770   21.8740   28.3020 O.3   1304  ATP1304    -0.2174
     19  C2'        9.3070   22.0370   27.5080 C.3   1304  ATP1304     0.2570
     20  O2'        8.7210   21.2810   26.4440 O.3   1304  ATP1304    -0.2130
     21  C1'        9.9640   23.3380   27.0140 C.3   1304  ATP1304     0.3186
     22  N9        11.3830   23.4480   27.4340 N.pl3 1304  ATP1304    -0.1439
     23  C8        11.9330   23.0660   28.6370 C.3   1304  ATP1304     0.3377
     24  N7        13.2120   23.3060   28.6560 N.2   1304  ATP1304    -0.2095
     25  C5        13.5780   23.8590   27.4750 C.2   1304  ATP1304     0.2526
     26  C6        14.8070   24.3160   26.9090 C.2   1304  ATP1304     0.4393
     27  N6        15.9850   24.2550   27.6320 N.pl3 1304  ATP1304     0.2180
     28  N1        14.7980   24.8280   25.6540 N.2   1304  ATP1304     0.0021
     29  C2        13.6720   24.8950   24.9350 C.3   1304  ATP1304     0.5254
     30  N3        12.5010   24.4730   25.4260 N.2   1304  ATP1304    -0.0055
     31  C4        12.4100   23.9480   26.6650 C.2   1304  ATP1304     0.3518
@<TRIPOS>BOND
     1    29    30    1
     2    29    28    1
     3    30    31    2
     4    28    26    2
     5    20    19    1
     6    31    22    1
     7    31    25    1
     8    26    25    1
     9    26    27    1
    10    21    22    1
    11    21    19    1
    12    21    16    1
    13    22    23    1
    14    25    24    2
    15    19    17    1
    16    16    15    1
    17    18    17    1
    18    15    17    1
    19    15    14    1
    20    23    24    1
    21    14    13    1
    22    13     9    1
    23     9    12    1
    24     9    10    2
    25     9    11    1
    26    12     5    1
    27     7     5    2
    28     6     5    1
    29     5     8    1
    30     2     1    2
    31     8     1    1
    32     1     4    1
    33     1     3    1
