@<TRIPOS>MOLECULE
2far_DTP_A_1.pdb
 30 32 0 0 0
SMALL
GASTEIGER

@<TRIPOS>ATOM
      1  PG         5.9030   25.3910   35.5710 P.3   1304  DTP1304     0.5373
      2  O1G        5.6160   26.4810   34.6070 O.2   1304  DTP1304    -0.2221
      3  O2G        7.0260   25.8870   36.6100 O.3   1304  DTP1304    -0.1143
      4  O3G        4.5800   25.0270   36.3980 O.3   1304  DTP1304    -0.1143
      5  PB         5.9010   23.8300   33.3350 P.3   1304  DTP1304     0.2277
      6  O1B        4.4700   24.1770   33.2780 O.3   1304  DTP1304    -0.4368
      7  O2B        6.0430   22.2690   32.9880 O.2   1304  DTP1304    -0.5168
      8  O3B        6.5020   24.0640   34.8260 O.3   1304  DTP1304    -0.2258
      9  PA         8.3040   24.5060   32.2350 P.3   1304  DTP1304     0.2189
     10  O1A        8.8220   24.8600   30.8930 O.2   1304  DTP1304    -0.5170
     11  O2A        8.6880   22.9830   32.5460 O.3   1304  DTP1304    -0.4371
     12  O3A        6.6860   24.7320   32.2300 O.3   1304  DTP1304    -0.2700
     13  O5'        9.0190   25.4550   33.3530 O.3   1304  DTP1304    -0.3112
     14  C5'        8.7580   26.8410   33.0740 C.3   1304  DTP1304     0.1813
     15  C4'        9.4430   27.7240   34.1450 C.3   1304  DTP1304     0.1795
     16  O4'        9.8060   26.9370   35.3140 O.3   1304  DTP1304    -0.3155
     17  C3'       10.7510   28.3390   33.6280 C.3   1304  DTP1304     0.1883
     18  O3'       10.5090   29.5910   32.9800 O.3   1304  DTP1304    -0.2202
     19  C2'       11.6340   28.4890   34.8770 C.3   1304  DTP1304     0.1151
     20  C1'       11.0050   27.5160   35.9180 C.3   1304  DTP1304     0.2873
     21  N9        11.9700   26.4470   36.2820 N.pl3 1304  DTP1304    -0.1460
     22  C8        12.5270   25.5140   35.4380 C.3   1304  DTP1304     0.3377
     23  N7        13.3240   24.7200   36.0960 N.2   1304  DTP1304    -0.2095
     24  C5        13.3450   25.0830   37.4050 C.2   1304  DTP1304     0.2526
     25  C6        13.9940   24.5960   38.5880 C.2   1304  DTP1304     0.4393
     26  N6        14.8670   23.5160   38.5280 N.pl3 1304  DTP1304     0.2180
     27  N1        13.7630   25.2240   39.7660 N.2   1304  DTP1304     0.0021
     28  C2        12.9250   26.2670   39.8510 C.3   1304  DTP1304     0.5254
     29  N3        12.2960   26.7510   38.7710 N.2   1304  DTP1304    -0.0055
     30  C4        12.4530   26.1820   37.5500 C.2   1304  DTP1304     0.3518
@<TRIPOS>BOND
     1    10     9    2
     2    12     9    1
     3    12     5    1
     4     9    11    1
     5     9    13    1
     6    18    17    1
     7     7     5    2
     8    14    13    1
     9    14    15    1
    10     6     5    1
    11     5     8    1
    12    17    15    1
    13    17    19    1
    14    15    16    1
    15     2     1    2
    16     8     1    1
    17    19    20    1
    18    16    20    1
    19    22    23    1
    20    22    21    1
    21     1     4    1
    22     1     3    1
    23    20    21    1
    24    23    24    2
    25    21    30    1
    26    24    30    1
    27    24    25    1
    28    30    29    2
    29    26    25    1
    30    25    27    2
    31    29    28    1
    32    27    28    1
