@<TRIPOS>MOLECULE
2fav_APR_B_1.pdb
 36 39 0 0 0
SMALL
GASTEIGER

@<TRIPOS>ATOM
      1  N1        14.2340   17.9390   18.2740 N.2   477  APR477      0.0021
      2  C2        15.5040   17.7150   18.6810 C.3   477  APR477      0.5254
      3  N3        16.4330   18.7010   18.6690 N.2   477  APR477     -0.0055
      4  C4        16.0630   19.9620   18.2580 C.2   477  APR477      0.3518
      5  C5        14.6970   20.2740   17.8400 C.2   477  APR477      0.2526
      6  C6        13.7590   19.1460   17.8750 C.2   477  APR477      0.4393
      7  N6        12.4600   19.3350   17.5230 N.pl3 477  APR477      0.2180
      8  N7        14.6530   21.6060   17.5230 N.2   477  APR477     -0.2095
      9  C8        15.9040   22.0900   17.7090 C.3   477  APR477      0.3377
     10  N9        16.7390   21.1030   18.1260 N.pl3 477  APR477     -0.1439
     11  C1'       18.1590   21.1720   18.5100 C.3   477  APR477      0.3186
     12  C2'       18.9620   22.3490   17.9750 C.3   477  APR477      0.2570
     13  O2'       19.5290   22.0250   16.7070 O.3   477  APR477     -0.2130
     14  C3'       20.0220   22.5120   19.0680 C.3   477  APR477      0.2184
     15  O3'       21.0800   21.5090   18.9500 O.3   477  APR477     -0.2174
     16  O4'       18.1080   21.3810   19.9160 O.3   477  APR477     -0.3135
     17  C4'       19.2250   22.1770   20.3280 C.3   477  APR477      0.1821
     18  C5'       18.7710   23.4590   21.0630 C.3   477  APR477      0.1813
     19  O5'       18.2330   24.3760   20.0980 O.3   477  APR477     -0.3112
     20  PA        17.1260   25.4600   20.5070 P.3   477  APR477      0.2189
     21  O1A       15.8560   24.7160   20.8190 O.3   477  APR477     -0.4371
     22  O2A       17.1580   26.4940   19.3890 O.2   477  APR477     -0.5170
     23  O3A       17.6080   26.0210   21.9310 O.3   477  APR477     -0.2703
     24  PB        18.5780   27.2390   22.3500 P.3   477  APR477      0.2189
     25  O1B       18.8830   27.0020   23.8200 O.3   477  APR477     -0.4371
     26  O2B       19.7190   27.3690   21.3720 O.2   477  APR477     -0.5170
     27  O5D       17.6760   28.5410   22.1180 O.3   477  APR477     -0.3112
     28  C5D       16.6070   28.8610   23.0220 C.3   477  APR477      0.1813
     29  O4D       15.0200   29.1310   21.2530 O.3   477  APR477     -0.3237
     30  O1D       12.9910   27.9960   20.9500 O.3   477  APR477     -0.1869
     31  C1D       13.5910   29.2040   21.3810 C.3   477  APR477      0.3023
     32  O2D       12.1110   29.8920   23.2020 O.3   477  APR477     -0.2148
     33  C2D       13.4150   29.3930   22.8770 C.3   477  APR477      0.2433
     34  O3D       14.2850   31.6770   22.9660 O.3   477  APR477     -0.2175
     35  C3D       14.5740   30.3020   23.2570 C.3   477  APR477      0.2168
     36  C4D       15.6710   29.8280   22.3140 C.3   477  APR477      0.1807
@<TRIPOS>BOND
     1    13    12    1
     2     7     6    1
     3     8     9    1
     4     8     5    2
     5     9    10    1
     6     5     6    1
     7     5     4    1
     8     6     1    2
     9    12    11    1
    10    12    14    1
    11    10     4    1
    12    10    11    1
    13     4     3    2
    14     1     2    1
    15    11    16    1
    16     3     2    1
    17    15    14    1
    18    14    17    1
    19    22    20    2
    20    16    17    1
    21    19    20    1
    22    19    18    1
    23    17    18    1
    24    20    21    1
    25    20    23    1
    26    30    31    1
    27    29    31    1
    28    29    36    1
    29    26    24    2
    30    31    33    1
    31    23    24    1
    32    27    24    1
    33    27    28    1
    34    36    28    1
    35    36    35    1
    36    24    25    1
    37    33    32    1
    38    33    35    1
    39    34    35    1
