@<TRIPOS>MOLECULE
2fax_FMN_A_1.pdb
 31 33 0 0 0
SMALL
GASTEIGER

@<TRIPOS>ATOM
      1  N1        27.4070   14.1470   15.7600 N.2   139  FMN139     -0.2887
      2  C2        27.5120   13.9110   17.0920 C.1   139  FMN139      0.3669
      3  O2        26.5040   13.7000   17.7400 O.2   139  FMN139     -0.1744
      4  N3        28.7780   13.9190   17.6940 N.2   139  FMN139     -0.2300
      5  C4        29.9780   14.1490   17.0430 C.1   139  FMN139      0.2513
      6  O4        31.0520   14.1410   17.6170 O.2   139  FMN139     -0.2057
      7  C4A       29.8450   14.3950   15.5790 C.2   139  FMN139      0.2706
      8  N5        30.9170   14.5620   14.8620 N.2   139  FMN139     -0.3841
      9  C5A       30.7490   14.6980   13.4860 C.2   139  FMN139      0.1452
     10  C6        31.9090   14.8170   12.6660 C.2   139  FMN139      0.0252
     11  C7        31.8350   15.0320   11.3210 C.2   139  FMN139     -0.0375
     12  C7M       33.1060   15.1110   10.5300 C.3   139  FMN139      0.0268
     13  C8        30.5520   15.1610   10.7000 C.3   139  FMN139      0.0417
     14  C8M       30.3700   15.5450    9.2320 C.3   139  FMN139      0.0091
     15  C9        29.3950   14.9590   11.4690 C.2   139  FMN139     -0.0049
     16  C9A       29.4720   14.7600   12.8610 C.2   139  FMN139      0.0795
     17  N10       28.3500   14.5650   13.6660 N.pl3 139  FMN139     -0.2545
     18  C10       28.4810   14.3790   15.0330 C.2   139  FMN139      0.2449
     19  C1'       27.0230   14.5220   13.0350 C.3   139  FMN139      0.1336
     20  C2'       26.4730   15.9290   12.7790 C.3   139  FMN139      0.2048
     21  O2'       26.5030   16.7020   13.9830 O.3   139  FMN139     -0.2185
     22  C3'       25.0240   15.8240   12.2840 C.3   139  FMN139      0.2165
     23  O3'       25.0020   15.1170   11.0390 O.3   139  FMN139     -0.2175
     24  C4'       24.2310   17.1320   12.1490 C.3   139  FMN139      0.2147
     25  O4'       22.8590   16.8270   11.8610 O.3   139  FMN139     -0.2176
     26  C5'       24.8620   18.0280   11.0770 C.3   139  FMN139      0.1892
     27  O5'       24.2340   19.3000   11.0570 O.3   139  FMN139     -0.2674
     28  P         24.6280   20.3620    9.9930 P.3   139  FMN139      0.5327
     29  O1P       23.9700   21.5640   10.4500 O.3   139  FMN139     -0.1145
     30  O2P       26.1090   20.4160    9.8900 O.3   139  FMN139     -0.1145
     31  O3P       23.9850   19.9550    8.6360 O.2   139  FMN139     -0.2224
@<TRIPOS>BOND
     1    31    28    2
     2    14    13    1
     3    30    28    1
     4    28    29    1
     5    28    27    1
     6    12    11    1
     7    13    11    1
     8    13    15    1
     9    23    22    1
    10    27    26    1
    11    26    24    1
    12    11    10    2
    13    15    16    2
    14    25    24    1
    15    24    22    1
    16    22    20    1
    17    10     9    1
    18    20    19    1
    19    20    21    1
    20    16     9    1
    21    16    17    1
    22    19    17    1
    23     9     8    2
    24    17    18    1
    25     8     7    2
    26    18     7    1
    27    18     1    2
    28     7     5    1
    29     1     2    2
    30     5     6    2
    31     5     4    2
    32     2     4    2
    33     2     3    2
