@<TRIPOS>MOLECULE
2fb2_SAM_A_1.pdb
 27 29 0 0 0
SMALL
GASTEIGER

@<TRIPOS>ATOM
      1  N         16.6500   70.7240   10.7880 N.3   501  SAM501     -0.1208
      2  CA        18.0230   70.1800   10.9260 C.3   501  SAM501      0.1952
      3  C         17.9090   68.6920   11.2090 C.2   501  SAM501      0.3819
      4  O         16.7900   68.1940   11.4820 O.co2 501  SAM501     -0.2441
      5  OXT       18.9240   68.0030   11.2070 O.co2 501  SAM501     -0.2441
      6  CB        18.8360   70.8290   12.0680 C.3   501  SAM501      0.0414
      7  CG        18.0930   71.2910   13.3280 C.3   501  SAM501      0.0503
      8  SD        17.1800   70.0290   14.2450 S.3   501  SAM501     -0.1761
      9  CE        16.3800   70.9010   15.6220 C.3   501  SAM501      0.0590
     10  C5'       18.6050   69.2970   15.1030 C.3   501  SAM501      0.0806
     11  C4'       18.4120   67.9230   15.7370 C.3   501  SAM501      0.1622
     12  O4'       17.6060   68.0130   16.9130 O.3   501  SAM501     -0.3153
     13  C3'       17.7730   66.8650   14.8400 C.3   501  SAM501      0.2168
     14  O3'       18.7350   65.8810   14.4270 O.3   501  SAM501     -0.2175
     15  C2'       16.7090   66.2890   15.7650 C.3   501  SAM501      0.2569
     16  O2'       16.5260   64.8970   15.6370 O.3   501  SAM501     -0.2130
     17  C1'       17.1840   66.6970   17.1580 C.3   501  SAM501      0.3185
     18  N9        16.1180   66.5570   18.1870 N.pl3 501  SAM501     -0.1439
     19  C8        15.0160   67.3570   18.3710 C.3   501  SAM501      0.3377
     20  N7        14.2890   66.8490   19.4050 N.2   501  SAM501     -0.2095
     21  C5        14.9020   65.7360   19.8870 C.2   501  SAM501      0.2526
     22  C6        14.6020   64.8440   20.9260 C.2   501  SAM501      0.4393
     23  N6        13.5020   65.0010   21.6670 N.pl3 501  SAM501      0.2180
     24  N1        15.4520   63.7780   21.1810 N.2   501  SAM501      0.0021
     25  C2        16.5900   63.5940   20.4200 C.3   501  SAM501      0.5254
     26  N3        16.8860   64.4870   19.3990 N.2   501  SAM501     -0.0055
     27  C4        16.0620   65.5400   19.1270 C.2   501  SAM501      0.3518
@<TRIPOS>BOND
     1     1     2    1
     2     2     3    1
     3     2     6    1
     4     5     3   ar
     5     3     4   ar
     6     6     7    1
     7     7     8    1
     8     8    10    1
     9     8     9    1
    10    14    13    1
    11    13    11    1
    12    13    15    1
    13    10    11    1
    14    16    15    1
    15    11    12    1
    16    15    17    1
    17    12    17    1
    18    17    18    1
    19    18    19    1
    20    18    27    1
    21    19    20    1
    22    27    26    2
    23    27    21    1
    24    26    25    1
    25    20    21    2
    26    21    22    1
    27    25    24    1
    28    22    24    2
    29    22    23    1
