@<TRIPOS>MOLECULE
2fb3_GTP_A_1.pdb
 32 34 0 0 0
SMALL
GASTEIGER

@<TRIPOS>ATOM
      1  PG        30.2310   67.1840   14.3080 P.3   404  GTP404      0.5373
      2  O1G       30.7540   68.4480   13.6750 O.3   404  GTP404     -0.1143
      3  O2G       31.3340   66.3680   14.9800 O.3   404  GTP404     -0.1143
      4  O3G       29.5450   66.2780   13.3140 O.2   404  GTP404     -0.2221
      5  O3B       29.2690   67.8330   15.4300 O.3   404  GTP404     -0.2258
      6  PB        27.8100   67.3360   15.8860 P.3   404  GTP404      0.2277
      7  O1B       27.5180   65.8970   15.5230 O.2   404  GTP404     -0.5168
      8  O2B       27.6370   67.5780   17.3730 O.3   404  GTP404     -0.4368
      9  O3A       26.8680   68.3650   15.0600 O.3   404  GTP404     -0.2700
     10  PA        25.2720   68.1490   14.8580 P.3   404  GTP404      0.2189
     11  O1A       25.0000   67.8410   13.4020 O.2   404  GTP404     -0.5170
     12  O2A       24.5890   69.4350   15.2610 O.3   404  GTP404     -0.4371
     13  O5'       24.9320   66.8990   15.8420 O.3   404  GTP404     -0.3112
     14  C5'       23.9700   65.9090   15.5400 C.3   404  GTP404      0.1813
     15  C4'       23.2410   65.4530   16.8090 C.3   404  GTP404      0.1799
     16  O4'       24.1220   65.2900   17.9280 O.3   404  GTP404     -0.3326
     17  C3'       22.1140   66.3890   17.2510 C.3   404  GTP404      0.2158
     18  O3'       20.8700   65.9590   16.7400 O.3   404  GTP404     -0.2175
     19  C2'       22.1420   66.3240   18.7840 C.3   404  GTP404      0.2310
     20  O2'       21.0430   65.6730   19.4180 O.3   404  GTP404     -0.2158
     21  C1'       23.4940   65.6790   19.1470 C.3   404  GTP404      0.2293
     22  N9        24.1880   66.8010   19.8210 N.pl3 404  GTP404     -0.2354
     23  C8        25.0330   67.7160   19.2170 C.3   404  GTP404      0.2246
     24  N7        25.4340   68.6190   20.1460 N.2   404  GTP404     -0.2322
     25  C5        24.8420   68.3020   21.3360 C.2   404  GTP404      0.2182
     26  C6        24.9230   68.8860   22.5880 C.1   404  GTP404      0.2372
     27  O6        25.6190   69.8860   22.7230 O.2   404  GTP404     -0.2069
     28  N1        24.2230   68.3560   23.6610 N.2   404  GTP404     -0.2485
     29  C2        23.4230   67.2360   23.5080 C.1   404  GTP404      0.2531
     30  N2        22.7500   66.7930   24.5740 N.pl3 404  GTP404     -0.0226
     31  N3        23.3460   66.6300   22.2330 N.2   404  GTP404     -0.3074
     32  C4        24.0480   67.1580   21.1660 C.2   404  GTP404      0.2300
@<TRIPOS>BOND
     1     4     1    2
     2    11    10    2
     3     2     1    1
     4     1     3    1
     5     1     5    1
     6    10     9    1
     7    10    12    1
     8    10    13    1
     9     9     6    1
    10     5     6    1
    11     7     6    2
    12    14    13    1
    13    14    15    1
    14     6     8    1
    15    18    17    1
    16    15    17    1
    17    15    16    1
    18    17    19    1
    19    16    21    1
    20    19    21    1
    21    19    20    1
    22    21    22    1
    23    23    22    1
    24    23    24    1
    25    22    32    1
    26    24    25    2
    27    32    25    1
    28    32    31    2
    29    25    26    1
    30    31    29    2
    31    26    27    2
    32    26    28    2
    33    29    28    2
    34    29    30    1
