@<TRIPOS>MOLECULE
2fb8_215_A_1.pdb
 34 38 0 0 0
SMALL
GASTEIGER

@<TRIPOS>ATOM
      1  C3       -40.2150   28.1860   -1.2220 C.2   102  215102      0.1740
      2  C5       -40.0400   30.3740   -1.0660 C.1   102  215102      0.1379
      3  C6       -40.3950   31.8590   -1.0180 C.ar  102  215102      0.0858
      4  C21      -41.7370   32.3100   -0.9810 C.ar  102  215102      0.0151
      5  C23      -41.1560   37.0120    0.2430 C.3   102  215102      0.2226
      6  C31      -41.9050   22.3800   -0.0430 C.2   102  215102      0.0174
      7  C32      -42.5880   22.9610   -1.2680 C.2   102  215102      0.0961
      8  O34      -44.0520   22.6690   -3.0790 O.3   102  215102     -0.0608
      9  N33      -43.4000   22.2460   -1.9310 N.4   102  215102     -0.1002
     10  C30      -40.9450   23.4730    0.4440 C.2   102  215102     -0.0023
     11  C29      -41.1920   24.6410   -0.5050 C.2   102  215102     -0.0126
     12  C9       -40.5810   25.8900   -0.4460 C.2   102  215102     -0.0009
     13  C28      -42.1260   24.3710   -1.4790 C.3   102  215102      0.0866
     14  C10      -42.4830   25.3530   -2.4220 C.2   102  215102     -0.0159
     15  C11      -41.8510   26.6170   -2.3630 C.2   102  215102     -0.0012
     16  C8       -40.8810   26.8680   -1.3890 C.2   102  215102      0.0325
     17  C2       -38.8780   28.4470   -0.9090 C.2   102  215102      0.1741
     18  C7       -37.7210   27.4730   -0.6630 C.ar  102  215102      0.0362
     19  C16      -37.7670   26.1150   -1.0170 C.ar  102  215102      0.0233
     20  C15      -36.7040   25.2790   -0.7270 C.ar  102  215102      0.0990
     21  N14      -35.6290   25.7380   -0.0900 N.ar  102  215102     -0.2423
     22  C13      -35.5430   27.0090    0.2830 C.ar  102  215102      0.0990
     23  C12      -36.5820   27.8980    0.0210 C.ar  102  215102      0.0233
     24  N4       -40.8830   29.3550   -1.3000 N.2   102  215102     -0.3372
     25  N1       -38.8260   29.7950   -0.8210 N.2   102  215102     -0.3372
     26  C20      -42.0980   33.6850   -0.9090 C.ar  102  215102      0.0376
     27  C19      -41.0950   34.6630   -0.8070 C.ar  102  215102      0.1387
     28  C18      -39.7560   34.1980   -0.8300 C.ar  102  215102      0.0376
     29  C17      -39.4040   32.8330   -0.9160 C.ar  102  215102      0.0151
     30  O22      -41.3980   36.0270   -0.7640 O.3   102  215102     -0.4740
     31  C24      -42.3800   37.9000    0.0650 C.3   102  215102      0.1201
     32  N25      -43.6490   37.3560    0.6590 N.3   102  215102     -0.2672
     33  C27      -44.5760   36.5610   -0.2100 C.3   102  215102      0.0898
     34  C26      -43.3550   36.6260    1.9160 C.3   102  215102      0.0898
@<TRIPOS>BOND
     1     8     9    1
     2    14    15    2
     3    14    13    1
     4    15    16    1
     5     9     7    1
     6    13     7    1
     7    13    11    1
     8    16     1    1
     9    16    12    2
    10    24     1    2
    11    24     2    2
    12     7     6    2
    13     1    17    1
    14     2     3    1
    15     2    25    2
    16     3     4   ar
    17     3    29   ar
    18    19    20   ar
    19    19    18   ar
    20     4    26   ar
    21    29    28   ar
    22    26    27   ar
    23    17    25    2
    24    17    18    1
    25    28    27   ar
    26    27    30    1
    27    30     5    1
    28    20    21   ar
    29    18    23   ar
    30    11    12    1
    31    11    10    2
    32    33    32    1
    33    21    22   ar
    34     6    10    1
    35    23    22   ar
    36    31     5    1
    37    31    32    1
    38    32    34    1
