@<TRIPOS>MOLECULE
2fbr_44C_A_1.pdb
 37 40 0 0 0
SMALL
GASTEIGER

@<TRIPOS>ATOM
      1  C1        22.4160   41.3100   26.8910 C.ar  173  44C173      0.0066
      2  C2        22.4250   41.2100   25.5120 C.ar  173  44C173      0.0002
      3  C3        21.4020   41.7850   24.7310 C.ar  173  44C173      0.0000
      4  C4        20.3690   42.4690   25.4280 C.ar  173  44C173      0.0002
      5  C5        20.3610   42.5640   26.8080 C.ar  173  44C173      0.0066
      6  C6        21.3830   41.9880   27.5540 C.ar  173  44C173      0.0798
      7  C7        21.4100   41.6870   23.3370 C.ar  173  44C173      0.0002
      8  C8        21.4670   40.4280   22.6650 C.ar  173  44C173      0.0031
      9  C9        21.4750   40.3320   21.2860 C.ar  173  44C173      0.0369
     10  C10       21.4280   41.4900   20.5190 C.ar  173  44C173      0.1386
     11  C11       21.3720   42.7380   21.1470 C.ar  173  44C173      0.0369
     12  C12       21.3630   42.8390   22.5270 C.ar  173  44C173      0.0031
     13  C13       21.3850   42.0880   29.0500 C.2   173  44C173      0.3878
     14  O14       22.2800   41.5600   29.7180 O.co2 173  44C173     -0.2406
     15  O15       20.3900   42.7660   29.6850 O.co2 173  44C173     -0.2406
     16  O16       21.4640   41.3750   19.0920 O.3   173  44C173     -0.4755
     17  C17       21.7350   42.5440   18.1340 C.3   173  44C173      0.2055
     18  C18       20.7560   42.6240   16.9080 C.3   173  44C173      0.0512
     19  C19       22.1570   42.1350   14.6640 C.3   173  44C173      0.2055
     20  C20       21.1000   41.6440   15.7160 C.3   173  44C173      0.0512
     21  O21       21.5100   42.7200   13.5850 O.3   173  44C173     -0.4755
     22  C22       21.5040   42.3810   12.2280 C.ar  173  44C173      0.1386
     23  C23       21.0290   41.1630   11.8610 C.ar  173  44C173      0.0382
     24  C24       21.0040   40.8470   10.4950 C.ar  173  44C173      0.0196
     25  C25       21.4660   41.7340    9.4740 C.ar  173  44C173      0.0707
     26  C26       21.9130   42.9550    9.8390 C.ar  173  44C173      0.0196
     27  C27       21.9400   43.2700   11.2040 C.ar  173  44C173      0.0382
     28  N28       21.4350   41.4830    8.0320 N.pl3 173  44C173     -0.2123
     29  C29       21.1090   42.2270    6.8640 C.ar  173  44C173      0.0768
     30  C30       20.2010   43.3090    7.0180 C.ar  173  44C173      0.0167
     31  C31       19.8770   44.0230    5.9240 C.ar  173  44C173      0.0013
     32  C32       20.4410   43.6620    4.6550 C.ar  173  44C173      0.0003
     33  C33       21.3190   42.5750    4.4700 C.ar  173  44C173      0.0079
     34  C34       21.6600   41.8270    5.5580 C.ar  173  44C173      0.0950
     35  C35       22.6040   40.6380    5.2120 C.2   173  44C173      0.3890
     36  O36       23.1040   40.3590    3.9240 O.co2 173  44C173     -0.2405
     37  O37       22.9270   39.8980    6.0860 O.co2 173  44C173     -0.2405
@<TRIPOS>BOND
     1    36    35   ar
     2    33    32   ar
     3    33    34   ar
     4    32    31   ar
     5    35    34    1
     6    35    37   ar
     7    34    29   ar
     8    31    30   ar
     9    29    30   ar
    10    29    28    1
    11    28    25    1
    12    25    26   ar
    13    25    24   ar
    14    26    27   ar
    15    24    23   ar
    16    27    22   ar
    17    23    22   ar
    18    22    21    1
    19    21    19    1
    20    19    20    1
    21    20    18    1
    22    18    17    1
    23    17    16    1
    24    16    10    1
    25    10    11   ar
    26    10     9   ar
    27    11    12   ar
    28     9     8   ar
    29    12     7   ar
    30     8     7   ar
    31     7     3    1
    32     3     4   ar
    33     3     2   ar
    34     4     5   ar
    35     2     1   ar
    36     5     6   ar
    37     1     6   ar
    38     6    13    1
    39    13    15   ar
    40    13    14   ar
