@<TRIPOS>MOLECULE
2fbw_CBE_C_1.pdb
 16 17 0 0 0
SMALL
GASTEIGER

@<TRIPOS>ATOM
      1  C1        14.4960   13.8390    9.3580 C.3   144  CBE144      0.0335
      2  C2        13.4770   14.6420   10.0170 C.3   144  CBE144      0.1340
      3  C3        13.0640   15.8920    9.5270 C.3   144  CBE144      0.1530
      4  S4        11.7560   16.3280    9.7740 S.3   144  CBE144     -0.1269
      5  C5        11.1680   16.1530   11.0830 C.3   144  CBE144      0.0901
      6  C6        11.1450   14.6870   11.4770 C.3   144  CBE144      0.1537
      7  O7        12.8040   13.9640   11.4640 O.3   144  CBE144     -0.3539
      8  C8        13.6510   16.5070    8.2860 C.2   144  CBE144      0.2576
      9  O9        12.9390   17.0820    7.4810 O.2   144  CBE144     -0.2720
     10  N10       14.9460   16.8590    8.4690 N.am  144  CBE144     -0.1784
     11  C11       15.8100   17.2660    7.5290 C.ar  144  CBE144      0.0734
     12  C12       17.0580   17.8070    7.9430 C.ar  144  CBE144      0.0166
     13  C13       18.0070   18.2580    6.9660 C.ar  144  CBE144      0.0013
     14  C14       17.6850   18.1550    5.5620 C.ar  144  CBE144      0.0001
     15  C15       16.4280   17.6040    5.1200 C.ar  144  CBE144      0.0013
     16  C16       15.4910   17.1600    6.1060 C.ar  144  CBE144      0.0166
@<TRIPOS>BOND
     1    15    14   ar
     2    15    16   ar
     3    14    13   ar
     4    16    11   ar
     5    13    12   ar
     6     9     8    2
     7    11    12   ar
     8    11    10    1
     9     8    10   am
    10     8     3    1
    11     1     2    1
    12     3     4    1
    13     3     2    1
    14     4     5    1
    15     2     7    1
    16     5     6    1
    17     7     6    1
