@<TRIPOS>MOLECULE
2fbz_HEM_X_1.pdb
 43 50 0 0 0
SMALL
GASTEIGER

@<TRIPOS>ATOM
      1 FE         -0.2000   29.3350    8.7150 Fe    901  HEM901      0.0000
      2  CHA        1.6290   31.9960    9.6650 C.2   901  HEM901      0.0000
      3  CHB       -1.0550   30.9370    5.8510 C.2   901  HEM901      0.0000
      4  CHC       -1.5730   26.4380    7.4900 C.2   901  HEM901      0.0000
      5  CHD        0.3430   27.8190   11.6770 C.2   901  HEM901      0.0000
      6  NA         0.1460   31.1910    7.9420 N.ar  901  HEM901      0.0000
      7  C1A        1.0290   32.1070    8.4230 C.ar  901  HEM901      0.0000
      8  C2A        1.2120   33.1730    7.4570 C.ar  901  HEM901      0.0000
      9  C3A        0.3910   32.8790    6.4060 C.ar  901  HEM901      0.0000
     10  C4A       -0.2610   31.6370    6.7290 C.ar  901  HEM901      0.0000
     11  CMA        0.2170   33.6980    5.1560 C.3   901  HEM901      0.0000
     12  CAA        2.2160   34.2990    7.5120 C.3   901  HEM901      0.0000
     13  CBA        3.5520   33.7010    7.0790 C.3   901  HEM901      0.0000
     14  CGA        4.6710   34.7270    7.0340 C.2   901  HEM901      0.0000
     15  O1A        5.8560   34.3310    7.1310 O.co2 901  HEM901      0.0000
     16  O2A        4.3730   35.9300    6.9020 O.co2 901  HEM901      0.0000
     17  NB        -1.1870   28.8100    7.0150 N.2   901  HEM901      0.0000
     18  C1B       -1.5090   29.6300    5.9780 C.2   901  HEM901      0.0000
     19  C2B       -2.2600   28.9290    4.9660 C.2   901  HEM901      0.0000
     20  C3B       -2.3720   27.6680    5.3700 C.2   901  HEM901      0.0000
     21  C4B       -1.6860   27.5750    6.6680 C.2   901  HEM901      0.0000
     22  CMB       -2.8780   29.4920    3.6710 C.3   901  HEM901      0.0000
     23  CAB       -3.0310   26.6960    4.6190 C.2   901  HEM901      0.0000
     24  CBB       -3.8480   25.7730    5.2100 C.2   901  HEM901      0.0000
     25  NC        -0.5870   27.4560    9.4800 N.ar  901  HEM901      0.0000
     26  C1C       -1.0480   26.3630    8.7780 C.ar  901  HEM901      0.0000
     27  C2C       -1.0110   25.1770    9.5780 C.ar  901  HEM901      0.0000
     28  C3C       -0.5670   25.5560   10.8060 C.ar  901  HEM901      0.0000
     29  C4C       -0.2860   27.0190   10.7110 C.ar  901  HEM901      0.0000
     30  CMC       -1.3150   23.7910    9.0250 C.3   901  HEM901      0.0000
     31  CAC       -0.3930   24.7920   11.9630 C.3   901  HEM901      0.0000
     32  CBC       -0.8570   23.5120   12.2320 C.3   901  HEM901      0.0000
     33  ND         0.7200   29.8700   10.4190 N.2   901  HEM901      0.0000
     34  C1D        0.8130   29.1210   11.5540 C.2   901  HEM901      0.0000
     35  C2D        1.6320   29.7920   12.5140 C.2   901  HEM901      0.0000
     36  C3D        2.0500   30.9180   11.9010 C.2   901  HEM901      0.0000
     37  C4D        1.4770   30.9690   10.6130 C.2   901  HEM901      0.0000
     38  CMD        1.9970   29.3250   13.9320 C.3   901  HEM901      0.0000
     39  CAD        3.1340   31.8620   12.4010 C.3   901  HEM901      0.0000
     40  CBD        4.4760   31.4410   11.7930 C.3   901  HEM901      0.0000
     41  CGD        5.6130   32.3730   12.1680 C.2   901  HEM901      0.0000
     42  O1D        6.6220   32.3840   11.4370 O.co2 901  HEM901      0.0000
     43  O2D        5.4990   33.0910   13.1850 O.co2 901  HEM901      0.0000
@<TRIPOS>BOND
     1    22    19    1
     2    23    24    2
     3    23    20    1
     4    19    20    2
     5    19    18    1
     6    11     9    1
     7    20    21    1
     8     3    18    1
     9     3    10    2
    10    18    17    2
    11     9    10   ar
    12     9     8   ar
    13    21    17    1
    14    21     4    2
    15    10     6   ar
    16    16    14   ar
    17    17     1    1
    18    14    13    1
    19    14    15   ar
    20    13    12    1
    21     8    12    1
    22     8     7   ar
    23     4    26    1
    24     6     7   ar
    25     6     1    1
    26     7     2    2
    27     1    25    1
    28     1    33    1
    29    26    25   ar
    30    26    27   ar
    31    30    27    1
    32    25    29   ar
    33    27    28   ar
    34     2    37    1
    35    33    37    2
    36    33    34    1
    37    37    36    1
    38    29    28   ar
    39    29     5    1
    40    28    31    1
    41    42    41   ar
    42    34     5    2
    43    34    35    1
    44    40    41    1
    45    40    39    1
    46    36    39    1
    47    36    35    2
    48    31    32    1
    49    41    43   ar
    50    35    38    1
