@<TRIPOS>MOLECULE
2fbz_H2B_X_1.pdb
 17 18 0 0 0
SMALL
GASTEIGER

@<TRIPOS>ATOM
      1  N1         3.6790   39.6920    7.9350 N.2   903  H2B903     -0.2672
      2  C2         4.0480   38.4970    7.4600 C.1   903  H2B903      0.2609
      3  N2         3.2130   37.8180    6.6710 N.pl3 903  H2B903     -0.0220
      4  N3         5.2470   37.9750    7.7400 N.2   903  H2B903     -0.2466
      5  C4         6.1220   38.6300    8.5010 C.1   903  H2B903      0.2569
      6  O4         7.2490   38.1870    8.7400 O.2   903  H2B903     -0.2052
      7  C4A        5.7610   39.8690    9.0680 C.2   903  H2B903      0.2989
      8  C8A        4.4890   40.3920    8.7280 C.1   903  H2B903      0.1401
      9  N5         6.5770   40.5160    9.8980 N.2   903  H2B903     -0.3830
     10  N8         4.0930   41.5780    9.2080 N.2   903  H2B903     -0.1992
     11  C6         6.1020   41.7120   10.5590 C.2   903  H2B903      0.1466
     12  C7         4.9190   42.3550   10.0050 C.3   903  H2B903      0.1940
     13  C9         7.1690   42.4030   11.3950 C.3   903  H2B903      0.2313
     14  O9         8.0620   43.1060   10.5300 O.3   903  H2B903     -0.2130
     15  C10        6.5470   43.3940   12.4000 C.3   903  H2B903      0.1888
     16  C11        7.6330   44.0630   13.2440 C.3   903  H2B903      0.0387
     17  O10        5.6230   42.7030   13.2520 O.3   903  H2B903     -0.2200
@<TRIPOS>BOND
     1     3     2    1
     2     2     4    2
     3     2     1    2
     4     4     5    2
     5     1     8    2
     6     5     6    2
     7     5     7    1
     8     8     7    1
     9     8    10    2
    10     7     9    2
    11    10    12    1
    12     9    11    2
    13    12    11    1
    14    14    13    1
    15    11    13    1
    16    13    15    1
    17    15    16    1
    18    15    17    1
