@<TRIPOS>MOLECULE
2fbz_HAR_X_1.pdb
 13 12 0 0 0
SMALL
GASTEIGER

@<TRIPOS>ATOM
      1  N          6.5340   32.7590    4.9250 N.3   909  HAR909     -0.1208
      2  CA         7.1820   31.4670    4.7180 C.3   909  HAR909      0.1948
      3  C          7.8840   31.2410    3.3830 C.2   909  HAR909      0.3819
      4  O          8.5970   30.2290    3.2560 O.co2 909  HAR909     -0.2441
      5  CB         6.1080   30.4110    4.9950 C.3   909  HAR909      0.0385
      6  CG         5.6110   30.4060    6.4290 C.3   909  HAR909      0.0690
      7  CD         4.4440   29.4460    6.3930 C.2   909  HAR909      0.1664
      8  NE         3.3220   29.6320    5.4810 N.pl3 909  HAR909     -0.0628
      9  CZ         2.2150   29.0050    5.0970 C.2   909  HAR909      0.5328
     10  NH1        1.9700   27.8380    5.6490 N.4   909  HAR909      0.1137
     11  NH2        1.4740   29.6060    4.1780 N.pl3 909  HAR909      0.1352
     12  OH1        1.0030   27.1770    5.1220 O.3   909  HAR909      0.0294
     13  OXT        7.7050   32.0810    2.4800 O.co2 909  HAR909     -0.2441
@<TRIPOS>BOND
     1    13     3   ar
     2     4     3   ar
     3     3     2    1
     4    11     9    2
     5     2     1    1
     6     2     5    1
     7     5     6    1
     8     9     8    1
     9     9    10    1
    10    12    10    1
    11     8     7    2
    12     7     6    1
