@<TRIPOS>MOLECULE
2fc1_HBI_A_1.pdb
 17 18 0 0 0
SMALL
GASTEIGER

@<TRIPOS>ATOM
      1  N1         3.6900   40.2710    8.0150 N.2   903  HBI903     -0.2672
      2  N2         2.8030   38.2990    7.2170 N.pl3 903  HBI903     -0.0220
      3  C2         3.8490   38.9930    7.6580 C.1   903  HBI903      0.2609
      4  N3         5.0340   38.3810    7.7760 N.2   903  HBI903     -0.2466
      5  C4         6.0900   39.0250    8.2650 C.1   903  HBI903      0.2569
      6  O4         7.2130   38.5130    8.2770 O.2   903  HBI903     -0.2052
      7  C4A        5.9320   40.3200    8.7940 C.2   903  HBI903      0.2989
      8  C8A        4.6620   40.9280    8.6440 C.1   903  HBI903      0.1401
      9  N8         4.4450   42.1510    9.1320 N.2   903  HBI903     -0.1992
     10  C7         5.2610   42.6360   10.1350 C.3   903  HBI903      0.1940
     11  C6         6.6020   42.0870   10.2860 C.2   903  HBI903      0.1466
     12  N5         6.9120   40.9510    9.4280 N.2   903  HBI903     -0.3830
     13  C9         7.8390   42.9710   10.5670 C.3   903  HBI903      0.2313
     14  O9         7.5180   43.9720   11.5470 O.3   903  HBI903     -0.2130
     15  C10        9.1040   42.1870   11.0090 C.3   903  HBI903      0.1888
     16  O10       10.2810   42.9740   10.7730 O.3   903  HBI903     -0.2200
     17  C11        9.0220   41.8030   12.4850 C.3   903  HBI903      0.0387
@<TRIPOS>BOND
     1     2     3    1
     2     3     4    2
     3     3     1    2
     4     4     5    2
     5     1     8    2
     6     5     6    2
     7     5     7    1
     8     8     7    1
     9     8     9    2
    10     7    12    2
    11     9    10    1
    12    12    11    2
    13    10    11    1
    14    11    13    1
    15    13    15    1
    16    13    14    1
    17    16    15    1
    18    15    17    1
