@<TRIPOS>MOLECULE
2fc1_ARG_A_1.pdb
 12 11 0 0 0
SMALL
GASTEIGER

@<TRIPOS>ATOM
      1  N          6.4730   32.8270    4.8760 N.3   2000  ARG2000    -0.1208
      2  CA         7.0510   31.5090    4.6630 C.3   2000  ARG2000     0.1944
      3  C          7.6800   31.4190    3.2740 C.2   2000  ARG2000     0.3819
      4  O          8.5050   30.5420    3.0340 O.co2 2000  ARG2000    -0.2441
      5  CB         5.9770   30.4140    4.8090 C.3   2000  ARG2000     0.0343
      6  CG         5.3430   30.3180    6.2010 C.3   2000  ARG2000     0.0490
      7  CD         4.0910   29.4160    6.2180 C.3   2000  ARG2000     0.2205
      8  NE         3.1310   29.7910    5.1730 N.pl3 2000  ARG2000    -0.0865
      9  CZ         2.0610   29.0990    4.8230 C.cat 2000  ARG2000     0.5346
     10  NH1        1.8030   27.9100    5.3310 N.pl3 2000  ARG2000     0.1354
     11  NH2        1.2700   29.6070    3.9090 N.pl3 2000  ARG2000     0.1354
     12  OXT        7.3730   32.2140    2.3870 O.co2 2000  ARG2000    -0.2441
@<TRIPOS>BOND
     1    12     3   ar
     2     4     3   ar
     3     3     2    1
     4    11     9    1
     5     2     5    1
     6     2     1    1
     7     5     6    1
     8     9     8    2
     9     9    10    1
    10     8     7    1
    11     6     7    1
