@<TRIPOS>MOLECULE
2fc1_HEM_A_1.pdb
 43 50 0 0 0
SMALL
GASTEIGER

@<TRIPOS>ATOM
      1 FE         -0.2350   29.2820    8.6980 Fe    901  HEM901      0.0000
      2  CHA        1.6420   31.8710    9.6130 C.2   901  HEM901      0.0000
      3  CHB       -1.0520   30.8930    5.8770 C.2   901  HEM901      0.0000
      4  CHC       -1.5900   26.4640    7.4290 C.2   901  HEM901      0.0000
      5  CHD        0.3140   27.7610   11.6130 C.2   901  HEM901      0.0000
      6  NA         0.1450   31.0560    7.9500 N.ar  901  HEM901      0.0000
      7  C1A        1.0250   31.9680    8.4110 C.ar  901  HEM901      0.0000
      8  C2A        1.1970   33.0390    7.4610 C.ar  901  HEM901      0.0000
      9  C3A        0.3900   32.7880    6.4110 C.ar  901  HEM901      0.0000
     10  C4A       -0.2570   31.5490    6.7440 C.ar  901  HEM901      0.0000
     11  CMA        0.3110   33.6230    5.1490 C.3   901  HEM901      0.0000
     12  CAA        2.2000   34.1790    7.5010 C.3   901  HEM901      0.0000
     13  CBA        3.5520   33.5810    7.1410 C.3   901  HEM901      0.0000
     14  CGA        4.6720   34.5970    7.1280 C.2   901  HEM901      0.0000
     15  O1A        5.8450   34.1800    7.2220 O.co2 901  HEM901      0.0000
     16  O2A        4.3910   35.8080    6.9910 O.co2 901  HEM901      0.0000
     17  NB        -1.2150   28.8090    7.0200 N.2   901  HEM901      0.0000
     18  C1B       -1.5070   29.6270    6.0160 C.2   901  HEM901      0.0000
     19  C2B       -2.2340   28.9730    4.9910 C.2   901  HEM901      0.0000
     20  C3B       -2.3820   27.6980    5.3410 C.2   901  HEM901      0.0000
     21  C4B       -1.7170   27.5900    6.6380 C.2   901  HEM901      0.0000
     22  CMB       -2.7520   29.6640    3.7240 C.3   901  HEM901      0.0000
     23  CAB       -3.0060   26.7450    4.5330 C.3   901  HEM901      0.0000
     24  CBB       -3.6200   25.6040    5.0450 C.3   901  HEM901      0.0000
     25  NC        -0.6650   27.5050    9.4300 N.ar  901  HEM901      0.0000
     26  C1C       -1.0720   26.4010    8.7280 C.ar  901  HEM901      0.0000
     27  C2C       -0.9890   25.1920    9.5010 C.ar  901  HEM901      0.0000
     28  C3C       -0.5540   25.5940   10.7100 C.ar  901  HEM901      0.0000
     29  C4C       -0.3460   27.0280   10.6430 C.ar  901  HEM901      0.0000
     30  CMC       -1.2470   23.7870    8.9400 C.3   901  HEM901      0.0000
     31  CAC       -0.3220   24.8580   11.8700 C.2   901  HEM901      0.0000
     32  CBC       -0.8490   23.6380   12.2150 C.2   901  HEM901      0.0000
     33  ND         0.7360   29.7480   10.2920 N.2   901  HEM901      0.0000
     34  C1D        0.8260   29.0370   11.4690 C.2   901  HEM901      0.0000
     35  C2D        1.6370   29.7320   12.4420 C.2   901  HEM901      0.0000
     36  C3D        2.0390   30.8430   11.8210 C.2   901  HEM901      0.0000
     37  C4D        1.4860   30.8450   10.5110 C.2   901  HEM901      0.0000
     38  CMD        2.0590   29.2980   13.8640 C.3   901  HEM901      0.0000
     39  CAD        3.0760   31.8300   12.3290 C.3   901  HEM901      0.0000
     40  CBD        4.4200   31.4250   11.6950 C.3   901  HEM901      0.0000
     41  CGD        5.5690   32.3530   12.0510 C.2   901  HEM901      0.0000
     42  O1D        6.5890   32.3270   11.3350 O.co2 901  HEM901      0.0000
     43  O2D        5.4710   33.1110   13.0440 O.co2 901  HEM901      0.0000
@<TRIPOS>BOND
     1    22    19    1
     2    23    24    1
     3    23    20    1
     4    19    20    2
     5    19    18    1
     6    11     9    1
     7    20    21    1
     8     3    18    1
     9     3    10    2
    10    18    17    2
    11     9    10   ar
    12     9     8   ar
    13    21    17    1
    14    21     4    2
    15    10     6   ar
    16    16    14   ar
    17    17     1    1
    18    14    13    1
    19    14    15   ar
    20    13    12    1
    21     4    26    1
    22     8    12    1
    23     8     7   ar
    24     6     7   ar
    25     6     1    1
    26     7     2    2
    27     1    25    1
    28     1    33    1
    29    26    25   ar
    30    26    27   ar
    31    30    27    1
    32    25    29   ar
    33    27    28   ar
    34     2    37    1
    35    33    37    2
    36    33    34    1
    37    37    36    1
    38    29    28   ar
    39    29     5    1
    40    28    31    1
    41    42    41   ar
    42    34     5    2
    43    34    35    1
    44    40    41    1
    45    40    39    1
    46    36    39    1
    47    36    35    2
    48    31    32    2
    49    41    43   ar
    50    35    38    1
