@<TRIPOS>MOLECULE
2fc2_HEM_A_1.pdb
 43 50 0 0 0
SMALL
GASTEIGER

@<TRIPOS>ATOM
      1 FE         -0.2140   30.1970    9.0170 Fe    901  HEM901      0.0000
      2  CHA        1.7560   32.8350    9.9740 C.2   901  HEM901      0.0000
      3  CHB       -0.8260   31.7650    6.0560 C.2   901  HEM901      0.0000
      4  CHC       -1.4270   27.2820    7.8160 C.2   901  HEM901      0.0000
      5  CHD        0.2490   28.8070   12.1120 C.2   901  HEM901      0.0000
      6  NA         0.3150   31.9290    8.2190 N.ar  901  HEM901      0.0000
      7  C1A        1.1830   32.8680    8.7210 C.ar  901  HEM901      0.0000
      8  C2A        1.3800   33.9950    7.7930 C.ar  901  HEM901      0.0000
      9  C3A        0.5770   33.7240    6.7330 C.ar  901  HEM901      0.0000
     10  C4A       -0.0490   32.4570    6.9840 C.ar  901  HEM901      0.0000
     11  CMA        0.3800   34.6410    5.5010 C.3   901  HEM901      0.0000
     12  CAA        2.4110   35.2060    7.8620 C.3   901  HEM901      0.0000
     13  CBA        3.8320   34.6950    7.4870 C.3   901  HEM901      0.0000
     14  CGA        4.8820   35.7940    7.3320 C.2   901  HEM901      0.0000
     15  O1A        6.0920   35.4590    7.3460 O.co2 901  HEM901      0.0000
     16  O2A        4.5440   36.9890    7.1880 O.co2 901  HEM901      0.0000
     17  NB        -0.9770   29.6110    7.2780 N.2   901  HEM901      0.0000
     18  C1B       -1.2780   30.4420    6.1990 C.2   901  HEM901      0.0000
     19  C2B       -2.0800   29.6930    5.2180 C.2   901  HEM901      0.0000
     20  C3B       -2.2130   28.4160    5.6630 C.2   901  HEM901      0.0000
     21  C4B       -1.5200   28.3640    6.9640 C.2   901  HEM901      0.0000
     22  CMB       -2.8560   30.1820    3.9450 C.3   901  HEM901      0.0000
     23  CAB       -2.9680   27.4920    4.9120 C.3   901  HEM901      0.0000
     24  CBB       -3.5860   26.3160    5.3940 C.3   901  HEM901      0.0000
     25  NC        -0.6180   28.4170    9.7880 N.ar  901  HEM901      0.0000
     26  C1C       -0.9700   27.2470    9.1050 C.ar  901  HEM901      0.0000
     27  C2C       -0.8820   26.1150    9.9180 C.ar  901  HEM901      0.0000
     28  C3C       -0.5140   26.5380   11.1560 C.ar  901  HEM901      0.0000
     29  C4C       -0.3360   27.9910   11.0790 C.ar  901  HEM901      0.0000
     30  CMC       -1.1770   24.7020    9.3820 C.3   901  HEM901      0.0000
     31  CAC       -0.3080   25.8040   12.3570 C.2   901  HEM901      0.0000
     32  CBC       -0.7080   24.5170   12.6340 C.2   901  HEM901      0.0000
     33  ND         0.6770   30.7250   10.7330 N.2   901  HEM901      0.0000
     34  C1D        0.7120   30.0760   11.9440 C.2   901  HEM901      0.0000
     35  C2D        1.5840   30.8210   12.8940 C.2   901  HEM901      0.0000
     36  C3D        2.0870   31.8950   12.2400 C.2   901  HEM901      0.0000
     37  C4D        1.5060   31.8260   10.9010 C.2   901  HEM901      0.0000
     38  CMD        1.9670   30.5390   14.3770 C.3   901  HEM901      0.0000
     39  CAD        3.1670   32.9200   12.7720 C.3   901  HEM901      0.0000
     40  CBD        4.6070   32.5840   12.3350 C.3   901  HEM901      0.0000
     41  CGD        5.6740   33.5440   12.8700 C.2   901  HEM901      0.0000
     42  O1D        6.7710   33.6060   12.2750 O.co2 901  HEM901      0.0000
     43  O2D        5.4620   34.2210   13.8960 O.co2 901  HEM901      0.0000
@<TRIPOS>BOND
     1    22    19    1
     2    23    24    1
     3    23    20    1
     4    19    20    2
     5    19    18    1
     6    11     9    1
     7    20    21    1
     8     3    18    1
     9     3    10    2
    10    18    17    2
    11     9    10   ar
    12     9     8   ar
    13    21    17    1
    14    21     4    2
    15    10     6   ar
    16    16    14   ar
    17    17     1    1
    18    14    15   ar
    19    14    13    1
    20    13    12    1
    21     8    12    1
    22     8     7   ar
    23     4    26    1
    24     6     7   ar
    25     6     1    1
    26     7     2    2
    27     1    25    1
    28     1    33    1
    29    26    25   ar
    30    26    27   ar
    31    30    27    1
    32    25    29   ar
    33    27    28   ar
    34     2    37    1
    35    33    37    2
    36    33    34    1
    37    37    36    1
    38    29    28   ar
    39    29     5    1
    40    28    31    1
    41    34     5    2
    42    34    35    1
    43    36    39    1
    44    36    35    2
    45    42    41   ar
    46    40    39    1
    47    40    41    1
    48    31    32    2
    49    41    43   ar
    50    35    38    1
