@<TRIPOS>MOLECULE
2fc2_HBI_A_1.pdb
 17 18 0 0 0
SMALL
GASTEIGER

@<TRIPOS>ATOM
      1  N1         4.1700   41.2210    8.5160 N.2   903  HBI903     -0.2672
      2  N2         3.3160   39.2450    7.7450 N.pl3 903  HBI903     -0.0220
      3  C2         4.3670   39.9820    8.0760 C.1   903  HBI903      0.2609
      4  N3         5.5960   39.4560    8.0220 N.2   903  HBI903     -0.2466
      5  C4         6.6600   40.1510    8.4210 C.1   903  HBI903      0.2569
      6  O4         7.8220   39.7670    8.2510 O.2   903  HBI903     -0.2052
      7  C4A        6.4750   41.3630    9.0750 C.2   903  HBI903      0.2989
      8  C8A        5.1660   41.8830    9.1080 C.1   903  HBI903      0.1401
      9  N8         4.9290   43.0380    9.7230 N.2   903  HBI903     -0.1992
     10  C7         5.8230   43.5010   10.6720 C.3   903  HBI903      0.1940
     11  C6         7.2010   43.0330   10.6240 C.2   903  HBI903      0.1466
     12  N5         7.4830   42.0040    9.6500 N.2   903  HBI903     -0.3830
     13  C9         7.4790   43.8670   11.8880 C.3   903  HBI903      0.2313
     14  O9         6.2430   44.3610   12.4270 O.3   903  HBI903     -0.2130
     15  C10        8.2640   43.0900   12.9760 C.3   903  HBI903      0.1888
     16  O10        7.3800   42.7030   14.0350 O.3   903  HBI903     -0.2200
     17  C11        8.9540   41.8550   12.3820 C.3   903  HBI903      0.0387
@<TRIPOS>BOND
     1     2     3    1
     2     4     3    2
     3     4     5    2
     4     3     1    2
     5     6     5    2
     6     5     7    1
     7     1     8    2
     8     7     8    1
     9     7    12    2
    10     8     9    2
    11    12    11    2
    12     9    10    1
    13    11    10    1
    14    11    13    1
    15    13    14    1
    16    13    15    1
    17    17    15    1
    18    15    16    1
