@<TRIPOS>MOLECULE
2fc2_HAR_A_1.pdb
 13 12 0 0 0
SMALL
GASTEIGER

@<TRIPOS>ATOM
      1  N          6.6550   33.8800    4.5920 N.3   909  HAR909     -0.1208
      2  CA         7.4080   32.6330    4.6740 C.3   909  HAR909      0.1944
      3  C          8.0220   32.3510    3.3090 C.2   909  HAR909      0.3819
      4  O          8.7090   31.3140    3.1660 O.co2 909  HAR909     -0.2441
      5  CB         6.4470   31.5030    5.0180 C.3   909  HAR909      0.0343
      6  CG         5.6300   31.4780    6.2800 C.3   909  HAR909      0.0490
      7  CD         4.5160   30.4730    6.1560 C.3   909  HAR909      0.2205
      8  NE         3.3630   30.3960    5.2630 N.pl3 909  HAR909     -0.0871
      9  CZ         2.2340   29.8740    4.7960 C.2   909  HAR909      0.5283
     10  NH1        2.2370   28.9140    5.7130 N.4   909  HAR909      0.1134
     11  NH2        1.5290   30.3200    3.7660 N.pl3 909  HAR909      0.1348
     12  OH1        1.4300   28.0230    5.1470 O.3   909  HAR909      0.0294
     13  OXT        7.7760   33.1490    2.3830 O.co2 909  HAR909     -0.2441
@<TRIPOS>BOND
     1    13     3   ar
     2     4     3   ar
     3     3     2    1
     4    11     9    2
     5     1     2    1
     6     2     5    1
     7     9     8    1
     8     9    10    1
     9     5     6    1
    10    12    10    1
    11     8     7    1
    12     7     6    1
