@<TRIPOS>MOLECULE
2fcp_LIL_A_1.pdb
 31 30 0 0 0
SMALL
GASTEIGER

@<TRIPOS>ATOM
      1  C1E       53.8660   73.0950   50.3370 C.2   903  LIL903      0.2099
      2  C2E       54.1340   74.5220   49.9120 C.3   903  LIL903      0.1018
      3  C3E       53.8630   74.7690   48.4190 C.3   903  LIL903      0.1256
      4  C4E       52.3640   74.7950   48.1170 C.3   903  LIL903      0.0301
      5  C5E       51.9780   75.7070   46.9660 C.3   903  LIL903      0.0025
      6  C6E       51.9350   77.1700   47.3720 C.3   903  LIL903      0.0001
      7  C7E       51.6520   78.0860   46.1790 C.3   903  LIL903      0.0000
      8  C8E       51.3430   79.5020   46.6470 C.3   903  LIL903      0.0000
      9  C9E       50.9850   80.4370   45.4930 C.3   903  LIL903      0.0000
     10  C0S       49.6960   80.0100   44.8020 C.3   903  LIL903      0.0000
     11  C1S       48.9180   81.2130   44.2650 C.3   903  LIL903      0.0000
     12  C2S       49.6440   81.9130   43.1300 C.3   903  LIL903      0.0000
     13  C3S       48.8590   83.1120   42.6150 C.3   903  LIL903      0.0000
     14  C4S       49.4690   83.6690   41.3320 C.3   903  LIL903      0.0000
     15  C5S       48.7330   84.9100   40.8580 C.3   903  LIL903      0.0000
     16  O1E       53.4890   72.2800   49.5080 O.2   903  LIL903     -0.2882
     17  O2E       54.5310   73.7790   47.6030 O.3   903  LIL903     -0.3306
     18  C1F       54.7870   74.1780   46.2370 C.3   903  LIL903      0.2688
     19  C2F       55.7610   75.3490   46.2280 C.3   903  LIL903      0.0644
     20  C3F       55.8860   76.0430   44.8670 C.3   903  LIL903      0.0053
     21  C4F       54.5300   76.2020   44.2260 C.3   903  LIL903      0.0002
     22  C5F       54.5610   77.1820   43.0730 C.3   903  LIL903      0.0000
     23  C6F       53.1800   77.3470   42.4790 C.3   903  LIL903      0.0000
     24  C7F       53.0390   78.6850   41.7820 C.3   903  LIL903      0.0000
     25  C8F       51.5950   78.9450   41.4070 C.3   903  LIL903      0.0000
     26  C9F       51.4030   80.3390   40.8470 C.3   903  LIL903      0.0000
     27  C0T       52.1350   80.5310   39.5320 C.3   903  LIL903      0.0000
     28  C1T       51.8050   81.8890   38.9380 C.3   903  LIL903      0.0000
     29  C2T       52.3890   82.0490   37.5470 C.3   903  LIL903      0.0000
     30  C3T       51.8830   83.3260   36.8880 C.3   903  LIL903      0.0000
     31  O1F       54.9620   73.2250   45.4780 O.3   903  LIL903     -0.1899
@<TRIPOS>BOND
     1    30    29    1
     2    29    28    1
     3    28    27    1
     4    27    26    1
     5    26    25    1
     6    15    14    1
     7    14    13    1
     8    25    24    1
     9    24    23    1
    10    23    22    1
    11    13    12    1
    12    22    21    1
    13    12    11    1
    14    21    20    1
    15    11    10    1
    16    10     9    1
    17    20    19    1
    18    31    18    1
    19     9     8    1
    20     7     8    1
    21     7     6    1
    22    19    18    1
    23    18    17    1
    24     5     6    1
    25     5     4    1
    26    17     3    1
    27     4     3    1
    28     3     2    1
    29    16     1    2
    30     2     1    1
