@<TRIPOS>MOLECULE
2fcp_GP4_A_1.pdb
 15 15 0 0 0
SMALL
GASTEIGER

@<TRIPOS>ATOM
      1  C1A       55.3840   71.4700   54.7120 C.3   901  GP4901      0.1638
      2  C2A       55.0090   72.3890   53.5450 C.3   901  GP4901      0.1541
      3  C3A       54.6420   71.7240   52.1840 C.3   901  GP4901      0.2019
      4  C4A       55.4100   70.4060   51.9690 C.3   901  GP4901      0.1875
      5  C5A       55.2250   69.5650   53.2190 C.3   901  GP4901      0.1782
      6  C6A       55.8150   68.1640   53.0260 C.3   901  GP4901      0.2140
      7  N2A       54.0690   73.4270   53.9620 N.3   901  GP4901     -0.1275
      8  O3A       54.9720   72.6350   51.1230 O.3   901  GP4901     -0.2188
      9  O4A       54.8700   69.7020   50.8290 O.3   901  GP4901     -0.2675
     10  O5A       55.7310   67.4410   54.2720 O.3   901  GP4901     -0.2176
     11  O6A       55.8900   70.1940   54.3110 O.3   901  GP4901     -0.3493
     12  O7A       55.3640   68.4780   48.8170 O.2   901  GP4901     -0.2224
     13  P4A       55.8880   69.5140   49.7460 P.3   901  GP4901      0.5327
     14  O8A       56.0500   70.8210   49.0540 O.3   901  GP4901     -0.1145
     15  O9A       57.1570   69.0690   50.3860 O.3   901  GP4901     -0.1145
@<TRIPOS>BOND
     1    12    13    2
     2    14    13    1
     3    13    15    1
     4    13     9    1
     5     9     4    1
     6     8     3    1
     7     4     3    1
     8     4     5    1
     9     3     2    1
    10     6     5    1
    11     6    10    1
    12     5    11    1
    13     2     7    1
    14     2     1    1
    15    11     1    1
