@<TRIPOS>MOLECULE
2fcp_GP1_A_1.pdb
 16 16 0 0 0
SMALL
GASTEIGER

@<TRIPOS>ATOM
      1  C1B       54.9420   73.7180   59.7090 C.3   902  GP1902      0.2651
      2  C2B       53.8580   74.6750   59.1940 C.3   902  GP1902      0.1812
      3  C3B       52.6310   73.9380   58.5610 C.3   902  GP1902      0.2071
      4  C4B       53.1920   73.0270   57.4580 C.3   902  GP1902      0.2133
      5  C5B       54.2540   72.0930   58.0480 C.3   902  GP1902      0.1834
      6  C6B       54.8150   71.1230   57.0090 C.3   902  GP1902      0.2142
      7  N2B       53.5120   75.7250   60.1430 N.3   902  GP1902     -0.1247
      8  O1B       54.4720   72.9300   60.8310 O.3   902  GP1902     -0.2428
      9  O3B       51.7470   74.9090   57.9720 O.3   902  GP1902     -0.2186
     10  O4B       52.1350   72.2720   56.8560 O.3   902  GP1902     -0.2176
     11  O5B       54.3400   71.4150   55.6830 O.3   902  GP1902     -0.2176
     12  O6B       55.3280   72.8580   58.6260 O.3   902  GP1902     -0.3261
     13  O7B       56.8340   72.6290   61.3030 O.2   902  GP1902     -0.2223
     14  P4B       55.5000   72.8290   61.9280 P.3   902  GP1902      0.5345
     15  O8B       55.4380   74.0910   62.7070 O.3   902  GP1902     -0.1145
     16  O9B       55.1410   71.6670   62.7780 O.3   902  GP1902     -0.1145
@<TRIPOS>BOND
     1    11     6    1
     2    10     4    1
     3     6     5    1
     4     4     5    1
     5     4     3    1
     6     9     3    1
     7     5    12    1
     8     3     2    1
     9    12     1    1
    10     2     1    1
    11     2     7    1
    12     1     8    1
    13     8    14    1
    14    13    14    2
    15    14    15    1
    16    14    16    1
