@<TRIPOS>MOLECULE
2fcp_LIM_A_1.pdb
 17 16 0 0 0
SMALL
GASTEIGER

@<TRIPOS>ATOM
      1  C1J       53.2220   76.9630   59.7420 C.2   906  LIM906      0.2100
      2  C2J       52.5580   77.8540   60.7580 C.3   906  LIM906      0.1050
      3  C3J       52.9520   79.3170   60.5990 C.3   906  LIM906      0.1598
      4  C4J       52.1000   80.1910   61.5180 C.3   906  LIM906      0.0334
      5  C5J       52.1930   81.6730   61.2180 C.3   906  LIM906      0.0026
      6  C6J       51.6600   81.9630   59.8250 C.3   906  LIM906      0.0001
      7  C7J       51.5010   83.4550   59.5440 C.3   906  LIM906      0.0000
      8  C8J       50.8720   83.6370   58.1680 C.3   906  LIM906      0.0000
      9  C9J       50.3390   85.0440   57.9380 C.3   906  LIM906      0.0000
     10  C0X       49.5190   85.0840   56.6550 C.3   906  LIM906      0.0000
     11  C1X       48.7670   86.3890   56.4900 C.3   906  LIM906      0.0000
     12  C2X       49.6830   87.5300   56.1020 C.3   906  LIM906      0.0000
     13  C3X       48.9160   88.8420   55.9940 C.3   906  LIM906      0.0000
     14  C4X       47.6640   88.7080   55.1310 C.3   906  LIM906      0.0000
     15  C5X       47.9980   88.2720   53.7170 C.3   906  LIM906      0.0000
     16  O1J       53.4650   77.3880   58.6090 O.2   906  LIM906     -0.2882
     17  O2J       54.3390   79.4740   60.9260 O.3   906  LIM906     -0.2227
@<TRIPOS>BOND
     1    15    14    1
     2    14    13    1
     3    13    12    1
     4    12    11    1
     5    11    10    1
     6    10     9    1
     7     9     8    1
     8     8     7    1
     9    16     1    2
    10     7     6    1
    11     1     2    1
    12     6     5    1
    13     3     2    1
    14     3    17    1
    15     3     4    1
    16     5     4    1
