@<TRIPOS>MOLECULE
2fcr_FMN_A_1.pdb
 31 33 0 0 0
SMALL
GASTEIGER

@<TRIPOS>ATOM
      1  N1        46.6540   23.3850   14.5140 N.2   174  FMN174     -0.2887
      2  C2        47.7410   23.1600   15.3500 C.1   174  FMN174      0.3669
      3  O2        47.5380   22.9500   16.6850 O.2   174  FMN174     -0.1744
      4  N3        49.0250   23.1800   14.8500 N.2   174  FMN174     -0.2300
      5  C4        49.2790   23.3900   13.4910 C.1   174  FMN174      0.2513
      6  O4        50.5700   23.3900   13.0080 O.2   174  FMN174     -0.2057
      7  C4A       48.1670   23.6430   12.6390 C.2   174  FMN174      0.2703
      8  N5        48.4090   23.8630   11.2980 N.2   174  FMN174     -0.3882
      9  C5A       47.2900   23.9850   10.4570 C.2   174  FMN174      0.1277
     10  C6        47.5190   24.0630    9.0640 C.3   174  FMN174      0.0820
     11  C7        46.3930   24.1710    8.2290 C.2   174  FMN174     -0.0408
     12  C7M       46.6100   24.3220    6.8250 C.3   174  FMN174      0.0265
     13  C8        45.1030   24.1460    8.7520 C.2   174  FMN174     -0.0280
     14  C8M       43.9460   24.2340    7.9390 C.3   174  FMN174      0.0304
     15  C9        44.8870   24.0730   10.1440 C.2   174  FMN174      0.0123
     16  C9A       45.9990   23.9800   11.0020 C.2   174  FMN174      0.0793
     17  N10       45.7450   23.8490   12.3660 N.pl3 174  FMN174     -0.2545
     18  C10       46.8640   23.6090   13.1620 C.2   174  FMN174      0.2449
     19  C1'       44.5120   24.0050   12.9800 C.3   174  FMN174      0.1336
     20  C2'       44.0410   25.4600   13.0080 C.3   174  FMN174      0.2048
     21  O2'       44.7850   26.2170   13.9740 O.3   174  FMN174     -0.2185
     22  C3'       42.5410   25.4600   13.4350 C.3   174  FMN174      0.2165
     23  O3'       41.7590   24.9470   12.3660 O.3   174  FMN174     -0.2175
     24  C4'       42.0260   26.7250   13.9690 C.3   174  FMN174      0.2147
     25  O4'       40.7420   26.5390   14.6110 O.3   174  FMN174     -0.2176
     26  C5'       41.9440   27.8040   13.0420 C.3   174  FMN174      0.1892
     27  O5'       41.7210   28.9810   13.8210 O.3   174  FMN174     -0.2674
     28  P         41.0660   30.3140   13.0540 P.3   174  FMN174      0.5327
     29  O1P       39.5210   29.9080   12.4910 O.3   174  FMN174     -0.1145
     30  O2P       42.0710   30.8120   11.7870 O.2   174  FMN174     -0.2224
     31  O3P       40.9200   31.6130   14.1220 O.3   174  FMN174     -0.1145
@<TRIPOS>BOND
     1    12    11    1
     2    14    13    1
     3    11    13    2
     4    11    10    1
     5    13    15    1
     6    10     9    1
     7    15    16    2
     8     9    16    1
     9     9     8    2
    10    16    17    1
    11     8     7    2
    12    30    28    2
    13    17    19    1
    14    17    18    1
    15    23    22    1
    16    29    28    1
    17     7    18    1
    18     7     5    1
    19    19    20    1
    20     6     5    2
    21    20    22    1
    22    20    21    1
    23    26    27    1
    24    26    24    1
    25    28    27    1
    26    28    31    1
    27    18     1    2
    28    22    24    1
    29     5     4    2
    30    24    25    1
    31     1     2    2
    32     4     2    2
    33     2     3    2
