@<TRIPOS>MOLECULE
2fct_DSU_A_1.pdb
 34 35 0 0 0
SMALL
GASTEIGER

@<TRIPOS>ATOM
      1  O1N       -5.9320   46.7160   22.1280 O.2   896  DSU896     -0.2501
      2  C1N       -6.3050   47.2030   21.0790 C.2   896  DSU896      0.3170
      3  C2N       -7.7670   47.4050   20.8140 C.3   896  DSU896      0.1096
      4  C3N       -8.3690   46.2130   20.1010 C.3   896  DSU896      0.0116
      5  C4N       -9.8410   46.5270   19.8570 C.3   896  DSU896      0.0006
      6  C5N      -10.6090   45.3200   19.3730 C.3   896  DSU896      0.0000
      7  C6N      -12.0940   45.6200   19.1800 C.3   896  DSU896      0.0000
      8  C7N      -12.8910   45.1880   20.4020 C.3   896  DSU896      0.0000
      9  C8N      -14.3750   45.3970   20.2020 C.3   896  DSU896      0.0000
     10  C9N      -15.1560   44.9660   21.4410 C.3   896  DSU896      0.0000
     11  C10      -16.6300   45.2720   21.2650 C.3   896  DSU896      0.0000
     12  O6'       -5.3230   47.5960   20.0870 O.3   896  DSU896     -0.4457
     13  C6'       -3.9370   47.4360   20.3960 C.3   896  DSU896      0.2405
     14  C5'       -3.1800   47.5880   19.0940 C.3   896  DSU896      0.1942
     15  O2'       -2.9370   48.9690   18.9010 O.3   896  DSU896     -0.3260
     16  C4'       -1.8170   46.9310   19.1200 C.3   896  DSU896      0.2178
     17  O4'       -1.2460   46.8220   17.8330 O.3   896  DSU896     -0.2175
     18  C3'       -1.0080   47.9260   19.8730 C.3   896  DSU896      0.2382
     19  O3'       -1.1820   47.6750   21.2690 O.3   896  DSU896     -0.2150
     20  C2'       -1.6140   49.2480   19.3850 C.3   896  DSU896      0.2527
     21  C1'       -0.8300   49.9320   18.2500 C.3   896  DSU896      0.2407
     22  O1'        0.3850   50.5100   18.6900 O.3   896  DSU896     -0.2149
     23  O1        -1.7430   49.9770   20.6000 O.3   896  DSU896     -0.2890
     24  C1        -2.2580   51.2810   20.6010 C.3   896  DSU896      0.3602
     25  O5        -3.4790   51.1730   21.3460 O.2   896  DSU896     -0.4147
     26  C5        -3.5920   51.6690   22.6850 C.2   896  DSU896      0.3382
     27  O6        -4.3560   50.7290   23.4550 O.2   896  DSU896     -0.4417
     28  C6        -5.4090   51.3860   24.1730 C.3   896  DSU896      0.2559
     29  C4        -2.3290   52.1580   23.4450 C.2   896  DSU896      0.3080
     30  O4        -2.1000   51.4310   24.6660 O.2   896  DSU896     -0.2762
     31  C3        -0.9930   52.1820   22.7040 C.2   896  DSU896      0.2812
     32  O3        -0.3340   53.4190   22.9610 O.2   896  DSU896     -0.2796
     33  C2        -0.9780   51.8680   21.2030 C.2   896  DSU896      0.2849
     34  O2        -0.4930   52.8750   20.3300 O.2   896  DSU896     -0.2812
@<TRIPOS>BOND
     1    17    16    1
     2    21    22    1
     3    21    20    1
     4    15    14    1
     5    15    20    1
     6    14    16    1
     7    14    13    1
     8    16    18    1
     9     7     6    1
    10     7     8    1
    11     6     5    1
    12    20    18    1
    13    20    23    1
    14     5     4    1
    15    18    19    1
    16    12    13    1
    17    12     2    1
    18     4     3    1
    19     9     8    1
    20     9    10    1
    21    34    33    1
    22    23    24    1
    23    24    33    1
    24    24    25    1
    25     3     2    1
    26     2     1    2
    27    33    31    2
    28    11    10    1
    29    25    26    1
    30    26    29    2
    31    26    27    1
    32    31    32    1
    33    31    29    1
    34    29    30    1
    35    27    28    1
