@<TRIPOS>MOLECULE
2fct_AKG_A_1.pdb
 10 9 0 0 0
SMALL
GASTEIGER

@<TRIPOS>ATOM
      1  C1         4.8540   36.0460   12.1590 C.2   897  AKG897      0.4219
      2  O1         4.0890   35.1060   12.4440 O.co2 897  AKG897     -0.2373
      3  O2         4.4160   37.2150   11.9780 O.co2 897  AKG897     -0.2373
      4  C2         6.2890   35.7940   11.9830 C.2   897  AKG897      0.2526
      5  O5         7.0280   36.7480   11.7610 O.2   897  AKG897     -0.2843
      6  C3         6.8470   34.3880   12.1450 C.3   897  AKG897      0.0881
      7  C4         8.3360   34.3520   11.7840 C.3   897  AKG897      0.1224
      8  C5         8.9220   32.9550   11.8380 C.2   897  AKG897      0.3653
      9  O3        10.1680   32.8170   11.7100 O.co2 897  AKG897     -0.2456
     10  O4         8.1690   31.9990   12.0590 O.co2 897  AKG897     -0.2456
@<TRIPOS>BOND
     1     9     8   ar
     2     5     4    2
     3     7     8    1
     4     7     6    1
     5     8    10   ar
     6     3     1   ar
     7     4     6    1
     8     4     1    1
     9     1     2   ar
