@<TRIPOS>MOLECULE
2fcu_AKG_A_1.pdb
 10 9 0 0 0
SMALL
GASTEIGER

@<TRIPOS>ATOM
      1  C1         5.1420   35.6780   12.6600 C.2   897  AKG897      0.4219
      2  O1         4.2890   34.8080   12.4910 O.co2 897  AKG897     -0.2373
      3  O2         4.8290   36.8450   12.9940 O.co2 897  AKG897     -0.2373
      4  C2         6.5590   35.3610   12.5400 C.2   897  AKG897      0.2526
      5  O5         7.3090   36.2970   12.3770 O.2   897  AKG897     -0.2843
      6  C3         7.0910   33.9480   12.6260 C.3   897  AKG897      0.0881
      7  C4         8.5860   33.8540   12.2740 C.3   897  AKG897      0.1224
      8  C5         9.1310   32.4410   12.2730 C.2   897  AKG897      0.3653
      9  O3         8.3490   31.4610   12.3670 O.co2 897  AKG897     -0.2456
     10  O4        10.3880   32.3090   12.1650 O.co2 897  AKG897     -0.2456
@<TRIPOS>BOND
     1    10     8   ar
     2     8     7    1
     3     8     9   ar
     4     7     6    1
     5     5     4    2
     6     2     1   ar
     7     4     6    1
     8     4     1    1
     9     1     3   ar
