@<TRIPOS>MOLECULE
2fcu_DSU_A_1.pdb
 34 35 0 0 0
SMALL
GASTEIGER

@<TRIPOS>ATOM
      1  O1N       -5.7710   46.0440   22.7620 O.2   896  DSU896     -0.2501
      2  C1N       -6.0920   46.4910   21.6740 C.2   896  DSU896      0.3170
      3  C2N       -7.5220   46.7910   21.2980 C.3   896  DSU896      0.1096
      4  C3N       -8.3680   45.5450   21.3070 C.3   896  DSU896      0.0116
      5  C4N       -9.8160   45.9340   21.0410 C.3   896  DSU896      0.0006
      6  C5N      -10.5080   44.8080   20.3190 C.3   896  DSU896      0.0000
      7  C6N      -11.9610   45.1370   20.0100 C.3   896  DSU896      0.0000
      8  C7N      -12.8800   44.8240   21.1740 C.3   896  DSU896      0.0000
      9  C8N      -14.3350   44.7870   20.7500 C.3   896  DSU896      0.0000
     10  C9N      -15.1870   44.3740   21.9390 C.3   896  DSU896      0.0000
     11  C10      -16.6570   44.6240   21.7030 C.3   896  DSU896      0.0000
     12  O6'       -5.0790   46.7920   20.6970 O.3   896  DSU896     -0.4457
     13  C6'       -3.7050   46.7840   21.0660 C.3   896  DSU896      0.2405
     14  C5'       -2.9270   47.0750   19.8010 C.3   896  DSU896      0.1942
     15  O2'       -2.7230   48.4750   19.7260 O.3   896  DSU896     -0.3260
     16  C4'       -1.5370   46.4820   19.8240 C.3   896  DSU896      0.2178
     17  O4'       -1.0060   46.4980   18.5340 O.3   896  DSU896     -0.2175
     18  C3'       -0.7480   47.4760   20.6210 C.3   896  DSU896      0.2382
     19  O3'       -0.8440   47.2030   22.0160 O.3   896  DSU896     -0.2150
     20  C2'       -1.4260   48.7960   20.2500 C.3   896  DSU896      0.2527
     21  C1'       -0.6370   49.6250   19.2300 C.3   896  DSU896      0.2407
     22  O1'        0.4970   50.2540   19.8260 O.3   896  DSU896     -0.2149
     23  O1        -1.5700   49.4040   21.5190 O.3   896  DSU896     -0.2890
     24  C1        -2.1700   50.6660   21.6470 C.3   896  DSU896      0.3602
     25  O5        -3.4150   50.4100   22.3060 O.2   896  DSU896     -0.4147
     26  C5        -3.6510   50.7750   23.6620 C.2   896  DSU896      0.3382
     27  O6        -4.4130   49.7270   24.2900 O.2   896  DSU896     -0.4417
     28  C6        -5.4940   50.3310   25.0120 C.3   896  DSU896      0.2559
     29  C4        -2.4560   51.2000   24.5410 C.2   896  DSU896      0.3080
     30  O4        -2.3070   50.3580   25.6820 O.2   896  DSU896     -0.2762
     31  C3        -1.0720   51.2680   23.9040 C.2   896  DSU896      0.2812
     32  O3        -0.3710   52.3940   24.4110 O.2   896  DSU896     -0.2796
     33  C2        -0.9540   51.2140   22.3830 C.2   896  DSU896      0.2849
     34  O2        -0.4630   52.3560   21.7070 O.2   896  DSU896     -0.2812
@<TRIPOS>BOND
     1    17    16    1
     2    21    22    1
     3    21    20    1
     4    15    14    1
     5    15    20    1
     6    14    16    1
     7    14    13    1
     8    16    18    1
     9     7     6    1
    10     7     8    1
    11    20    18    1
    12    20    23    1
    13     6     5    1
    14    18    19    1
    15    12    13    1
    16    12     2    1
    17     9     8    1
    18     9    10    1
    19     5     4    1
    20     3     4    1
    21     3     2    1
    22    23    24    1
    23    24    25    1
    24    24    33    1
    25     2     1    2
    26    11    10    1
    27    34    33    1
    28    25    26    1
    29    33    31    2
    30    26    27    1
    31    26    29    2
    32    31    32    1
    33    31    29    1
    34    27    28    1
    35    29    30    1
