@<TRIPOS>MOLECULE
2fcv_DSU_A_1.pdb
 34 35 0 0 0
SMALL
GASTEIGER

@<TRIPOS>ATOM
      1  O1N       -6.1410   46.7880   22.3090 O.2   896  DSU896     -0.2501
      2  C1N       -6.5110   47.0940   21.2050 C.2   896  DSU896      0.3170
      3  C2N       -7.9930   47.1460   20.9880 C.3   896  DSU896      0.1096
      4  C3N       -8.5240   46.0430   20.1020 C.3   896  DSU896      0.0116
      5  C4N      -10.0060   46.3630   19.9210 C.3   896  DSU896      0.0006
      6  C5N      -10.7760   45.2660   19.2400 C.3   896  DSU896      0.0000
      7  C6N      -12.2770   45.5440   19.1990 C.3   896  DSU896      0.0000
      8  C7N      -12.9890   45.1050   20.4710 C.3   896  DSU896      0.0000
      9  C8N      -14.4830   45.1380   20.2330 C.3   896  DSU896      0.0000
     10  C9N      -15.3160   44.8380   21.4810 C.3   896  DSU896      0.0000
     11  C10      -16.7670   45.2010   21.2380 C.3   896  DSU896      0.0000
     12  O6'       -5.5380   47.4250   20.1570 O.3   896  DSU896     -0.4457
     13  C6'       -4.1350   47.3480   20.4350 C.3   896  DSU896      0.2405
     14  C5'       -3.3670   47.4940   19.1380 C.3   896  DSU896      0.1942
     15  O2'       -3.1000   48.8690   18.9150 O.3   896  DSU896     -0.3260
     16  C4'       -2.0040   46.8320   19.1820 C.3   896  DSU896      0.2178
     17  O4'       -1.4770   46.7140   17.8950 O.3   896  DSU896     -0.2175
     18  C3'       -1.1660   47.8550   19.8550 C.3   896  DSU896      0.2382
     19  O3'       -1.2870   47.6130   21.2510 O.3   896  DSU896     -0.2150
     20  C2'       -1.7940   49.1760   19.3780 C.3   896  DSU896      0.2527
     21  C1'       -1.0620   49.9200   18.2330 C.3   896  DSU896      0.2407
     22  O1'        0.2110   50.3870   18.6360 O.3   896  DSU896     -0.2149
     23  O1        -1.9400   49.8870   20.6010 O.3   896  DSU896     -0.2890
     24  C1        -2.4210   51.2040   20.6100 C.3   896  DSU896      0.3602
     25  O5        -3.6270   51.0860   21.3660 O.2   896  DSU896     -0.4147
     26  C5        -3.7100   51.5030   22.7250 C.2   896  DSU896      0.3382
     27  O6        -4.3700   50.4610   23.4570 O.2   896  DSU896     -0.4417
     28  C6        -5.4470   51.0300   24.2060 C.3   896  DSU896      0.2559
     29  C4        -2.4630   52.0890   23.4480 C.2   896  DSU896      0.3080
     30  O4        -2.2480   51.4380   24.7060 O.2   896  DSU896     -0.2762
     31  C3        -1.1220   52.1150   22.7060 C.2   896  DSU896      0.2812
     32  O3        -0.3870   53.3190   22.9440 O.2   896  DSU896     -0.2796
     33  C2        -1.1360   51.7930   21.2070 C.2   896  DSU896      0.2849
     34  O2        -0.5970   52.7650   20.3220 O.2   896  DSU896     -0.2812
@<TRIPOS>BOND
     1    17    16    1
     2    21    22    1
     3    21    20    1
     4    15    14    1
     5    15    20    1
     6    14    16    1
     7    14    13    1
     8    16    18    1
     9     7     6    1
    10     7     8    1
    11     6     5    1
    12    20    18    1
    13    20    23    1
    14    18    19    1
    15     5     4    1
    16     4     3    1
    17    12    13    1
    18    12     2    1
    19     9     8    1
    20     9    10    1
    21    34    33    1
    22    23    24    1
    23    24    33    1
    24    24    25    1
    25     3     2    1
    26     2     1    2
    27    33    31    2
    28    11    10    1
    29    25    26    1
    30    31    32    1
    31    31    29    1
    32    26    29    2
    33    26    27    1
    34    29    30    1
    35    27    28    1
