@<TRIPOS>MOLECULE
2fcv_AKG_A_1.pdb
 10 9 0 0 0
SMALL
GASTEIGER

@<TRIPOS>ATOM
      1  C1         4.7330   35.9790   12.1520 C.2   897  AKG897      0.4219
      2  O1         3.9650   35.0250   12.4410 O.co2 897  AKG897     -0.2373
      3  O2         4.2860   37.1410   11.9870 O.co2 897  AKG897     -0.2373
      4  C2         6.1790   35.7350   12.0020 C.2   897  AKG897      0.2526
      5  O5         6.9050   36.6850   11.7590 O.2   897  AKG897     -0.2843
      6  C3         6.7870   34.3510   12.2030 C.3   897  AKG897      0.0881
      7  C4         8.3000   34.3200   11.8540 C.3   897  AKG897      0.1224
      8  C5         8.8380   32.9120   11.8380 C.2   897  AKG897      0.3653
      9  O3        10.0570   32.7430   11.6120 O.co2 897  AKG897     -0.2456
     10  O4         8.0600   31.9590   12.0700 O.co2 897  AKG897     -0.2456
@<TRIPOS>BOND
     1     9     8   ar
     2     5     4    2
     3     8     7    1
     4     8    10   ar
     5     7     6    1
     6     3     1   ar
     7     4     1    1
     8     4     6    1
     9     1     2   ar
