@<TRIPOS>MOLECULE
2fd8_AKG_A_1.pdb
 10 9 0 0 0
SMALL
GASTEIGER

@<TRIPOS>ATOM
      1  C1        24.7220   36.9940   58.6360 C.2   400  AKG400      0.4219
      2  O1        25.5080   36.0720   58.6630 O.co2 400  AKG400     -0.2373
      3  O2        25.1370   38.2320   58.9550 O.co2 400  AKG400     -0.2373
      4  C2        23.2710   36.7470   58.3620 C.2   400  AKG400      0.2526
      5  O5        22.4770   37.6450   58.5390 O.2   400  AKG400     -0.2843
      6  C3        22.8070   35.3820   57.8780 C.3   400  AKG400      0.0881
      7  C4        21.2790   35.3120   57.7810 C.3   400  AKG400      0.1224
      8  C5        20.8310   33.9350   57.3380 C.2   400  AKG400      0.3653
      9  O3        21.4220   32.9420   57.7010 O.co2 400  AKG400     -0.2456
     10  O4        19.8560   33.8190   56.4320 O.co2 400  AKG400     -0.2456
@<TRIPOS>BOND
     1    10     8   ar
     2     8     9   ar
     3     8     7    1
     4     7     6    1
     5     6     4    1
     6     4     5    2
     7     4     1    1
     8     1     2   ar
     9     1     3   ar
