@<TRIPOS>MOLECULE
2fda_682_A_1.pdb
 26 26 0 0 0
SMALL
GASTEIGER

@<TRIPOS>ATOM
      1  CX        11.3030   51.2840   25.5070 C.3     1  6821        0.2173
      2  CY        11.5590   51.4010   23.9880 C.3     1  6821        0.1320
      3  CZ        11.6850   52.5300   26.3190 C.ar    1  6821        0.1203
      4  OX        13.0080   53.5790   22.8310 O.2     1  6821       -0.2715
      5  N4        13.0130   51.5390   23.8060 N.am    1  6821       -0.2027
      6  O5         9.9130   51.0020   25.6330 O.3     1  6821       -0.2142
      7  C6        11.2060   50.1440   23.1490 C.3     1  6821        0.0284
      8  C7        11.4300   50.2940   21.6390 C.3     1  6821        0.0488
      9  C8        11.1000   48.9970   20.9160 C.3     1  6821        0.2205
     10  N9        11.2880   49.2230   19.4740 N.pl3   1  6821       -0.0865
     11  C10       11.0960   48.3170   18.5030 C.cat   1  6821        0.5346
     12  N11       10.7100   47.0670   18.8040 N.pl3   1  6821        0.1354
     13  N12       11.2880   48.6770   17.2270 N.pl3   1  6821        0.1354
     14  N13       12.9140   52.7780   26.5970 N.ar    1  6821       -0.2386
     15  C14       13.0170   53.9520   27.3360 C.ar    1  6821        0.1061
     16  C15       11.7820   54.5390   27.5760 C.ar    1  6821        0.0573
     17  S16       10.5020   53.6440   26.8940 S.2     1  6821       -0.0677
     18  N17       15.5300   53.1370   21.8290 N.am    1  6821       -0.1782
     19  C18       15.1510   52.5430   23.1250 C.3     1  6821        0.1743
     20  C19       13.6240   52.6000   23.2470 C.2     1  6821        0.2613
     21  C20       15.8330   53.2930   24.3010 C.3     1  6821        0.0290
     22  C21       17.3180   52.9100   24.3910 C.3     1  6821        0.0023
     23  C22       15.7410   54.8320   24.1610 C.3     1  6821        0.0023
     24  C23       15.1390   52.7170   20.6050 C.2     1  6821        0.3593
     25  N24       15.7000   53.5290   19.4360 N.am    1  6821       -0.0679
     26  O25       14.3890   51.7560   20.4190 O.2     1  6821       -0.2474
@<TRIPOS>BOND
     1    13    11    1
     2    11    12    1
     3    11    10    2
     4    25    24   am
     5    10     9    1
     6    26    24    2
     7    24    18   am
     8     9     8    1
     9     8     7    1
    10    18    19    1
    11     4    20    2
    12    19    20    1
    13    19    21    1
    14     7     2    1
    15    20     5   am
    16     5     2    1
    17     2     1    1
    18    23    21    1
    19    21    22    1
    20     1     6    1
    21     1     3    1
    22     3    14   ar
    23     3    17   ar
    24    14    15   ar
    25    17    16   ar
    26    15    16   ar
