@<TRIPOS>MOLECULE
2fdc_FLQ_C_1.pdb
 32 36 0 0 0
SMALL
GASTEIGER

@<TRIPOS>ATOM
      1  C1        58.5500   24.5800   73.4820 C.2   473  FLQ473      0.1982
      2  O1        58.6190   23.7410   74.3500 O.2   473  FLQ473     -0.2865
      3  C2        57.4110   24.6400   72.6550 C.2   473  FLQ473      0.0754
      4  C3        57.3200   25.6200   71.6470 C.2   473  FLQ473      0.1337
      5  O2        56.1230   25.6350   70.8260 O.3   473  FLQ473     -0.4573
      6  C4        56.0550   26.6530   69.7920 C.ar  473  FLQ473      0.1476
      7  C5        54.9090   26.6890   68.9880 C.ar  473  FLQ473      0.0792
      8  C6        54.7690   27.6390   67.9710 C.ar  473  FLQ473      0.1988
      9  O3        53.5940   27.6220   67.2060 O.3   473  FLQ473     -0.2865
     10  C7        55.7960   28.5860   67.7390 C.ar  473  FLQ473      0.0420
     11  C8        56.9650   28.5800   68.5300 C.ar  473  FLQ473      0.0057
     12  C9        57.1170   27.6260   69.5690 C.ar  473  FLQ473      0.0530
     13  C10       58.3800   27.6060   70.4130 C.3   473  FLQ473      0.1868
     14  C11       58.3840   26.5460   71.4730 C.3   473  FLQ473      0.1242
     15  C12       59.5260   26.4650   72.3090 C.2   473  FLQ473     -0.0115
     16  C13       59.6080   25.4910   73.3150 C.2   473  FLQ473      0.0381
     17  C14       58.1160   31.9260   73.0620 C.2   473  FLQ473      0.2648
     18  C16       52.7130   32.2990   75.3670 C.3   473  FLQ473      0.0001
     19  C17       53.7970   33.3550   75.0550 C.3   473  FLQ473      0.0018
     20  C18       54.8060   32.8870   73.9720 C.3   473  FLQ473      0.0234
     21  C19       56.2130   32.6160   74.5400 C.3   473  FLQ473      0.1155
     22  O4        58.7260   32.9460   73.3120 O.2   473  FLQ473     -0.2684
     23  N1        56.9180   31.7130   73.6080 N.am  473  FLQ473     -0.2017
     24  C1'       58.7650   30.9400   72.1200 C.ar  473  FLQ473      0.0549
     25  C2'       60.0370   31.3120   71.6070 C.ar  473  FLQ473      0.0048
     26  C3'       60.7360   30.4840   70.7280 C.ar  473  FLQ473      0.0064
     27  C4'       60.1200   29.3140   70.4020 C.ar  473  FLQ473      0.0753
     28  C5'       58.8030   28.9770   70.9470 C.ar  473  FLQ473      0.0248
     29  C6'       58.1870   29.7920   71.7810 C.ar  473  FLQ473      0.0042
     30  O8'       59.4890   27.2160   69.5330 O.3   473  FLQ473     -0.4433
     31  C9'       60.5570   28.2100   69.5130 C.2   473  FLQ473      0.3414
     32  O9'       61.5960   28.1120   68.8640 O.2   473  FLQ473     -0.2449
@<TRIPOS>BOND
     1     9     8    1
     2    10     8   ar
     3    10    11   ar
     4     8     7   ar
     5    11    12   ar
     6    32    31    2
     7     7     6   ar
     8    31    30    1
     9    31    27    1
    10    30    13    1
    11    12     6   ar
    12    12    13    1
    13     6     5    1
    14    27    26   ar
    15    27    28   ar
    16    13    28    1
    17    13    14    1
    18    26    25   ar
    19     5     4    1
    20    28    29   ar
    21    14     4    1
    22    14    15    1
    23    25    24   ar
    24     4     3    2
    25    29    24   ar
    26    24    17    1
    27    15    16    2
    28     3     1    1
    29    17    22    2
    30    17    23   am
    31    16     1    1
    32     1     2    2
    33    23    21    1
    34    20    21    1
    35    20    19    1
    36    19    18    1
