@<TRIPOS>MOLECULE
2fdd_385_B_1.pdb
 48 53 0 0 0
SMALL
GASTEIGER

@<TRIPOS>ATOM
      1  C1        19.1120   16.4550   -2.6680 C.3   501  385501      0.1016
      2  C2        19.1160   17.8320   -3.3210 C.3   501  385501      0.2388
      3  C3        17.8580   15.7450   -3.2830 C.3   501  385501      0.2048
      4  C4        19.1730   16.7540   -1.1380 C.3   501  385501      0.0409
      5  O5        18.1130   17.8380   -4.3430 O.3   501  385501     -0.3265
      6  O6        18.8290   18.8250   -2.3170 O.3   501  385501     -0.3304
      7  C7        17.7050   16.4760   -4.6130 C.3   501  385501      0.1884
      8  O8        16.6510   15.8910   -2.5020 O.3   501  385501     -0.4345
      9  C9        18.5420   18.1800   -1.0650 C.3   501  385501      0.1451
     10  C10       16.1360   14.9530   -1.6710 C.2   501  385501      0.4211
     11  N11       15.2730   15.3280   -0.7260 N.am  501  385501     -0.1675
     12  O12       16.4630   13.7880   -1.7890 O.2   501  385501     -0.2246
     13  C13       14.5630   14.5580    0.3010 C.3   501  385501      0.1347
     14  C14       14.9040   15.1850    1.6950 C.3   501  385501      0.0508
     15  C15       13.0500   14.4330   -0.0530 C.3   501  385501      0.1898
     16  C16       16.3190   15.4780    2.0190 C.ar  501  385501     -0.0202
     17  C17       12.2780   13.3500    0.7240 C.3   501  385501      0.1304
     18  O18       12.4420   15.6830    0.1640 O.3   501  385501     -0.2197
     19  C19       16.7650   16.8210    2.1710 C.ar  501  385501     -0.0011
     20  C20       17.2540   14.4010    2.1620 C.ar  501  385501     -0.0011
     21  N21       12.7790   12.0370    0.3920 N.3   501  385501     -0.1529
     22  C22       18.1430   17.0970    2.4590 C.ar  501  385501      0.0366
     23  C23       18.6080   14.6730    2.4450 C.ar  501  385501      0.0366
     24  S24       13.6070   11.1740    1.6290 S.O2  501  385501      0.0635
     25  C25       11.9630   11.2370   -0.5190 C.3   501  385501      0.0958
     26  C26       19.0540   16.0180    2.5900 C.ar  501  385501      0.1391
     27  C27       12.4000   10.4830    2.6670 C.ar  501  385501      0.1254
     28  O28       14.4820   12.0190    2.3990 O.2   501  385501     -0.1528
     29  O29       14.3940   10.1000    1.0750 O.2   501  385501     -0.1528
     30  C30       12.1150   11.5210   -2.0320 C.3   501  385501      0.0178
     31  O31       20.3470   16.2800    2.8360 O.3   501  385501     -0.4682
     32  C32       11.8290    9.2120    2.3430 C.ar  501  385501      0.0601
     33  C33       11.9540   11.1860    3.8300 C.ar  501  385501      0.0232
     34  C34       11.0020   10.8420   -2.8490 C.3   501  385501      0.0015
     35  C35       13.5260   11.1920   -2.5770 C.3   501  385501      0.0015
     36  C36       21.2310   16.9730    2.0080 C.3   501  385501      0.2600
     37  C37       10.8300    8.6510    3.1650 C.ar  501  385501      0.1778
     38  C38       10.9490   10.6200    4.6560 C.ar  501  385501      0.0416
     39  C39       22.6790   16.6290    2.3140 C.2   501  385501      0.1418
     40  C40       10.3830    9.3510    4.3200 C.ar  501  385501      0.1765
     41  O41       10.1540    7.4850    3.0580 O.3   501  385501     -0.4346
     42  N42       23.5190   17.4660    2.9650 N.2   501  385501     -0.4041
     43  C43       23.2240   15.4300    1.9360 C.3   501  385501      0.1223
     44  O44        9.4260    8.6180    4.9320 O.3   501  385501     -0.4346
     45  C45        9.2510    7.4200    4.1580 C.3   501  385501      0.4294
     46  C46       24.7090   16.9850    3.1170 C.2   501  385501      0.1345
     47  S47       24.8660   15.3960    2.4370 S.3   501  385501     -0.0794
     48  C48       25.8380   17.7150    3.8070 C.3   501  385501      0.0735
@<TRIPOS>BOND
     1     7     5    1
     2     7     3    1
     3     5     2    1
     4     2     1    1
     5     2     6    1
     6     3     1    1
     7     3     8    1
     8    34    30    1
     9     1     4    1
    10    35    30    1
    11     8    10    1
    12     6     9    1
    13    30    25    1
    14    12    10    2
    15    10    11   am
    16     4     9    1
    17    11    13    1
    18    25    21    1
    19    15    18    1
    20    15    13    1
    21    15    17    1
    22    13    14    1
    23    21    17    1
    24    21    24    1
    25    29    24    2
    26    24    28    2
    27    24    27    1
    28    14    16    1
    29    43    39    1
    30    43    47    1
    31    36    39    1
    32    36    31    1
    33    16    20   ar
    34    16    19   ar
    35    20    23   ar
    36    19    22   ar
    37    39    42    2
    38    32    27   ar
    39    32    37   ar
    40    47    46    1
    41    23    26   ar
    42    22    26   ar
    43    26    31    1
    44    27    33   ar
    45    42    46    2
    46    41    37    1
    47    41    45    1
    48    46    48    1
    49    37    40   ar
    50    33    38   ar
    51    45    44    1
    52    40    38   ar
    53    40    44    1
