@<TRIPOS>MOLECULE
2fde_385_A_1.pdb
 48 53 0 0 0
SMALL
GASTEIGER

@<TRIPOS>ATOM
      1  C1       -20.7840   40.2900    5.8800 C.3   101  385101      0.1016
      2  C2       -20.1510   39.6720    7.1090 C.3   101  385101      0.2388
      3  C3       -21.7770   39.1960    5.3520 C.3   101  385101      0.2048
      4  C4       -19.5520   40.7060    5.0210 C.3   101  385101      0.0409
      5  O5       -21.0110   38.6200    7.5850 O.3   101  385101     -0.3265
      6  O6       -18.8470   39.1580    6.7230 O.3   101  385101     -0.3304
      7  C7       -21.9740   38.2550    6.5500 C.3   101  385101      0.1884
      8  O8       -21.2950   38.4640    4.2510 O.3   101  385101     -0.4345
      9  C9       -18.5140   39.5930    5.3800 C.3   101  385101      0.1451
     10  C10      -21.6070   38.6590    2.9340 C.2   101  385101      0.4211
     11  N11      -20.8440   38.0530    1.9970 N.am  101  385101     -0.1675
     12  O12      -22.5510   39.3590    2.6200 O.2   101  385101     -0.2246
     13  C13      -20.8970   38.0380    0.5340 C.3   101  385101      0.1347
     14  C14      -19.6030   38.7570   -0.0320 C.3   101  385101      0.0508
     15  C15      -21.1750   36.5690    0.0260 C.3   101  385101      0.1898
     16  C16      -19.0780   39.9750    0.6290 C.ar  101  385101     -0.0202
     17  C17      -21.5830   36.4570   -1.4360 C.3   101  385101      0.1304
     18  O18      -20.0300   35.7900    0.2220 O.3   101  385101     -0.2197
     19  C19      -17.8790   39.9290    1.4110 C.ar  101  385101     -0.0011
     20  C20      -19.7960   41.2140    0.5080 C.ar  101  385101     -0.0011
     21  N21      -22.8240   37.1370   -1.6670 N.3   101  385101     -0.1529
     22  C22      -17.3960   41.1190    2.0700 C.ar  101  385101      0.0366
     23  C23      -19.3270   42.3890    1.1550 C.ar  101  385101      0.0366
     24  S24      -22.8180   38.6260   -2.6040 S.O2  101  385101      0.0635
     25  C25      -23.9850   36.2690   -1.7690 C.3   101  385101      0.0958
     26  C26      -18.1300   42.3410    1.9420 C.ar  101  385101      0.1391
     27  C27      -22.8720   38.2470   -4.2700 C.ar  101  385101      0.1254
     28  O28      -21.6600   39.4290   -2.3310 O.2   101  385101     -0.1528
     29  O29      -23.9400   39.4760   -2.2830 O.2   101  385101     -0.1528
     30  C30      -24.9530   36.2370   -0.5690 C.3   101  385101      0.0178
     31  O31      -17.6930   43.4480    2.5720 O.3   101  385101     -0.4682
     32  C32      -24.1070   37.9510   -4.8760 C.ar  101  385101      0.0601
     33  C33      -21.6760   38.2120   -5.0320 C.ar  101  385101      0.0232
     34  C34      -26.4150   36.2240   -1.0620 C.3   101  385101      0.0015
     35  C35      -24.6880   37.3260    0.5160 C.3   101  385101      0.0015
     36  C36      -17.7520   43.7330    3.9560 C.3   101  385101      0.2600
     37  C37      -24.1620   37.6280   -6.2420 C.ar  101  385101      0.1778
     38  C38      -21.7240   37.8880   -6.4130 C.ar  101  385101      0.0416
     39  C39      -17.9980   45.2300    4.2330 C.2   101  385101      0.1418
     40  C40      -22.9680   37.5820   -7.0180 C.ar  101  385101      0.1765
     41  O41      -25.2150   37.3120   -7.0200 O.3   101  385101     -0.4346
     42  N42      -17.7320   45.8070    5.4370 N.2   101  385101     -0.4041
     43  C43      -18.5050   46.0920    3.2790 C.3   101  385101      0.1223
     44  O44      -23.2720   37.2520   -8.2990 O.3   101  385101     -0.4346
     45  C45      -24.7000   37.0640   -8.3470 C.3   101  385101      0.4294
     46  C46      -18.0010   47.0830    5.4780 C.2   101  385101      0.1345
     47  S47      -18.6310   47.6820    3.9590 S.3   101  385101     -0.0794
     48  C48      -17.7910   47.9560    6.7010 C.3   101  385101      0.0735
@<TRIPOS>BOND
     1    45    44    1
     2    45    41    1
     3    44    40    1
     4    41    37    1
     5    40    38   ar
     6    40    37   ar
     7    38    33   ar
     8    37    32   ar
     9    33    27   ar
    10    32    27   ar
    11    27    24    1
    12    24    28    2
    13    24    29    2
    14    24    21    1
    15    25    21    1
    16    25    30    1
    17    21    17    1
    18    17    15    1
    19    34    30    1
    20    30    35    1
    21    14    13    1
    22    14    16    1
    23    15    18    1
    24    15    13    1
    25    20    16   ar
    26    20    23   ar
    27    13    11    1
    28    16    19   ar
    29    23    26   ar
    30    19    22   ar
    31    26    22   ar
    32    26    31    1
    33    11    10   am
    34    31    36    1
    35    12    10    2
    36    10     8    1
    37    43    47    1
    38    43    39    1
    39    36    39    1
    40    47    46    1
    41    39    42    2
    42     8     3    1
    43     4     9    1
    44     4     1    1
    45     3     1    1
    46     3     7    1
    47     9     6    1
    48    42    46    2
    49    46    48    1
    50     1     2    1
    51     7     5    1
    52     6     2    1
    53     2     5    1
