@<TRIPOS>MOLECULE
2fdf_AKG_A_1.pdb
 10 9 0 0 0
SMALL
GASTEIGER

@<TRIPOS>ATOM
      1  C1        26.1880   37.1200   57.3320 C.2   400  AKG400      0.4219
      2  O1        27.0050   36.3720   56.8380 O.co2 400  AKG400     -0.2373
      3  O2        26.5680   38.3100   57.8020 O.co2 400  AKG400     -0.2373
      4  C2        24.7420   36.7930   57.2880 C.2   400  AKG400      0.2526
      5  O5        23.9610   37.5430   57.8210 O.2   400  AKG400     -0.2843
      6  C3        24.2730   35.4950   56.6710 C.3   400  AKG400      0.0881
      7  C4        22.7450   35.4850   56.5080 C.3   400  AKG400      0.1224
      8  C5        22.2810   34.1280   56.0500 C.2   400  AKG400      0.3653
      9  O3        22.9130   33.1390   56.3270 O.co2 400  AKG400     -0.2456
     10  O4        21.2440   34.0230   55.2190 O.co2 400  AKG400     -0.2456
@<TRIPOS>BOND
     1    10     8   ar
     2     8     9   ar
     3     8     7    1
     4     7     6    1
     5     6     4    1
     6     2     1   ar
     7     4     1    1
     8     4     5    2
     9     1     3   ar
