@<TRIPOS>MOLECULE
2fdh_AKG_A_1.pdb
 10 9 0 0 0
SMALL
GASTEIGER

@<TRIPOS>ATOM
      1  C1        24.6160   36.9560   59.3080 C.2   400  AKG400      0.4219
      2  O1        25.4220   36.0500   59.3540 O.co2 400  AKG400     -0.2373
      3  O2        25.0340   38.2240   59.3950 O.co2 400  AKG400     -0.2373
      4  C2        23.1560   36.6750   59.1520 C.2   400  AKG400      0.2526
      5  O5        22.3580   37.5600   59.3880 O.2   400  AKG400     -0.2843
      6  C3        22.6820   35.2950   58.7250 C.3   400  AKG400      0.0881
      7  C4        21.1700   35.2830   58.4500 C.3   400  AKG400      0.1224
      8  C5        20.7200   33.9230   57.9670 C.2   400  AKG400      0.3653
      9  O3        21.2860   32.9150   58.3270 O.co2 400  AKG400     -0.2456
     10  O4        19.7220   33.8310   57.0860 O.co2 400  AKG400     -0.2456
@<TRIPOS>BOND
     1    10     8   ar
     2     8     9   ar
     3     8     7    1
     4     7     6    1
     5     6     4    1
     6     4     1    1
     7     4     5    2
     8     1     2   ar
     9     1     3   ar
