@<TRIPOS>MOLECULE
2fdi_AKG_A_1.pdb
 10 9 0 0 0
SMALL
GASTEIGER

@<TRIPOS>ATOM
      1  C1         4.1690   16.5410    3.4200 C.2   400  AKG400      0.4219
      2  O1         4.8210   15.5570    3.7100 O.co2 400  AKG400     -0.2373
      3  O2         4.6850   17.7570    3.6270 O.co2 400  AKG400     -0.2373
      4  C2         2.7530   16.4030    2.9590 C.2   400  AKG400      0.2526
      5  O5         2.0290   17.3790    2.9490 O.2   400  AKG400     -0.2843
      6  C3         2.2740   15.0860    2.3730 C.3   400  AKG400      0.0881
      7  C4         0.8010   14.8490    2.7200 C.3   400  AKG400      0.1224
      8  C5         0.3570   13.4930    2.2220 C.2   400  AKG400      0.3653
      9  O3         1.0000   12.5040    2.4850 O.co2 400  AKG400     -0.2456
     10  O4        -0.7240   13.4050    1.4390 O.co2 400  AKG400     -0.2456
@<TRIPOS>BOND
     1    10     8   ar
     2     8     9   ar
     3     8     7    1
     4     6     7    1
     5     6     4    1
     6     5     4    2
     7     4     1    1
     8     1     3   ar
     9     1     2   ar
