@<TRIPOS>MOLECULE
2fdk_AKG_A_1.pdb
 10 9 0 0 0
SMALL
GASTEIGER

@<TRIPOS>ATOM
      1  C1        16.6090    4.5710   -4.1530 C.2   400  AKG400      0.4219
      2  O1        15.7010    5.3100   -4.4900 O.co2 400  AKG400     -0.2373
      3  O2        17.8720    5.0040   -4.1970 O.co2 400  AKG400     -0.2373
      4  C2        16.3250    3.1490   -3.8050 C.2   400  AKG400      0.2526
      5  O5        17.2090    2.3240   -3.8920 O.2   400  AKG400     -0.2843
      6  C3        14.9640    2.7620   -3.2570 C.3   400  AKG400      0.0881
      7  C4        14.5240    1.4130   -3.8320 C.3   400  AKG400      0.1224
      8  C5        13.3670    0.8600   -3.0360 C.2   400  AKG400      0.3653
      9  O3        12.3380    1.4910   -2.9380 O.co2 400  AKG400     -0.2456
     10  O4        13.5300   -0.2680   -2.3350 O.co2 400  AKG400     -0.2456
@<TRIPOS>BOND
     1     2     1   ar
     2     3     1   ar
     3     1     4    1
     4     5     4    2
     5     7     6    1
     6     7     8    1
     7     4     6    1
     8     8     9   ar
     9     8    10   ar
