@<TRIPOS>MOLECULE
2fdm_III_P_1.pdb
 36 40 0 0 0
SMALL
GASTEIGER

@<TRIPOS>ATOM
      1  N          3.5240   41.2370   18.8320 N.3     1  TRP1       -0.1228
      2  CA         2.1370   41.7980   18.7790 C.3     1  TRP1        0.1722
      3  C          1.8250   42.5960   20.0530 C.2     1  TRP1        0.2437
      4  O          1.2120   43.6730   19.9630 O.2     1  TRP1       -0.2733
      5  CB         1.0960   40.6590   18.5100 C.3     1  TRP1        0.0563
      6  CG         0.0630   40.3520   19.6150 C.2     1  TRP1        0.0000
      7  CD1       -0.4850   41.2390   20.5160 C.2     1  TRP1        0.0946
      8  CD2       -0.5890   39.0890   19.8590 C.2     1  TRP1        0.0113
      9  NE1       -1.4340   40.6080   21.2950 N.2     1  TRP1       -0.2442
     10  CE2       -1.5200   39.2960   20.9150 C.2     1  TRP1        0.0804
     11  CE3       -0.4810   37.8130   19.2880 C.2     1  TRP1       -0.0202
     12  CZ2       -2.3310   38.2680   21.4070 C.2     1  TRP1        0.0148
     13  CZ3       -1.2910   36.7920   19.7820 C.3     1  TRP1        0.0521
     14  CH2       -2.2060   37.0300   20.8330 C.2     1  TRP1       -0.0199
     15  N          2.2260   42.0750   21.2440 N.am    2  PRO2       -0.2718
     16  CA         2.1490   42.4930   22.6570 C.3     2  PRO2        0.1535
     17  C          2.6420   43.9050   23.0120 C.2     2  PRO2        0.2599
     18  O          3.2000   44.1580   24.0850 O.2     2  PRO2       -0.2715
     19  CB         2.9640   41.4160   23.3370 C.3     2  PRO2        0.0310
     20  CG         2.4560   40.2080   22.6670 C.3     2  PRO2        0.0237
     21  CD         2.4640   40.6150   21.1980 C.3     2  PRO2        0.0939
     22  N          2.4470   44.7920   22.0480 N.am    3  TRP3       -0.1938
     23  CA         2.7810   46.2140   22.0760 C.3     3  TRP3        0.2021
     24  C          1.9460   46.8700   23.2070 C.2     3  TRP3        0.3845
     25  O          0.8150   47.3260   22.8880 O.co2   3  TRP3       -0.2437
     26  CB         2.3530   46.7770   20.7220 C.3     3  TRP3        0.0612
     27  CG         3.2660   47.7240   20.0500 C.2     3  TRP3        0.0004
     28  CD1        3.1060   49.0730   19.9690 C.2     3  TRP3        0.0946
     29  CD2        4.3860   47.3990   19.2080 C.2     3  TRP3        0.0113
     30  NE1        4.0380   49.6140   19.1160 N.2     3  TRP3       -0.2442
     31  CE2        4.8370   48.6110   18.6330 C.2     3  TRP3        0.0804
     32  CE3        5.0470   46.2040   18.8790 C.2     3  TRP3       -0.0202
     33  CZ2        5.9160   48.6690   17.7430 C.2     3  TRP3        0.0148
     34  CZ3        6.1270   46.2610   17.9890 C.3     3  TRP3        0.0521
     35  CH2        6.5450   47.4900   17.4310 C.2     3  TRP3       -0.0199
     36  OXT        2.3800   46.9150   24.3920 O.co2   3  TRP3       -0.2437
@<TRIPOS>BOND
     1    35    33    2
     2    35    34    1
     3    33    31    1
     4    34    32    1
     5     5     2    1
     6     5     6    1
     7    31    30    2
     8    31    29    1
     9     2     1    1
    10     2     3    1
    11    32    29    2
    12    30    28    1
    13    29    27    1
    14    11    13    1
    15    11     8    2
    16     6     8    1
    17     6     7    2
    18    13    14    1
    19     8    10    1
    20     4     3    2
    21    28    27    2
    22    27    26    1
    23     3    15   am
    24     7     9    1
    25    26    23    1
    26    14    12    2
    27    10     9    2
    28    10    12    1
    29    21    15    1
    30    21    20    1
    31    15    16    1
    32    22    23    1
    33    22    17   am
    34    23    24    1
    35    16    17    1
    36    16    19    1
    37    20    19    1
    38    25    24   ar
    39    17    18    2
    40    24    36   ar
