@<TRIPOS>MOLECULE
2fdp_FRP_A_1.pdb
 41 43 0 0 0
SMALL
GASTEIGER

@<TRIPOS>ATOM
      1  C31        6.4360   -3.4430   47.6330 C.ar  386  FRP386     -0.0042
      2  C30        5.2030   -3.2140   48.2440 C.ar  386  FRP386     -0.0003
      3  C28        6.2860   -3.1240   50.3960 C.ar  386  FRP386     -0.0003
      4  C27       14.7320   -6.6620   50.3870 C.ar  386  FRP386      0.0189
      5  C26       14.9530   -6.4920   49.0190 C.ar  386  FRP386      0.0735
      6  C24       15.8690   -8.7370   48.9100 C.ar  386  FRP386      0.0310
      7  C23       15.6420   -8.8990   50.2730 C.ar  386  FRP386      0.1402
      8  C22       15.0760   -7.8620   51.0100 C.ar  386  FRP386      0.0310
      9  C16       11.3700   -3.1390   47.4280 C.3   386  FRP386      0.1125
     10  C17        8.9240   -3.7690   47.6910 C.3   386  FRP386      0.0495
     11  C20       14.1040   -4.2230   48.8310 C.2   386  FRP386      0.2451
     12  C15       10.1190   -3.0290   48.3100 C.3   386  FRP386      0.1174
     13  C12        9.9800   -0.8610   49.4780 C.2   386  FRP386      0.2648
     14  C13        4.8430    3.0000   50.9840 C.3   386  FRP386      0.0018
     15  C14        4.9770    0.6060   45.3410 C.3   386  FRP386      0.0018
     16  C11        4.1570    1.9000   50.2020 C.3   386  FRP386      0.0215
     17  C10        4.0590    0.7510   46.5360 C.3   386  FRP386      0.0215
     18  C9         4.2710    2.0730   47.2780 C.3   386  FRP386      0.0937
     19  C8         5.1400    1.0810   49.3640 C.3   386  FRP386      0.0937
     20  C7         6.6200    2.3680   47.8440 C.2   386  FRP386      0.2490
     21  C4         8.3560    0.8520   48.7260 C.ar  386  FRP386      0.0091
     22  C5         9.4810    0.5540   49.4830 C.ar  386  FRP386      0.0552
     23  C6        10.0910    1.5610   50.2340 C.ar  386  FRP386      0.0046
     24  C3         7.8260    2.1370   48.7070 C.ar  386  FRP386      0.0537
     25  C2         8.4390    3.1520   49.4410 C.ar  386  FRP386      0.0045
     26  C1         9.5700    2.8580   50.2080 C.ar  386  FRP386      0.0003
     27  F1        15.9740  -10.0530   50.8790 F     386  FRP386     -0.2042
     28  C25       15.5220   -7.5390   48.2920 C.ar  386  FRP386      0.0189
     29  N3        14.6460   -5.3450   48.3450 N.am  386  FRP386     -0.1792
     30  O3        13.7960   -4.0460   49.9960 O.2   386  FRP386     -0.2730
     31  C19       13.8940   -3.1290   47.8200 C.3   386  FRP386      0.0801
     32  C21       15.0500   -2.1360   47.9100 C.3   386  FRP386      0.0097
     33  C18       12.5660   -2.4110   48.0430 C.3   386  FRP386      0.0299
     34  N4        11.1000   -2.6300   46.0980 N.3   386  FRP386     -0.1311
     35  C32        7.6010   -3.5130   48.3950 C.ar  386  FRP386     -0.0204
     36  C33        7.5180   -3.3590   49.7830 C.ar  386  FRP386     -0.0042
     37  C29        5.1250   -3.0530   49.6270 C.ar  386  FRP386     -0.0000
     38  N2         9.7120   -1.6260   48.4130 N.am  386  FRP386     -0.2016
     39  O2        10.6000   -1.2740   50.4470 O.2   386  FRP386     -0.2684
     40  O1         6.7850    3.0060   46.8190 O.2   386  FRP386     -0.2699
     41  N1         5.4190    1.8610   48.1560 N.am  386  FRP386     -0.2761
@<TRIPOS>BOND
     1    15    17    1
     2    34     9    1
     3    17    18    1
     4    40    20    2
     5    18    41    1
     6     9    33    1
     7     9    12    1
     8     1     2   ar
     9     1    35   ar
    10    10    12    1
    11    10    35    1
    12    31    32    1
    13    31    33    1
    14    31    11    1
    15    20    41   am
    16    20    24    1
    17    41    19    1
    18     2    37   ar
    19    28     6   ar
    20    28     5   ar
    21    12    38    1
    22    29    11   am
    23    29     5    1
    24    35    36   ar
    25    38    13   am
    26    24    21   ar
    27    24    25   ar
    28    21    22   ar
    29    11    30    2
    30     6     7   ar
    31     5     4   ar
    32    19    16    1
    33    25    26   ar
    34    13    22    1
    35    13    39    2
    36    22    23   ar
    37    37     3   ar
    38    36     3   ar
    39    16    14    1
    40    26    23   ar
    41     7    27    1
    42     7     8   ar
    43     4     8   ar
