@<TRIPOS>MOLECULE
2fdu_HEM_A_1.pdb
 43 50 0 0 0
SMALL
GASTEIGER

@<TRIPOS>ATOM
      1 FE         51.9630   83.0490   57.3150 Fe    500  HEM500      0.0000
      2  CHA       51.7030   83.6710   60.6520 C.2   500  HEM500      0.0000
      3  CHB       48.8970   81.7420   57.3350 C.2   500  HEM500      0.0000
      4  CHC       52.1950   82.4900   54.0270 C.2   500  HEM500      0.0000
      5  CHD       55.0690   84.2610   57.3840 C.2   500  HEM500      0.0000
      6  NA        50.5260   82.7290   58.7370 N.2   500  HEM500      0.0000
      7  C1A       50.6070   83.0320   60.0780 C.2   500  HEM500      0.0000
      8  C2A       49.4310   82.6770   60.7160 C.2   500  HEM500      0.0000
      9  C3A       48.6140   82.1510   59.7430 C.2   500  HEM500      0.0000
     10  C4A       49.3410   82.2100   58.5470 C.2   500  HEM500      0.0000
     11  CMA       47.1460   81.5810   59.8760 C.3   500  HEM500      0.0000
     12  CAA       49.1400   82.8730   62.1880 C.3   500  HEM500      0.0000
     13  CBA       48.5470   84.2710   62.3970 C.3   500  HEM500      0.0000
     14  CGA       48.0950   84.5960   63.8060 C.2   500  HEM500      0.0000
     15  O1A       47.0520   85.2590   63.8970 O.co2 500  HEM500      0.0000
     16  O2A       48.6810   84.1890   64.8330 O.co2 500  HEM500      0.0000
     17  NB        50.7410   82.2260   55.8920 N.ar  500  HEM500      0.0000
     18  C1B       49.4910   81.7690   56.0600 C.ar  500  HEM500      0.0000
     19  C2B       48.9530   81.2710   54.8380 C.ar  500  HEM500      0.0000
     20  C3B       49.9460   81.4520   53.8840 C.ar  500  HEM500      0.0000
     21  C4B       51.0380   82.0560   54.5970 C.ar  500  HEM500      0.0000
     22  CMB       47.5570   80.6700   54.6330 C.3   500  HEM500      0.0000
     23  CAB       49.9500   81.1410   52.4730 C.3   500  HEM500      0.0000
     24  CBB       48.9020   80.7110   51.5570 C.3   500  HEM500      0.0000
     25  NC        53.4090   83.2890   55.9130 N.2   500  HEM500      0.0000
     26  C1C       53.3120   83.0460   54.6100 C.2   500  HEM500      0.0000
     27  C2C       54.4710   83.4140   53.9380 C.2   500  HEM500      0.0000
     28  C3C       55.3320   83.9040   54.8960 C.2   500  HEM500      0.0000
     29  C4C       54.6360   83.8180   56.1220 C.2   500  HEM500      0.0000
     30  CMC       54.7660   83.3040   52.3970 C.3   500  HEM500      0.0000
     31  CAC       56.6090   84.4030   54.8380 C.2   500  HEM500      0.0000
     32  CBC       57.1150   85.4640   54.1260 C.2   500  HEM500      0.0000
     33  ND        53.2070   83.8390   58.7880 N.ar  500  HEM500      0.0000
     34  C1D       54.4250   84.2100   58.6160 C.ar  500  HEM500      0.0000
     35  C2D       54.9660   84.6330   59.8280 C.ar  500  HEM500      0.0000
     36  C3D       54.0020   84.5030   60.7510 C.ar  500  HEM500      0.0000
     37  C4D       52.9110   83.9980   60.0630 C.ar  500  HEM500      0.0000
     38  CMD       56.4390   85.1520   60.0980 C.3   500  HEM500      0.0000
     39  CAD       54.0630   84.8230   62.2500 C.3   500  HEM500      0.0000
     40  CBD       53.6090   86.2940   62.6100 C.3   500  HEM500      0.0000
     41  CGD       53.7310   86.6210   64.1410 C.2   500  HEM500      0.0000
     42  O1D       53.7240   87.7600   64.5290 O.co2 500  HEM500      0.0000
     43  O2D       53.9010   85.6810   64.9770 O.co2 500  HEM500      0.0000
@<TRIPOS>BOND
     1    24    23    1
     2    30    27    1
     3    23    20    1
     4    20    21   ar
     5    20    19   ar
     6    27    26    1
     7    27    28    2
     8     4    21    1
     9     4    26    2
    10    32    31    2
    11    21    17   ar
    12    26    25    1
    13    22    19    1
    14    31    28    1
    15    19    18   ar
    16    28    29    1
    17    17    18   ar
    18    17     1    1
    19    25    29    2
    20    25     1    1
    21    18     3    1
    22    29     5    1
    23     1     6    1
    24     1    33    1
    25     3    10    2
    26     5    34    2
    27    10     6    1
    28    10     9    1
    29    34    33   ar
    30    34    35   ar
    31     6     7    2
    32    33    37   ar
    33     9    11    1
    34     9     8    2
    35    35    38    1
    36    35    36   ar
    37    37     2    2
    38    37    36   ar
    39     7     2    1
    40     7     8    1
    41     8    12    1
    42    36    39    1
    43    12    13    1
    44    39    40    1
    45    13    14    1
    46    40    41    1
    47    14    15   ar
    48    14    16   ar
    49    41    42   ar
    50    41    43   ar
