@<TRIPOS>MOLECULE
2fdu_D1G_A_1.pdb
 15 16 0 0 0
SMALL
GASTEIGER

@<TRIPOS>ATOM
      1  C_1       56.0800   77.5020   60.5660 C.ar  501  D1G501      0.0537
      2  C_2       56.5120   76.1540   60.8440 C.ar  501  D1G501      0.0062
      3  C_3       57.8580   75.9290   61.1990 C.ar  501  D1G501      0.0208
      4  C_4       58.7390   77.0660   61.2700 C.ar  501  D1G501      0.0989
      5  N_1       58.3320   78.3220   61.0060 N.ar  501  D1G501     -0.2422
      6  C_5       57.0420   78.5430   60.6630 C.ar  501  D1G501      0.1019
      7  C_6       54.7500   77.7860   60.2090 C.ar  501  D1G501      0.1464
      8  C_7       53.6470   76.9970   60.0410 C.ar  501  D1G501      0.0404
      9  C_8       52.5620   77.8640   59.6730 C.ar  501  D1G501      0.0375
     10  C_9       53.0890   79.1440   59.6370 C.ar  501  D1G501      0.1390
     11  O_1       54.4210   79.1370   59.9570 O.2   501  D1G501     -0.4563
     12  C10       52.4880   80.4590   59.2950 C.3   501  D1G501      0.1377
     13  N_2       52.7740   80.8910   57.9150 N.3   501  D1G501     -0.2639
     14  C11       54.1610   81.0130   57.7150 C.3   501  D1G501      0.0900
     15  C12       52.2540   80.0130   56.9250 C.3   501  D1G501      0.0900
@<TRIPOS>BOND
     1    15    13    1
     2    14    13    1
     3    13    12    1
     4    12    10    1
     5    10     9   ar
     6    10    11   ar
     7     9     8   ar
     8    11     7   ar
     9     8     7   ar
    10     7     1    1
    11     1     6   ar
    12     1     2   ar
    13     6     5   ar
    14     2     3   ar
    15     5     4   ar
    16     3     4   ar
