@<TRIPOS>MOLECULE
2fdv_HEM_A_1.pdb
 43 50 0 0 0
SMALL
GASTEIGER

@<TRIPOS>ATOM
      1 FE         51.9870   83.0410   57.4450 Fe    500  HEM500      0.0000
      2  CHA       51.6960   83.7000   60.8080 C.2   500  HEM500      0.0000
      3  CHB       48.8420   81.7150   57.4620 C.2   500  HEM500      0.0000
      4  CHC       52.1840   82.5160   54.1080 C.2   500  HEM500      0.0000
      5  CHD       55.1840   84.1050   57.5030 C.2   500  HEM500      0.0000
      6  NA        50.5280   82.7660   58.8510 N.ar  500  HEM500      0.0000
      7  C1A       50.6110   83.0710   60.1990 C.ar  500  HEM500      0.0000
      8  C2A       49.4250   82.6850   60.8410 C.ar  500  HEM500      0.0000
      9  C3A       48.6210   82.1310   59.8760 C.ar  500  HEM500      0.0000
     10  C4A       49.3050   82.1950   58.6770 C.ar  500  HEM500      0.0000
     11  CMA       47.1880   81.5210   60.0810 C.3   500  HEM500      0.0000
     12  CAA       49.1630   82.8850   62.3140 C.3   500  HEM500      0.0000
     13  CBA       48.5870   84.3120   62.4960 C.3   500  HEM500      0.0000
     14  CGA       48.1600   84.6290   63.9140 C.2   500  HEM500      0.0000
     15  O1A       47.0620   85.2470   64.0350 O.co2 500  HEM500      0.0000
     16  O2A       48.7460   84.2040   64.9390 O.co2 500  HEM500      0.0000
     17  NB        50.7850   82.1600   56.0440 N.2   500  HEM500      0.0000
     18  C1B       49.5390   81.6120   56.2190 C.2   500  HEM500      0.0000
     19  C2B       49.0370   81.1740   55.0050 C.2   500  HEM500      0.0000
     20  C3B       49.9610   81.4400   54.0570 C.2   500  HEM500      0.0000
     21  C4B       51.0500   82.0640   54.7500 C.2   500  HEM500      0.0000
     22  CMB       47.6480   80.5430   54.7990 C.3   500  HEM500      0.0000
     23  CAB       49.9270   81.2110   52.6500 C.3   500  HEM500      0.0000
     24  CBB       48.9050   80.6160   51.7530 C.3   500  HEM500      0.0000
     25  NC        53.4310   83.2320   56.0300 N.ar  500  HEM500      0.0000
     26  C1C       53.3050   83.0860   54.6860 C.ar  500  HEM500      0.0000
     27  C2C       54.4870   83.4610   54.0130 C.ar  500  HEM500      0.0000
     28  C3C       55.3750   83.8390   54.9880 C.ar  500  HEM500      0.0000
     29  C4C       54.7140   83.6990   56.2250 C.ar  500  HEM500      0.0000
     30  CMC       54.7560   83.4650   52.4710 C.3   500  HEM500      0.0000
     31  CAC       56.7010   84.2920   54.9200 C.2   500  HEM500      0.0000
     32  CBC       57.3280   85.1380   54.0370 C.2   500  HEM500      0.0000
     33  ND        53.2310   83.7840   58.8960 N.2   500  HEM500      0.0000
     34  C1D       54.5010   84.1400   58.7060 C.2   500  HEM500      0.0000
     35  C2D       55.0380   84.5870   59.9420 C.2   500  HEM500      0.0000
     36  C3D       54.0730   84.4790   60.8880 C.2   500  HEM500      0.0000
     37  C4D       52.9440   83.9660   60.1990 C.2   500  HEM500      0.0000
     38  CMD       56.4910   85.0910   60.1910 C.3   500  HEM500      0.0000
     39  CAD       54.1240   84.7980   62.3490 C.3   500  HEM500      0.0000
     40  CBD       53.6120   86.2370   62.6920 C.3   500  HEM500      0.0000
     41  CGD       53.7440   86.5490   64.2200 C.2   500  HEM500      0.0000
     42  O1D       53.8250   87.6940   64.5990 O.co2 500  HEM500      0.0000
     43  O2D       53.8180   85.6280   65.0520 O.co2 500  HEM500      0.0000
@<TRIPOS>BOND
     1    24    23    1
     2    30    27    1
     3    23    20    1
     4    27    26   ar
     5    27    28   ar
     6    32    31    2
     7    20    21    1
     8    20    19    2
     9     4    26    1
    10     4    21    2
    11    26    25   ar
    12    21    17    1
    13    22    19    1
    14    31    28    1
    15    28    29   ar
    16    19    18    1
    17    25    29   ar
    18    25     1    1
    19    17    18    2
    20    17     1    1
    21    18     3    1
    22    29     5    1
    23     1     6    1
    24     1    33    1
    25     3    10    2
    26     5    34    2
    27    10     6   ar
    28    10     9   ar
    29    34    33    1
    30    34    35    1
    31     6     7   ar
    32    33    37    2
    33     9    11    1
    34     9     8   ar
    35    35    38    1
    36    35    36    2
    37     7     2    2
    38     7     8   ar
    39    37     2    1
    40    37    36    1
    41     8    12    1
    42    36    39    1
    43    12    13    1
    44    39    40    1
    45    13    14    1
    46    40    41    1
    47    14    15   ar
    48    14    16   ar
    49    41    42   ar
    50    41    43   ar
