@<TRIPOS>MOLECULE
2fdv_D2G_A_1.pdb
 14 15 0 0 0
SMALL
GASTEIGER

@<TRIPOS>ATOM
      1  C_1       56.0870   77.5400   60.5940 C.ar  501  D2G501      0.0537
      2  C_2       56.4740   76.1860   60.8330 C.ar  501  D2G501      0.0062
      3  C_3       57.8270   75.9270   61.2000 C.ar  501  D2G501      0.0208
      4  C_4       58.6990   77.0500   61.3170 C.ar  501  D2G501      0.0989
      5  N_1       58.3250   78.3270   61.0970 N.ar  501  D2G501     -0.2422
      6  C_5       57.0570   78.5880   60.7400 C.ar  501  D2G501      0.1019
      7  C_6       54.7490   77.8390   60.2110 C.ar  501  D2G501      0.1464
      8  C_7       53.6520   77.0670   60.0190 C.ar  501  D2G501      0.0404
      9  C_8       52.5710   77.9620   59.6330 C.ar  501  D2G501      0.0376
     10  C_9       53.1170   79.2170   59.6160 C.ar  501  D2G501      0.1404
     11  O_1       54.4630   79.1820   59.9660 O.2   501  D2G501     -0.4563
     12  C10       52.5390   80.6000   59.2990 C.3   501  D2G501      0.1529
     13  N_2       52.7390   81.0530   57.9300 N.3   501  D2G501     -0.2085
     14  C11       53.0340   80.1650   56.8680 C.3   501  D2G501      0.1080
@<TRIPOS>BOND
     1    14    13    1
     2    13    12    1
     3    12    10    1
     4    10     9   ar
     5    10    11   ar
     6     9     8   ar
     7    11     7   ar
     8     8     7   ar
     9     7     1    1
    10     1     6   ar
    11     1     2   ar
    12     6     5   ar
    13     2     3   ar
    14     5     4   ar
    15     3     4   ar
