@<TRIPOS>MOLECULE
2fdw_D3G_A_1.pdb
 13 14 0 0 0
SMALL
GASTEIGER

@<TRIPOS>ATOM
      1  C_1       56.4930   76.2930   60.8580 C.ar  501  D3G501      0.0062
      2  C_2       57.7780   76.1240   61.4300 C.ar  501  D3G501      0.0208
      3  C_3       58.5890   77.2810   61.6180 C.ar  501  D3G501      0.0989
      4  N_1       58.1820   78.5470   61.2740 N.ar  501  D3G501     -0.2422
      5  C_4       56.9430   78.7050   60.7250 C.ar  501  D3G501      0.1019
      6  C_5       56.0440   77.6050   60.4890 C.ar  501  D3G501      0.0537
      7  C_6       54.7410   77.8060   59.9030 C.ar  501  D3G501      0.1464
      8  C_7       53.7010   76.9490   59.5660 C.ar  501  D3G501      0.0404
      9  C_8       52.6480   77.7600   59.0120 C.ar  501  D3G501      0.0376
     10  C_9       53.0990   79.0620   59.0400 C.ar  501  D3G501      0.1420
     11  O_1       54.3850   79.1190   59.5820 O.2   501  D3G501     -0.4562
     12  C10       52.5170   80.3640   58.6300 C.3   501  D3G501      0.1733
     13  N_2       53.2450   81.1330   57.6470 N.3   501  D3G501     -0.1227
@<TRIPOS>BOND
     1    13    12    1
     2    12    10    1
     3     9    10   ar
     4     9     8   ar
     5    10    11   ar
     6     8     7   ar
     7    11     7   ar
     8     7     6    1
     9     6     5   ar
    10     6     1   ar
    11     5     4   ar
    12     1     2   ar
    13     4     3   ar
    14     2     3   ar
