@<TRIPOS>MOLECULE
2fdw_HEM_A_1.pdb
 43 50 0 0 0
SMALL
GASTEIGER

@<TRIPOS>ATOM
      1 FE         52.0780   83.0820   57.3060 Fe    500  HEM500      0.0000
      2  CHA       51.8800   83.5740   60.6550 C.2   500  HEM500      0.0000
      3  CHB       49.0740   81.6180   57.3610 C.2   500  HEM500      0.0000
      4  CHC       52.2830   82.6300   54.0320 C.2   500  HEM500      0.0000
      5  CHD       55.2080   84.2320   57.3840 C.2   500  HEM500      0.0000
      6  NA        50.6550   82.7060   58.7480 N.2   500  HEM500      0.0000
      7  C1A       50.7060   83.0960   60.0580 C.2   500  HEM500      0.0000
      8  C2A       49.5260   82.7110   60.7170 C.2   500  HEM500      0.0000
      9  C3A       48.7540   82.0680   59.7640 C.2   500  HEM500      0.0000
     10  C4A       49.4950   82.0970   58.5790 C.2   500  HEM500      0.0000
     11  CMA       47.3250   81.4310   59.9460 C.3   500  HEM500      0.0000
     12  CAA       49.1920   82.9760   62.1920 C.3   500  HEM500      0.0000
     13  CBA       48.4800   84.2860   62.4080 C.3   500  HEM500      0.0000
     14  CGA       48.0820   84.6080   63.8350 C.2   500  HEM500      0.0000
     15  O1A       47.0590   85.2450   64.0280 O.co2 500  HEM500      0.0000
     16  O2A       48.7540   84.2480   64.7940 O.co2 500  HEM500      0.0000
     17  NB        50.8510   82.2080   55.8940 N.ar  500  HEM500      0.0000
     18  C1B       49.6620   81.6490   56.1040 C.ar  500  HEM500      0.0000
     19  C2B       49.0890   81.1820   54.8880 C.ar  500  HEM500      0.0000
     20  C3B       50.0480   81.5060   53.8890 C.ar  500  HEM500      0.0000
     21  C4B       51.1090   82.1410   54.6000 C.ar  500  HEM500      0.0000
     22  CMB       47.7440   80.4980   54.7690 C.3   500  HEM500      0.0000
     23  CAB       50.0210   81.2780   52.4730 C.3   500  HEM500      0.0000
     24  CBB       48.9140   80.8980   51.5550 C.3   500  HEM500      0.0000
     25  NC        53.5360   83.3890   55.9030 N.2   500  HEM500      0.0000
     26  C1C       53.3880   83.2490   54.5970 C.2   500  HEM500      0.0000
     27  C2C       54.5390   83.6130   53.9110 C.2   500  HEM500      0.0000
     28  C3C       55.4700   84.0060   54.8850 C.2   500  HEM500      0.0000
     29  C4C       54.7880   83.8470   56.1180 C.2   500  HEM500      0.0000
     30  CMC       54.7480   83.5830   52.3570 C.3   500  HEM500      0.0000
     31  CAC       56.7700   84.4530   54.8010 C.3   500  HEM500      0.0000
     32  CBC       57.3240   85.5720   54.1320 C.3   500  HEM500      0.0000
     33  ND        53.3240   83.8920   58.7550 N.ar  500  HEM500      0.0000
     34  C1D       54.5360   84.2950   58.5620 C.ar  500  HEM500      0.0000
     35  C2D       55.1060   84.6940   59.7780 C.ar  500  HEM500      0.0000
     36  C3D       54.1640   84.5150   60.7450 C.ar  500  HEM500      0.0000
     37  C4D       53.0540   84.0050   60.0550 C.ar  500  HEM500      0.0000
     38  CMD       56.5330   85.2330   59.9940 C.3   500  HEM500      0.0000
     39  CAD       54.2650   84.8020   62.2760 C.3   500  HEM500      0.0000
     40  CBD       53.8080   86.2600   62.6320 C.3   500  HEM500      0.0000
     41  CGD       53.8380   86.7010   64.1260 C.2   500  HEM500      0.0000
     42  O1D       53.8320   87.8620   64.4280 O.co2 500  HEM500      0.0000
     43  O2D       53.8590   85.8480   65.0190 O.co2 500  HEM500      0.0000
@<TRIPOS>BOND
     1    24    23    1
     2    30    27    1
     3    23    20    1
     4    20    21   ar
     5    20    19   ar
     6    27    26    1
     7    27    28    2
     8     4    26    2
     9     4    21    1
    10    32    31    1
    11    26    25    1
    12    21    17   ar
    13    22    19    1
    14    31    28    1
    15    28    29    1
    16    19    18   ar
    17    17    18   ar
    18    17     1    1
    19    25    29    2
    20    25     1    1
    21    18     3    1
    22    29     5    1
    23     1     6    1
    24     1    33    1
    25     3    10    2
    26     5    34    2
    27    34    33   ar
    28    34    35   ar
    29    10     6    1
    30    10     9    1
    31     6     7    2
    32    33    37   ar
    33     9    11    1
    34     9     8    2
    35    35    38    1
    36    35    36   ar
    37    37     2    2
    38    37    36   ar
    39     7     2    1
    40     7     8    1
    41     8    12    1
    42    36    39    1
    43    12    13    1
    44    39    40    1
    45    13    14    1
    46    40    41    1
    47    14    15   ar
    48    14    16   ar
    49    41    42   ar
    50    41    43   ar
