@<TRIPOS>MOLECULE
2fdx_FMN_A_1.pdb
 31 33 0 0 0
SMALL
GASTEIGER

@<TRIPOS>ATOM
      1  N1        27.8060   14.2280   15.8820 N.2   139  FMN139     -0.2887
      2  C2        27.9320   13.9720   17.1920 C.1   139  FMN139      0.3669
      3  O2        26.9670   13.7770   17.8940 O.2   139  FMN139     -0.1744
      4  N3        29.2020   13.9090   17.7510 N.2   139  FMN139     -0.2300
      5  C4        30.3830   14.1520   17.1070 C.1   139  FMN139      0.2513
      6  O4        31.4510   14.1670   17.7220 O.2   139  FMN139     -0.2057
      7  C4A       30.2410   14.4120   15.6650 C.2   139  FMN139      0.2706
      8  N5        31.3040   14.5340   14.9110 N.2   139  FMN139     -0.3841
      9  C5A       31.1090   14.6860   13.5700 C.2   139  FMN139      0.1452
     10  C6        32.2410   14.8040   12.7390 C.2   139  FMN139      0.0252
     11  C7        32.1250   15.0300   11.4040 C.2   139  FMN139     -0.0375
     12  C7M       33.3520   15.1320   10.5360 C.3   139  FMN139      0.0268
     13  C8        30.8350   15.1470   10.8150 C.3   139  FMN139      0.0417
     14  C8M       30.6570   15.4050    9.3400 C.3   139  FMN139      0.0091
     15  C9        29.7070   14.9940   11.6080 C.2   139  FMN139     -0.0049
     16  C9A       29.8200   14.7720   12.9800 C.2   139  FMN139      0.0795
     17  N10       28.7220   14.6020   13.8060 N.pl3 139  FMN139     -0.2545
     18  C10       28.8680   14.4570   15.1450 C.2   139  FMN139      0.2449
     19  C1'       27.3870   14.5560   13.2140 C.3   139  FMN139      0.1336
     20  C2'       26.8220   15.9680   13.0140 C.3   139  FMN139      0.2048
     21  O2'       26.8800   16.7560   14.2060 O.3   139  FMN139     -0.2185
     22  C3'       25.3700   15.8570   12.5560 C.3   139  FMN139      0.2165
     23  O3'       25.3260   15.1380   11.3270 O.3   139  FMN139     -0.2175
     24  C4'       24.5830   17.1790   12.4200 C.3   139  FMN139      0.2147
     25  O4'       23.2220   16.8920   12.0850 O.3   139  FMN139     -0.2176
     26  C5'       25.1670   18.0520   11.3070 C.3   139  FMN139      0.1892
     27  O5'       24.4740   19.3180   11.2350 O.3   139  FMN139     -0.2674
     28  P         24.8520   20.3190   10.1230 P.3   139  FMN139      0.5327
     29  O1P       24.2250   19.9500    8.8810 O.2   139  FMN139     -0.2224
     30  O2P       26.3260   20.4340   10.1090 O.3   139  FMN139     -0.1145
     31  O3P       24.2630   21.6140   10.6850 O.3   139  FMN139     -0.1145
@<TRIPOS>BOND
     1    29    28    2
     2    14    13    1
     3    30    28    1
     4    28    31    1
     5    28    27    1
     6    12    11    1
     7    13    11    1
     8    13    15    1
     9    27    26    1
    10    26    24    1
    11    23    22    1
    12    11    10    2
    13    15    16    2
    14    25    24    1
    15    24    22    1
    16    22    20    1
    17    10     9    1
    18    16     9    1
    19    16    17    1
    20    20    19    1
    21    20    21    1
    22    19    17    1
    23     9     8    2
    24    17    18    1
    25     8     7    2
    26    18     7    1
    27    18     1    2
    28     7     5    1
    29     1     2    2
    30     5     6    2
    31     5     4    2
    32     2     4    2
    33     2     3    2
