@<TRIPOS>MOLECULE
2fdy_D4G_A_1.pdb
 14 15 0 0 0
SMALL
GASTEIGER

@<TRIPOS>ATOM
      1  C3        53.1580   78.9970   59.5700 C.ar  501  D4G501      0.0276
      2  C2        52.7720   80.3120   59.2420 C.ar  501  D4G501      0.0994
      3  N_1       53.0480   80.8100   57.9950 N.ar  501  D4G501     -0.2423
      4  C1        53.6860   80.1270   57.0000 C.ar  501  D4G501      0.0994
      5  C5        54.1110   78.7820   57.2630 C.ar  501  D4G501      0.0276
      6  C4        53.8300   78.2460   58.5650 C.ar  501  D4G501      0.0388
      7  S_1       54.3310   76.6300   58.9380 S.3   501  D4G501     -0.0506
      8  S_2       54.8440   76.7410   60.9500 S.3   501  D4G501     -0.0506
      9  C6        56.3920   77.5580   61.1130 C.ar  501  D4G501      0.0388
     10  C7        56.5330   78.9640   60.8270 C.ar  501  D4G501      0.0276
     11  C8        57.8240   79.5430   60.9830 C.ar  501  D4G501      0.0994
     12  N_2       58.8600   78.7500   61.3970 N.ar  501  D4G501     -0.2423
     13  C9        58.7680   77.4120   61.6800 C.ar  501  D4G501      0.0994
     14  C10       57.5100   76.7700   61.5440 C.ar  501  D4G501      0.0276
@<TRIPOS>BOND
     1     4     5   ar
     2     4     3   ar
     3     5     6   ar
     4     3     2   ar
     5     6     7    1
     6     6     1   ar
     7     7     8    1
     8     2     1   ar
     9    10    11   ar
    10    10     9   ar
    11     8     9    1
    12    11    12   ar
    13     9    14   ar
    14    12    13   ar
    15    14    13   ar
