@<TRIPOS>MOLECULE
2fdy_HEM_A_1.pdb
 43 50 0 0 0
SMALL
GASTEIGER

@<TRIPOS>ATOM
      1 FE         52.4000   82.9710   57.5220 Fe    500  HEM500      0.0000
      2  CHA       52.2130   83.5010   60.8520 C.2   500  HEM500      0.0000
      3  CHB       49.3710   81.5420   57.5960 C.2   500  HEM500      0.0000
      4  CHC       52.5280   82.5990   54.2390 C.2   500  HEM500      0.0000
      5  CHD       55.5620   83.9560   57.5960 C.2   500  HEM500      0.0000
      6  NA        50.9480   82.6830   58.9480 N.2   500  HEM500      0.0000
      7  C1A       51.0190   83.0660   60.2610 C.2   500  HEM500      0.0000
      8  C2A       49.8440   82.7100   60.9260 C.2   500  HEM500      0.0000
      9  C3A       49.0470   82.0930   59.9860 C.2   500  HEM500      0.0000
     10  C4A       49.7730   82.1040   58.7900 C.2   500  HEM500      0.0000
     11  CMA       47.6070   81.4900   60.1880 C.3   500  HEM500      0.0000
     12  CAA       49.5500   82.9820   62.4080 C.3   500  HEM500      0.0000
     13  CBA       48.8970   84.3090   62.6370 C.3   500  HEM500      0.0000
     14  CGA       48.5510   84.6350   64.0690 C.2   500  HEM500      0.0000
     15  O1A       47.5140   85.2310   64.2980 O.co2 500  HEM500      0.0000
     16  O2A       49.2710   84.3150   64.9990 O.co2 500  HEM500      0.0000
     17  NB        51.1060   82.1970   56.1070 N.ar  500  HEM500      0.0000
     18  C1B       49.9340   81.6110   56.3260 C.ar  500  HEM500      0.0000
     19  C2B       49.3840   81.0980   55.1170 C.ar  500  HEM500      0.0000
     20  C3B       50.3370   81.4230   54.1270 C.ar  500  HEM500      0.0000
     21  C4B       51.3680   82.1010   54.8190 C.ar  500  HEM500      0.0000
     22  CMB       48.0550   80.3660   54.9900 C.3   500  HEM500      0.0000
     23  CAB       50.3280   81.1580   52.7180 C.3   500  HEM500      0.0000
     24  CBB       49.2140   80.9540   51.7690 C.3   500  HEM500      0.0000
     25  NC        53.8130   83.3150   56.1050 N.2   500  HEM500      0.0000
     26  C1C       53.6360   83.2070   54.7900 C.2   500  HEM500      0.0000
     27  C2C       54.7870   83.5090   54.0960 C.2   500  HEM500      0.0000
     28  C3C       55.7530   83.8270   55.0630 C.2   500  HEM500      0.0000
     29  C4C       55.0850   83.6900   56.3100 C.2   500  HEM500      0.0000
     30  CMC       54.9640   83.4950   52.5340 C.3   500  HEM500      0.0000
     31  CAC       57.0650   84.1990   54.9530 C.3   500  HEM500      0.0000
     32  CBC       57.6200   85.4280   54.5360 C.3   500  HEM500      0.0000
     33  ND        53.6660   83.7390   58.9620 N.ar  500  HEM500      0.0000
     34  C1D       54.8900   84.1010   58.7620 C.ar  500  HEM500      0.0000
     35  C2D       55.4530   84.5420   59.9640 C.ar  500  HEM500      0.0000
     36  C3D       54.5020   84.4310   60.9240 C.ar  500  HEM500      0.0000
     37  C4D       53.3840   83.9170   60.2480 C.ar  500  HEM500      0.0000
     38  CMD       56.8860   85.0620   60.1860 C.3   500  HEM500      0.0000
     39  CAD       54.6260   84.7910   62.4350 C.3   500  HEM500      0.0000
     40  CBD       54.2280   86.2790   62.7440 C.3   500  HEM500      0.0000
     41  CGD       54.3220   86.7400   64.2230 C.2   500  HEM500      0.0000
     42  O1D       54.3690   87.9210   64.5140 O.co2 500  HEM500      0.0000
     43  O2D       54.3570   85.8780   65.1210 O.co2 500  HEM500      0.0000
@<TRIPOS>BOND
     1    24    23    1
     2    30    27    1
     3    23    20    1
     4    27    26    1
     5    27    28    2
     6    20    21   ar
     7    20    19   ar
     8     4    26    2
     9     4    21    1
    10    32    31    1
    11    26    25    1
    12    21    17   ar
    13    31    28    1
    14    22    19    1
    15    28    29    1
    16    19    18   ar
    17    25    29    2
    18    25     1    1
    19    17    18   ar
    20    17     1    1
    21    29     5    1
    22    18     3    1
    23     1     6    1
    24     1    33    1
    25     3    10    2
    26     5    34    2
    27    34    33   ar
    28    34    35   ar
    29    10     6    1
    30    10     9    1
    31     6     7    2
    32    33    37   ar
    33    35    38    1
    34    35    36   ar
    35     9    11    1
    36     9     8    2
    37    37     2    2
    38    37    36   ar
    39     7     2    1
    40     7     8    1
    41    36    39    1
    42     8    12    1
    43    12    13    1
    44    39    40    1
    45    13    14    1
    46    40    41    1
    47    14    15   ar
    48    14    16   ar
    49    41    42   ar
    50    41    43   ar
