@<TRIPOS>MOLECULE
2fe4_GDP_A_1.pdb
 28 30 0 0 0
SMALL
GASTEIGER

@<TRIPOS>ATOM
      1  PB        13.8010   32.1490   29.1310 P.3   201  GDP201      0.5373
      2  O1B       12.8830   33.1970   29.5160 O.3   201  GDP201     -0.1143
      3  O2B       13.2440   31.2010   28.1670 O.2   201  GDP201     -0.2221
      4  O3B       15.0650   32.6560   28.5560 O.3   201  GDP201     -0.1143
      5  O3A       14.1300   31.3430   30.4630 O.3   201  GDP201     -0.2261
      6  PA        15.3730   31.4190   31.4730 P.3   201  GDP201      0.2231
      7  O1A       15.4470   32.7630   32.0040 O.3   201  GDP201     -0.4370
      8  O2A       16.5770   30.9760   30.7190 O.2   201  GDP201     -0.5169
      9  O5'       14.9170   30.3200   32.5050 O.3   201  GDP201     -0.3111
     10  C5'       13.7610   30.5360   33.3400 C.3   201  GDP201      0.1813
     11  C4'       13.9040   29.8540   34.7000 C.3   201  GDP201      0.1799
     12  O4'       14.0170   28.4100   34.4590 O.3   201  GDP201     -0.3326
     13  C3'       15.1730   30.2580   35.4590 C.3   201  GDP201      0.2158
     14  O3'       14.7640   30.4230   36.8220 O.3   201  GDP201     -0.2175
     15  C2'       16.1560   29.0980   35.1940 C.3   201  GDP201      0.2310
     16  O2'       17.1370   28.9440   36.2580 O.3   201  GDP201     -0.2158
     17  C1'       15.2540   27.8760   35.0030 C.3   201  GDP201      0.2293
     18  N9        15.8220   26.8720   34.0210 N.pl3 201  GDP201     -0.2354
     19  C8        16.3250   27.0440   32.7260 C.3   201  GDP201      0.2246
     20  N7        16.7460   25.9560   32.1320 N.2   201  GDP201     -0.2322
     21  C5        16.5150   24.9950   33.0810 C.2   201  GDP201      0.2182
     22  C6        16.7310   23.5710   33.0830 C.1   201  GDP201      0.2372
     23  O6        17.2170   22.8970   32.1930 O.2   201  GDP201     -0.2069
     24  N1        16.3480   22.9110   34.2780 N.2   201  GDP201     -0.2485
     25  C2        15.7620   23.5580   35.4180 C.1   201  GDP201      0.2531
     26  N2        15.4370   22.8380   36.4780 N.pl3 201  GDP201     -0.0226
     27  N3        15.5520   24.8970   35.4300 N.2   201  GDP201     -0.3074
     28  C4        15.9240   25.5540   34.2540 C.2   201  GDP201      0.2300
@<TRIPOS>BOND
     1     3     1    2
     2     4     1    1
     3     1     2    1
     4     1     5    1
     5     5     6    1
     6     8     6    2
     7     6     7    1
     8     6     9    1
     9    20    19    1
    10    20    21    2
    11    23    22    2
    12     9    10    1
    13    19    18    1
    14    21    22    1
    15    21    28    1
    16    22    24    2
    17    10    11    1
    18    18    28    1
    19    18    17    1
    20    28    27    2
    21    24    25    2
    22    12    11    1
    23    12    17    1
    24    11    13    1
    25    17    15    1
    26    15    13    1
    27    15    16    1
    28    25    27    2
    29    25    26    1
    30    13    14    1
