@<TRIPOS>MOLECULE
2fe6_MNR_A_1.pdb
 43 50 0 0 0
SMALL
GASTEIGER

@<TRIPOS>ATOM
      1  CHA       11.6310   13.3870   39.8780 C.2   422  MNR422      0.0000
      2  CHB       12.1500    9.8410   43.2500 C.2   422  MNR422      0.0000
      3  CHC       13.4240    6.7610   39.7740 C.2   422  MNR422      0.0000
      4  CHD       13.4340   10.3840   36.5320 C.2   422  MNR422      0.0000
      5  C1A       11.6350   12.6950   41.0990 C.2   422  MNR422      0.0000
      6  C2A       11.3370   13.3530   42.3850 C.2   422  MNR422      0.0000
      7  C3A       11.4490   12.3430   43.3170 C.2   422  MNR422      0.0000
      8  C4A       11.8310   11.1010   42.6390 C.2   422  MNR422      0.0000
      9  CMA       11.2110   12.4940   44.8090 C.3   422  MNR422      0.0000
     10  CAA       10.8250   14.8120   42.5860 C.3   422  MNR422      0.0000
     11  CBA       11.9490   15.7400   43.0220 C.3   422  MNR422      0.0000
     12  CGA       11.5110   17.1940   43.1970 C.2   422  MNR422      0.0000
     13  O1A       10.3160   17.4560   43.4090 O.co2 422  MNR422      0.0000
     14  O2A       12.3840   18.0750   43.1480 O.co2 422  MNR422      0.0000
     15  C1B       12.6830    8.7090   42.5910 C.ar  422  MNR422      0.0000
     16  C2B       13.1520    7.3870   43.1950 C.ar  422  MNR422      0.0000
     17  C3B       13.0530    6.4310   42.2250 C.ar  422  MNR422      0.0000
     18  C4B       13.0190    7.2480   40.9980 C.ar  422  MNR422      0.0000
     19  CMB       12.4180    7.2020   44.7680 C.3   422  MNR422      0.0000
     20  CAB       13.1990    5.0380   42.2800 C.2   422  MNR422      0.0000
     21  CBB       13.2510    4.2520   43.4090 C.2   422  MNR422      0.0000
     22  C1C       13.6420    7.4960   38.5920 C.2   422  MNR422      0.0000
     23  C2C       14.2120    6.9580   37.3640 C.2   422  MNR422      0.0000
     24  C3C       14.2040    7.9700   36.4570 C.2   422  MNR422      0.0000
     25  C4C       13.6640    9.1420   37.1410 C.2   422  MNR422      0.0000
     26  CMC       14.5730    5.4800   37.1120 C.3   422  MNR422      0.0000
     27  CAC       14.5830    7.9130   35.1130 C.2   422  MNR422      0.0000
     28  CBC       15.7430    7.3530   34.6280 C.2   422  MNR422      0.0000
     29  C1D       12.8170   11.4940   37.1130 C.ar  422  MNR422      0.0000
     30  C2D       12.5490   12.7570   36.4450 C.ar  422  MNR422      0.0000
     31  C3D       12.0790   13.6150   37.3990 C.ar  422  MNR422      0.0000
     32  C4D       12.0020   12.8570   38.6330 C.ar  422  MNR422      0.0000
     33  CMD       12.8200   13.0620   34.9760 C.3   422  MNR422      0.0000
     34  CAD       11.8120   15.1230   37.3170 C.3   422  MNR422      0.0000
     35  CBD       10.4410   15.5670   36.8490 C.3   422  MNR422      0.0000
     36  CGD       10.2490   17.0650   36.9540 C.2   422  MNR422      0.0000
     37  O1D        9.2400   17.5740   36.4250 O.co2 422  MNR422      0.0000
     38  O2D       11.1040   17.7310   37.5690 O.co2 422  MNR422      0.0000
     39 MN         12.3610   10.0030   39.8090 Mn    422  MNR422      0.0000
     40  NA        11.9800   11.3510   41.2640 N.2   422  MNR422      0.0000
     41  NB        12.7120    8.5870   41.2210 N.ar  422  MNR422      0.0000
     42  NC        13.3600    8.8360   38.4650 N.2   422  MNR422      0.0000
     43  ND        12.4000   11.5610   38.4370 N.ar  422  MNR422      0.0000
@<TRIPOS>BOND
     1    28    27    2
     2    33    30    1
     3    27    24    1
     4    37    36   ar
     5    30    29   ar
     6    30    31   ar
     7    24    25    1
     8    24    23    2
     9     4    29    2
    10     4    25    1
    11    35    36    1
    12    35    34    1
    13    36    38   ar
    14    26    23    1
    15    29    43   ar
    16    25    42    2
    17    34    31    1
    18    23    22    1
    19    31    32   ar
    20    43    32   ar
    21    43    39    1
    22    42    22    1
    23    42    39    1
    24    22     3    2
    25    32     1    2
    26     3    18    1
    27    39    41    1
    28    39    40    1
    29     1     5    1
    30    18    41   ar
    31    18    17   ar
    32     5    40    2
    33     5     6    1
    34    41    15   ar
    35    40     8    1
    36    17    20    1
    37    17    16   ar
    38    20    21    2
    39     6    10    1
    40     6     7    2
    41    10    11    1
    42    15    16   ar
    43    15     2    1
    44     8     2    2
    45     8     7    1
    46    11    12    1
    47    14    12   ar
    48    16    19    1
    49    12    13   ar
    50     7     9    1
