@<TRIPOS>MOLECULE
2feo_DC_A_1.pdb
 20 21 0 0 0
SMALL
GASTEIGER

@<TRIPOS>ATOM
      1  OP3       59.0880   54.2260   24.1890 O.3   407  DC407      -0.1145
      2  P         58.8130   54.8600   22.7560 P.3   407  DC407       0.5327
      3  OP1       60.0890   54.7170   21.9950 O.2   407  DC407      -0.2224
      4  OP2       58.2510   56.2180   23.0240 O.3   407  DC407      -0.1145
      5  O5'       57.6870   53.9670   22.0600 O.3   407  DC407      -0.2675
      6  C5'       56.3010   54.1650   22.3600 C.3   407  DC407       0.1858
      7  C4'       55.5270   52.8730   22.1550 C.3   407  DC407       0.1774
      8  O4'       54.7940   52.9250   20.8980 O.3   407  DC407      -0.3339
      9  C3'       56.3380   51.5850   22.0570 C.3   407  DC407       0.1857
     10  O3'       55.5680   50.4530   22.5010 O.3   407  DC407      -0.2203
     11  C2'       56.7070   51.5270   20.5690 C.3   407  DC407       0.0874
     12  C1'       55.5120   52.2200   19.9000 C.3   407  DC407       0.2090
     13  N1        55.8640   53.1750   18.8200 N.am  407  DC407      -0.1802
     14  C2        55.4740   52.8730   17.5010 C.1   407  DC407       0.2756
     15  O2        54.8780   51.7990   17.2790 O.2   407  DC407      -0.1925
     16  N3        55.7700   53.7520   16.5020 N.2   407  DC407      -0.3024
     17  C4        56.4440   54.8840   16.7810 C.2   407  DC407       0.2346
     18  N4        56.7370   55.7070   15.7650 N.pl3 407  DC407      -0.0921
     19  C5        56.8540   55.2160   18.1110 C.2   407  DC407       0.0687
     20  C6        56.5390   54.3430   19.0940 C.2   407  DC407       0.0835
@<TRIPOS>BOND
     1    18    17    1
     2    16    17    2
     3    16    14    2
     4    17    19    1
     5    15    14    2
     6    14    13   am
     7    19    20    2
     8    13    20    1
     9    13    12    1
    10    12    11    1
    11    12     8    1
    12    11     9    1
    13     8     7    1
    14     3     2    2
    15     9     7    1
    16     9    10    1
    17     5     6    1
    18     5     2    1
    19     7     6    1
    20     2     4    1
    21     2     1    1
