@<TRIPOS>MOLECULE
2feq_34P_H_1.pdb
 32 34 0 0 0
SMALL
GASTEIGER

@<TRIPOS>ATOM
      1  C16       17.2540   19.6980   22.6740 C.2     1  34P1        0.2483
      2  O17       16.2840   20.2970   23.1320 O.2     1  34P1       -0.2728
      3  C18       17.4920   18.2390   23.1500 C.3     1  34P1        0.1794
      4  C21       18.1350   18.3540   24.5570 C.3     1  34P1        0.0337
      5  C22       19.5010   19.0520   24.6390 C.3     1  34P1        0.0024
      6  C23       19.8430   19.3890   26.0990 C.3     1  34P1        0.0001
      7  C24       21.2160   20.1110   26.2210 C.3     1  34P1        0.0000
      8  C25       22.3670   19.3010   25.6020 C.3     1  34P1        0.0000
      9  C26       22.0430   18.8670   24.1620 C.3     1  34P1        0.0000
     10  C27       20.6470   18.1910   24.0460 C.3     1  34P1        0.0001
     11  N19       16.2380   17.4860   23.4440 N.2     1  34P1       -0.2552
     12  C20       15.3130   17.0190   22.3920 C.2     1  34P1        0.1801
     13  C30       14.0430   16.3290   22.8770 C.2     1  34P1        0.4064
     14  O32       13.8710   16.2160   24.0890 O.co2   1  34P1       -0.2388
     15  O31       13.2210   15.9330   22.0810 O.co2   1  34P1       -0.2388
     16  N15       18.1240   20.2710   21.7860 N.am    1  34P1       -0.2714
     17  C11       17.8280   21.5560   21.1030 C.3     1  34P1        0.1536
     18  C9        16.3920   21.7600   20.5820 C.2     1  34P1        0.2599
     19  O10       15.8020   20.8570   20.0270 O.2     1  34P1       -0.2715
     20  C12       18.7970   21.5540   19.9590 C.3     1  34P1        0.0310
     21  C13       19.6620   20.5400   20.0890 C.3     1  34P1        0.0237
     22  C14       19.3640   19.6960   21.2880 C.3     1  34P1        0.0939
     23  C1        12.3720   20.6940   22.7570 C.3     1  34P1        0.1316
     24  C2        12.0080   21.9290   23.1170 C.2     1  34P1        0.2172
     25  N3        12.7020   22.9720   22.3860 N.2     1  34P1       -0.3936
     26  C4        13.5180   22.4360   21.4540 C.2     1  34P1        0.1566
     27  S5        13.5020   20.6880   21.4600 S.3     1  34P1       -0.0771
     28  C6        11.0140   22.2250   24.1080 C.2     1  34P1        0.5023
     29  C7        14.4130   23.1710   20.4910 C.3     1  34P1        0.1802
     30  N8        15.8200   22.9400   20.8450 N.am    1  34P1       -0.1958
     31  N28       10.2710   21.2570   24.6040 N.pl3   1  34P1        0.2073
     32  N29       10.8540   23.4810   24.4800 N.pl3   1  34P1        0.2073
@<TRIPOS>BOND
     1    20    21    1
     2    20    17    1
     3    19    18    2
     4    21    22    1
     5    29    30    1
     6    29    26    1
     7    18    30   am
     8    18    17    1
     9    17    16    1
    10    22    16    1
    11    26    27    1
    12    26    25    2
    13    27    23    1
    14    16     1   am
    15    15    13   ar
    16    25    24    2
    17    12    13    1
    18    12    11    2
    19     1     2    2
    20     1     3    1
    21    23    24    1
    22    13    14   ar
    23    24    28    1
    24     3    11    1
    25     3     4    1
    26    10     9    1
    27    10     5    1
    28    28    32    2
    29    28    31    1
    30     9     8    1
    31     4     5    1
    32     5     6    1
    33     8     7    1
    34     6     7    1
