@<TRIPOS>MOLECULE
2fer_MNR_A_1.pdb
 43 50 0 0 0
SMALL
GASTEIGER

@<TRIPOS>ATOM
      1  CHA       11.9560   53.4130   59.1450 C.2   1001  MNR1001     0.0000
      2  CHB       12.3950   54.4750   63.8810 C.2   1001  MNR1001     0.0000
      3  CHC       13.7210   49.9240   64.8140 C.2   1001  MNR1001     0.0000
      4  CHD       13.7800   48.9390   60.0740 C.2   1001  MNR1001     0.0000
      5  C1A       11.9710   54.0890   60.3530 C.2   1001  MNR1001     0.0000
      6  C2A       11.6690   55.4840   60.5260 C.2   1001  MNR1001     0.0000
      7  C3A       11.7720   55.7660   61.8380 C.2   1001  MNR1001     0.0000
      8  C4A       12.1670   54.5680   62.5220 C.2   1001  MNR1001     0.0000
      9  CMA       11.5590   57.1240   62.5690 C.3   1001  MNR1001     0.0000
     10  CAA       11.2420   56.4030   59.3620 C.3   1001  MNR1001     0.0000
     11  CBA       12.4170   57.2230   58.8020 C.3   1001  MNR1001     0.0000
     12  CGA       12.0000   58.2390   57.7590 C.2   1001  MNR1001     0.0000
     13  O1A       10.7910   58.5130   57.5580 O.co2 1001  MNR1001     0.0000
     14  O2A       12.9130   58.7970   57.0840 O.co2 1001  MNR1001     0.0000
     15  C1B       12.7660   53.3510   64.5900 C.ar  1001  MNR1001     0.0000
     16  C2B       12.8530   53.1960   66.0280 C.ar  1001  MNR1001     0.0000
     17  C3B       13.2110   51.9110   66.2840 C.ar  1001  MNR1001     0.0000
     18  C4B       13.3590   51.2410   65.0200 C.ar  1001  MNR1001     0.0000
     19  CMB       12.5760   54.3270   67.0370 C.3   1001  MNR1001     0.0000
     20  CAB       13.4850   51.1820   67.6190 C.2   1001  MNR1001     0.0000
     21  CBB       13.1050   51.6240   68.8090 C.2   1001  MNR1001     0.0000
     22  C1C       13.9040   49.2640   63.6090 C.2   1001  MNR1001     0.0000
     23  C2C       14.4150   47.9130   63.4510 C.2   1001  MNR1001     0.0000
     24  C3C       14.4480   47.6480   62.1340 C.2   1001  MNR1001     0.0000
     25  C4C       13.9590   48.8200   61.4370 C.2   1001  MNR1001     0.0000
     26  CMC       14.8390   46.9670   64.6120 C.3   1001  MNR1001     0.0000
     27  CAC       14.8850   46.3720   61.3940 C.2   1001  MNR1001     0.0000
     28  CBC       15.9280   45.6120   61.7710 C.2   1001  MNR1001     0.0000
     29  C1D       13.2580   50.0330   59.4000 C.ar  1001  MNR1001     0.0000
     30  C2D       13.0720   50.1110   57.9620 C.ar  1001  MNR1001     0.0000
     31  C3D       12.5090   51.4960   57.6730 C.ar  1001  MNR1001     0.0000
     32  C4D       12.3940   52.1340   58.9550 C.ar  1001  MNR1001     0.0000
     33  CMD       13.3800   49.0160   56.9260 C.3   1001  MNR1001     0.0000
     34  CAD       12.1860   52.0790   56.2970 C.3   1001  MNR1001     0.0000
     35  CBD       10.7340   52.0250   55.8880 C.3   1001  MNR1001     0.0000
     36  CGD       10.6280   52.8930   54.6520 C.2   1001  MNR1001     0.0000
     37  O1D        9.6570   52.6950   53.8830 O.co2 1001  MNR1001     0.0000
     38  O2D       11.4520   53.8240   54.4350 O.co2 1001  MNR1001     0.0000
     39 MN         12.7130   51.5680   62.0090 Mn    1001  MNR1001     0.0000
     40  NA        12.3040   53.5470   61.5860 N.2   1001  MNR1001     0.0000
     41  NB        13.0830   52.1450   64.0250 N.ar  1001  MNR1001     0.0000
     42  NC        13.6330   49.7900   62.3550 N.2   1001  MNR1001     0.0000
     43  ND        12.8640   51.2410   59.9250 N.ar  1001  MNR1001     0.0000
@<TRIPOS>BOND
     1    37    36   ar
     2    38    36   ar
     3    36    35    1
     4    35    34    1
     5    34    31    1
     6    33    30    1
     7    14    12   ar
     8    13    12   ar
     9    31    30   ar
    10    31    32   ar
    11    12    11    1
    12    30    29   ar
    13    11    10    1
    14    32     1    2
    15    32    43   ar
    16     1     5    1
    17    10     6    1
    18    29    43   ar
    19    29     4    2
    20    43    39    1
    21     4    25    1
    22     5     6    1
    23     5    40    2
    24     6     7    2
    25    27    28    2
    26    27    24    1
    27    25    24    1
    28    25    42    2
    29    40    39    1
    30    40     8    1
    31     7     8    1
    32     7     9    1
    33    39    42    1
    34    39    41    1
    35    24    23    2
    36    42    22    1
    37     8     2    2
    38    23    22    1
    39    23    26    1
    40    22     3    2
    41     2    15    1
    42    41    15   ar
    43    41    18   ar
    44    15    16   ar
    45     3    18    1
    46    18    17   ar
    47    16    17   ar
    48    16    19    1
    49    17    20    1
    50    20    21    2
