@<TRIPOS>MOLECULE
2fes_3SP_H_1.pdb
 32 34 0 0 0
SMALL
GASTEIGER

@<TRIPOS>ATOM
      1  C18       17.5080   19.6480   22.6620 C.2     1  3SP1        0.2418
      2  O19       16.6170   20.3080   23.1680 O.2     1  3SP1       -0.2734
      3  C20       17.7870   18.2500   23.1910 C.3     1  3SP1        0.1495
      4  C24       18.3360   18.3100   24.6380 C.3     1  3SP1        0.0267
      5  C25       19.7330   18.9520   24.6680 C.3     1  3SP1        0.0019
      6  C26       20.0560   19.4310   26.0940 C.3     1  3SP1        0.0001
      7  C27       21.4420   20.1250   26.1110 C.3     1  3SP1        0.0000
      8  C28       22.5430   19.1530   25.6190 C.3     1  3SP1        0.0000
      9  C29       22.2030   18.6110   24.2080 C.3     1  3SP1        0.0000
     10  C30       20.8070   17.9330   24.2120 C.3     1  3SP1        0.0001
     11  N21       16.5380   17.4770   23.1680 N.3     1  3SP1       -0.1988
     12  C22       15.9690   17.0420   21.8790 C.3     1  3SP1        0.2033
     13  C23       14.5150   16.6700   22.0490 C.2     1  3SP1        0.3823
     14  O31       14.0980   16.3020   23.1370 O.co2   1  3SP1       -0.2440
     15  O32       13.7530   16.7330   21.0900 O.co2   1  3SP1       -0.2440
     16  N17       18.2390   20.1610   21.6210 N.am    1  3SP1       -0.2718
     17  C13       18.0490   21.5090   21.0050 C.3     1  3SP1        0.1535
     18  C11       16.6420   21.6020   20.4500 C.2     1  3SP1        0.2598
     19  O12       16.2130   20.6880   19.7550 O.2     1  3SP1       -0.2715
     20  C14       19.0900   21.6240   19.8540 C.3     1  3SP1        0.0310
     21  C15       20.1650   20.5760   20.2440 C.3     1  3SP1        0.0237
     22  C16       19.3350   19.4790   20.9150 C.3     1  3SP1        0.0939
     23  C1        11.9870   22.1830   23.0070 C.ar    1  3SP1        0.1267
     24  C2        12.3400   20.9380   22.4630 C.ar    1  3SP1        0.0148
     25  C3        13.2930   21.0600   21.4330 C.ar    1  3SP1        0.0047
     26  C4        13.6540   22.4010   21.2050 C.ar    1  3SP1        0.0293
     27  S5        12.8240   23.4510   22.2520 S.2     1  3SP1       -0.0817
     28  C6        11.0020   22.3810   24.0950 C.2     1  3SP1        0.4825
     29  N7        10.3540   21.3350   24.6170 N.pl3   1  3SP1        0.2053
     30  N8        10.7540   23.6110   24.5520 N.pl3   1  3SP1        0.2053
     31  C9        14.5280   22.8060   20.2700 C.3     1  3SP1        0.1479
     32  N10       15.8550   22.6880   20.7500 N.am    1  3SP1       -0.1986
@<TRIPOS>BOND
     1    19    18    2
     2    20    21    1
     3    20    17    1
     4    21    22    1
     5    31    32    1
     6    31    26    1
     7    18    32   am
     8    18    17    1
     9    22    16    1
    10    17    16    1
    11    15    13   ar
    12    26    25   ar
    13    26    27   ar
    14    25    24   ar
    15    16     1   am
    16    12    13    1
    17    12    11    1
    18    13    14   ar
    19    27    23   ar
    20    24    23   ar
    21     1     2    2
    22     1     3    1
    23    23    28    1
    24    11     3    1
    25     3     4    1
    26    28    30    2
    27    28    29    1
    28     9    10    1
    29     9     8    1
    30    10     5    1
    31     4     5    1
    32     5     6    1
    33     8     7    1
    34     6     7    1
