@<TRIPOS>MOLECULE
2fet_H53_A_1.pdb
 19 20 0 0 0
SMALL
GASTEIGER

@<TRIPOS>ATOM
      1  O5        33.1360   21.4850   28.2290 O.3   998  H53998     -0.3461
      2  C5        32.1750   20.8350   27.3620 C.3   998  H53998      0.1813
      3  C4        32.5640   21.0030   25.8570 C.3   998  H53998      0.2143
      4  C3        32.6840   22.5050   25.5070 C.3   998  H53998      0.2175
      5  C2        33.7690   23.1220   26.4410 C.3   998  H53998      0.2159
      6  C1        33.2870   22.9100   27.9270 C.3   998  H53998      0.1736
      7  C7        34.2750   23.4720   28.9700 C.ar  998  H53998      0.0492
      8  C12       33.7530   24.2100   30.0720 C.ar  998  H53998      0.1943
      9  O12       32.3690   24.4020   30.1570 O.3   998  H53998     -0.2868
     10  C11       34.6400   24.7340   31.0660 C.ar  998  H53998      0.0451
     11  C10       36.0410   24.5140   30.9470 C.ar  998  H53998      0.0453
     12  C9        36.5680   23.7770   29.8460 C.ar  998  H53998      0.1957
     13  O9        37.9460   23.5720   29.7510 O.3   998  H53998     -0.2866
     14  C8        35.6790   23.2590   28.8610 C.ar  998  H53998      0.0434
     15  O2        33.8950   24.5160   26.1160 O.3   998  H53998     -0.2173
     16  O3        33.0600   22.6460   24.1260 O.3   998  H53998     -0.2175
     17  O4        31.5580   20.3870   25.0310 O.3   998  H53998     -0.2176
     18  C6        32.0740   19.3330   27.7880 C.3   998  H53998      0.2141
     19  O6        33.2010   18.5970   27.2650 O.3   998  H53998     -0.2176
@<TRIPOS>BOND
     1    16     4    1
     2    17     3    1
     3     4     3    1
     4     4     5    1
     5     3     2    1
     6    15     5    1
     7     5     6    1
     8    19    18    1
     9     2    18    1
    10     2     1    1
    11     6     1    1
    12     6     7    1
    13    14     7   ar
    14    14    12   ar
    15     7     8   ar
    16    13    12    1
    17    12    11   ar
    18     8     9    1
    19     8    10   ar
    20    11    10   ar
