@<TRIPOS>MOLECULE
2fet_PLP_A_1.pdb
 15 15 0 0 0
SMALL
GASTEIGER

@<TRIPOS>ATOM
      1  N1        24.7430   25.4960   30.2340 N.ar  999  PLP999     -0.2452
      2  C2        23.6040   24.7930   30.4670 C.ar  999  PLP999      0.0978
      3  C2A       22.6800   25.2690   31.5710 C.3   999  PLP999      0.0555
      4  C3        23.3340   23.6630   29.7340 C.ar  999  PLP999      0.2049
      5  O3        22.1680   22.9230   29.9910 O.3   999  PLP999     -0.2857
      6  C4        24.2300   23.2490   28.7510 C.ar  999  PLP999      0.0182
      7  C4A       23.9080   21.9850   27.8770 C.3   999  PLP999      0.0342
      8  C5        25.4010   24.0020   28.5350 C.ar  999  PLP999      0.0261
      9  C6        25.6290   25.1080   29.2830 C.ar  999  PLP999      0.0965
     10  C5A       26.4130   23.6880   27.3930 C.3   999  PLP999      0.1815
     11  O4P       25.9740   24.4130   26.2600 O.3   999  PLP999     -0.2653
     12  P         26.9520   24.6720   25.0000 P.3   999  PLP999      0.5329
     13  O1P       26.1760   25.4580   24.0440 O.2   999  PLP999     -0.2224
     14  O2P       28.0310   25.6000   25.5980 O.3   999  PLP999     -0.1145
     15  O3P       27.5840   23.4090   24.5710 O.3   999  PLP999     -0.1145
@<TRIPOS>BOND
     1    13    12    2
     2    15    12    1
     3    12    14    1
     4    12    11    1
     5    11    10    1
     6    10     8    1
     7     7     6    1
     8     8     6   ar
     9     8     9   ar
    10     6     4   ar
    11     9     1   ar
    12     4     5    1
    13     4     2   ar
    14     1     2   ar
    15     2     3    1
