@<TRIPOS>MOLECULE
2feu_MNR_A_1.pdb
 43 50 0 0 0
SMALL
GASTEIGER

@<TRIPOS>ATOM
      1  CHA       24.5100    2.3380   47.1750 C.2   730  MNR730      0.0000
      2  CHB       20.4180    2.1330   44.5710 C.2   730  MNR730      0.0000
      3  CHC       23.0480    1.0670   40.6440 C.2   730  MNR730      0.0000
      4  CHD       26.9400    0.4910   43.4400 C.2   730  MNR730      0.0000
      5  C1A       23.1780    2.4370   46.7970 C.2   730  MNR730      0.0000
      6  C2A       22.0960    2.7040   47.7300 C.2   730  MNR730      0.0000
      7  C3A       20.9400    2.6290   47.0030 C.2   730  MNR730      0.0000
      8  C4A       21.3200    2.3010   45.6330 C.2   730  MNR730      0.0000
      9  CMA       19.5050    2.8170   47.4750 C.3   730  MNR730      0.0000
     10  CAA       22.2780    2.9600   49.2300 C.3   730  MNR730      0.0000
     11  CBA       21.8490    1.7900   50.1030 C.3   730  MNR730      0.0000
     12  CGA       21.9840    2.0980   51.5850 C.2   730  MNR730      0.0000
     13  O1A       21.9620    3.2930   51.9430 O.co2 730  MNR730      0.0000
     14  O2A       22.0980    1.1480   52.3930 O.co2 730  MNR730      0.0000
     15  C1B       20.7780    1.8470   43.2460 C.ar  730  MNR730      0.0000
     16  C2B       19.8510    1.8120   42.1240 C.ar  730  MNR730      0.0000
     17  C3B       20.5910    1.5180   40.9940 C.ar  730  MNR730      0.0000
     18  C4B       21.9760    1.4060   41.4540 C.ar  730  MNR730      0.0000
     19  CMB       18.3530    2.1340   42.1820 C.3   730  MNR730      0.0000
     20  CAB       20.1840    1.3690   39.6610 C.3   730  MNR730      0.0000
     21  CBB       18.9970    1.7900   39.1010 C.3   730  MNR730      0.0000
     22  C1C       24.3350    0.8210   41.0570 C.2   730  MNR730      0.0000
     23  C2C       25.3720    0.2880   40.1940 C.2   730  MNR730      0.0000
     24  C3C       26.4760    0.0680   40.9850 C.2   730  MNR730      0.0000
     25  C4C       26.0900    0.4750   42.3400 C.2   730  MNR730      0.0000
     26  CMC       25.2720    0.1310   38.6810 C.3   730  MNR730      0.0000
     27  CAC       27.7590   -0.2860   40.5840 C.2   730  MNR730      0.0000
     28  CBC       28.1430   -1.3770   39.8410 C.2   730  MNR730      0.0000
     29  C1D       26.6430    1.0460   44.6840 C.ar  730  MNR730      0.0000
     30  C2D       27.5840    1.1390   45.8060 C.ar  730  MNR730      0.0000
     31  C3D       26.8950    1.6520   46.8460 C.ar  730  MNR730      0.0000
     32  C4D       25.5590    1.9460   46.3630 C.ar  730  MNR730      0.0000
     33  CMD       29.0710    0.8330   45.7630 C.3   730  MNR730      0.0000
     34  CAD       27.3580    1.8040   48.2860 C.3   730  MNR730      0.0000
     35  CBD       27.7710    3.2210   48.6380 C.3   730  MNR730      0.0000
     36  CGD       27.9940    3.3950   50.1250 C.2   730  MNR730      0.0000
     37  O1D       28.5800    4.4180   50.5290 O.co2 730  MNR730      0.0000
     38  O2D       27.5720    2.5080   50.8900 O.co2 730  MNR730      0.0000
     39 MN         23.7850    1.8810   43.8720 Mn    730  MNR730      0.0000
     40  NA        22.6930    2.2030   45.5250 N.2   730  MNR730      0.0000
     41  NB        22.0840    1.6410   42.8180 N.ar  730  MNR730      0.0000
     42  NC        24.7890    0.9800   42.3520 N.2   730  MNR730      0.0000
     43  ND        25.4220    1.6110   45.0230 N.ar  730  MNR730      0.0000
@<TRIPOS>BOND
     1    26    23    1
     2    21    20    1
     3    20    17    1
     4    28    27    2
     5    23    24    2
     6    23    22    1
     7    27    24    1
     8     3    22    2
     9     3    18    1
    10    24    25    1
    11    17    18   ar
    12    17    16   ar
    13    22    42    1
    14    18    41   ar
    15    16    19    1
    16    16    15   ar
    17    25    42    2
    18    25     4    1
    19    42    39    1
    20    41    15   ar
    21    41    39    1
    22    15     2    1
    23     4    29    2
    24    39    43    1
    25    39    40    1
    26     2     8    2
    27    29    43   ar
    28    29    30   ar
    29    43    32   ar
    30    40     8    1
    31    40     5    2
    32     8     7    1
    33    33    30    1
    34    30    31   ar
    35    32    31   ar
    36    32     1    2
    37     5     1    1
    38     5     6    1
    39    31    34    1
    40     7     9    1
    41     7     6    2
    42     6    10    1
    43    34    35    1
    44    35    36    1
    45    10    11    1
    46    11    12    1
    47    36    37   ar
    48    36    38   ar
    49    12    13   ar
    50    12    14   ar
