@<TRIPOS>MOLECULE
2feu_CAM_A_1.pdb
 11 12 0 0 0
SMALL
GASTEIGER

@<TRIPOS>ATOM
      1  C1        22.5670   -3.3110   47.3020 C.3   1420  CAM1420     0.0515
      2  C2        23.4760   -3.2220   48.5710 C.2   1420  CAM1420     0.1498
      3  O         23.8340   -4.1160   49.2900 O.2   1420  CAM1420    -0.2961
      4  C3        23.7980   -1.7210   48.6830 C.3   1420  CAM1420     0.0645
      5  C4        23.0270   -1.1170   47.4400 C.3   1420  CAM1420     0.0077
      6  C5        23.9010   -1.5360   46.1810 C.3   1420  CAM1420     0.0009
      7  C6        23.5880   -3.0840   46.0710 C.3   1420  CAM1420     0.0069
      8  C7        21.7420   -1.9810   47.2730 C.3   1420  CAM1420     0.0066
      9  C8        20.7040   -1.8300   48.4160 C.3   1420  CAM1420     0.0004
     10  C9        21.0020   -1.7210   45.9310 C.3   1420  CAM1420     0.0004
     11  C10       21.7420   -4.6070   47.1730 C.3   1420  CAM1420     0.0073
@<TRIPOS>BOND
     1    10     8    1
     2     7     6    1
     3     7     1    1
     4     6     5    1
     5    11     1    1
     6     8     1    1
     7     8     5    1
     8     8     9    1
     9     1     2    1
    10     5     4    1
    11     2     4    1
    12     2     3    2
