@<TRIPOS>MOLECULE
2ff1_IMH_A_1.pdb
 19 21 0 0 0
SMALL
GASTEIGER

@<TRIPOS>ATOM
      1  O5'       16.4130   22.7730    9.4680 O.3   401  IMH401     -0.2188
      2  C5'       17.0670   24.0400    9.2490 C.3   401  IMH401      0.2020
      3  C4'       16.2080   25.3490    9.4340 C.3   401  IMH401      0.1389
      4  N4'       15.5360   25.2060   10.7470 N.3   401  IMH401     -0.2083
      5  C3'       16.9480   26.7030    9.5530 C.3   401  IMH401      0.2023
      6  O3'       16.2130   27.8130    8.9400 O.3   401  IMH401     -0.2188
      7  C2'       17.1650   26.9480   11.1090 C.3   401  IMH401      0.2036
      8  O2'       16.9290   28.3220   11.5300 O.3   401  IMH401     -0.2185
      9  C1'       16.2040   25.9590   11.8160 C.3   401  IMH401      0.1309
     10  C9        16.9020   24.8770   12.8570 C.2   401  IMH401      0.0348
     11  C8        16.9640   23.5350   12.6720 C.2   401  IMH401      0.0984
     12  N7        17.6350   22.9010   13.7740 N.2   401  IMH401     -0.2310
     13  C5        17.9610   23.9660   14.6230 C.2   401  IMH401      0.1804
     14  C6        18.6730   23.8680   15.9290 C.1   401  IMH401      0.1716
     15  O6        19.0980   22.8450   16.4920 O.2   401  IMH401     -0.2206
     16  N1        18.8180   25.1730   16.4980 N.2   401  IMH401     -0.1739
     17  C2        18.3580   26.4040   15.9190 C.3   401  IMH401      0.2626
     18  N3        17.7230   26.3910   14.7320 N.2   401  IMH401     -0.2415
     19  C4        17.5450   25.1690   14.1190 C.2   401  IMH401      0.1059
@<TRIPOS>BOND
     1     6     5    1
     2     2     3    1
     3     2     1    1
     4     3     5    1
     5     3     4    1
     6     5     7    1
     7     4     9    1
     8     7     8    1
     9     7     9    1
    10     9    10    1
    11    11    10    2
    12    11    12    1
    13    10    19    1
    14    12    13    2
    15    19    13    1
    16    19    18    2
    17    13    14    1
    18    18    17    1
    19    17    16    1
    20    14    15    2
    21    14    16    2
