@<TRIPOS>MOLECULE
2ff2_IMH_A_1.pdb
 19 21 0 0 0
SMALL
GASTEIGER

@<TRIPOS>ATOM
      1  O5'      -25.0190   12.9380  -18.9240 O.3   501  IMH501     -0.2188
      2  C5'      -24.4450   11.6690  -19.2490 C.3   501  IMH501      0.2020
      3  C4'      -25.0790   10.3750  -18.6170 C.3   501  IMH501      0.1389
      4  N4'      -26.5540   10.4700  -18.8030 N.3   501  IMH501     -0.2083
      5  C3'      -24.7200    9.0300  -19.2680 C.3   501  IMH501      0.2023
      6  O3'      -24.6900    7.9410  -18.3080 O.3   501  IMH501     -0.2188
      7  C2'      -25.8140    8.7690  -20.3650 C.3   501  IMH501      0.2036
      8  O2'      -26.1950    7.3870  -20.5030 O.3   501  IMH501     -0.2185
      9  C1'      -27.0180    9.7120  -19.9860 C.3   501  IMH501      0.1309
     10  C9       -27.4440   10.7740  -21.1670 C.2   501  IMH501      0.0348
     11  C8       -27.1760   12.0990  -21.1720 C.2   501  IMH501      0.0984
     12  N7       -27.6750   12.7070  -22.3560 N.2   501  IMH501     -0.2310
     13  C5       -28.2550   11.6480  -23.0450 C.2   501  IMH501      0.1804
     14  C6       -28.9100   11.7400  -24.3510 C.1   501  IMH501      0.1716
     15  O6       -29.0420   12.7410  -25.0220 O.2   501  IMH501     -0.2206
     16  N1       -29.3960   10.4590  -24.7550 N.2   501  IMH501     -0.1739
     17  C2       -29.2710    9.2400  -24.0110 C.3   501  IMH501      0.2626
     18  N3       -28.6430    9.2580  -22.8240 N.2   501  IMH501     -0.2415
     19  C4       -28.1550   10.4730  -22.3800 C.2   501  IMH501      0.1059
@<TRIPOS>BOND
     1    15    14    2
     2    16    14    2
     3    16    17    1
     4    14    13    1
     5    17    18    1
     6    13    19    1
     7    13    12    2
     8    18    19    2
     9    19    10    1
    10    12    11    1
    11    11    10    2
    12    10     9    1
    13     8     7    1
    14     7     9    1
    15     7     5    1
    16     9     4    1
    17     5     3    1
    18     5     6    1
    19     2     1    1
    20     2     3    1
    21     4     3    1
