@<TRIPOS>MOLECULE
2ff3_ATP_B_1.pdb
 31 33 0 0 0
SMALL
GASTEIGER

@<TRIPOS>ATOM
      1  PG         5.8740    1.8550   18.7810 P.3   900  ATP900      0.5373
      2  O1G        6.6960    0.6210   18.5290 O.3   900  ATP900     -0.1143
      3  O2G        4.7880    2.0740   17.7760 O.2   900  ATP900     -0.2221
      4  O3G        5.4690    2.0660   20.2200 O.3   900  ATP900     -0.1143
      5  PB         7.8010    3.9670   19.3960 P.3   900  ATP900      0.2277
      6  O1B        9.0690    4.2440   18.6210 O.2   900  ATP900     -0.5168
      7  O2B        7.9250    3.3440   20.7610 O.3   900  ATP900     -0.4368
      8  O3B        6.8730    3.0890   18.4130 O.3   900  ATP900     -0.2258
      9  PA         7.0640    6.5050   20.5920 P.3   900  ATP900      0.2189
     10  O1A        6.0700    6.2830   21.7170 O.3   900  ATP900     -0.4371
     11  O2A        8.5230    6.6850   20.9510 O.2   900  ATP900     -0.5170
     12  O3A        6.9460    5.3340   19.4910 O.3   900  ATP900     -0.2700
     13  O5'        6.5370    7.7840   19.7460 O.3   900  ATP900     -0.3112
     14  C5'        7.0730    8.1550   18.4650 C.3   900  ATP900      0.1813
     15  C4'        5.9810    8.7610   17.5730 C.3   900  ATP900      0.1821
     16  O4'        5.2660    9.7780   18.2820 O.3   900  ATP900     -0.3135
     17  C3'        6.5110    9.4250   16.3040 C.3   900  ATP900      0.2184
     18  O3'        5.6540    9.0680   15.2110 O.3   900  ATP900     -0.2174
     19  C2'        6.4010   10.9150   16.5710 C.3   900  ATP900      0.2570
     20  O2'        6.1890   11.6990   15.3820 O.3   900  ATP900     -0.2130
     21  C1'        5.2020   10.9770   17.5010 C.3   900  ATP900      0.3186
     22  N9         5.1990   12.1940   18.3530 N.pl3 900  ATP900     -0.1439
     23  C8         6.1740   12.5940   19.1940 C.3   900  ATP900      0.3377
     24  N7         5.8350   13.7450   19.8260 N.2   900  ATP900     -0.2095
     25  C5         4.6070   14.0940   19.3840 C.2   900  ATP900      0.2526
     26  C6         3.6530   15.2050   19.6250 C.2   900  ATP900      0.4393
     27  N6         3.9400   16.2030   20.4970 N.pl3 900  ATP900      0.2180
     28  N1         2.4720   15.1880   18.9620 N.2   900  ATP900      0.0021
     29  C2         2.1610   14.2110   18.0830 C.3   900  ATP900      0.5254
     30  N3         2.9810   13.1790   17.8090 N.2   900  ATP900     -0.0055
     31  C4         4.1940   13.0680   18.4180 C.2   900  ATP900      0.3518
@<TRIPOS>BOND
     1    18    17    1
     2    20    19    1
     3    17    19    1
     4    17    15    1
     5    19    21    1
     6    21    16    1
     7    21    22    1
     8    15    16    1
     9    15    14    1
    10     3     1    2
    11    30    29    1
    12    30    31    2
    13    29    28    1
    14    22    31    1
    15    22    23    1
    16     8     1    1
    17     8     5    1
    18    31    25    1
    19    14    13    1
    20     2     1    1
    21     6     5    2
    22     1     4    1
    23    28    26    2
    24    23    24    1
    25    25    26    1
    26    25    24    2
    27     5    12    1
    28     5     7    1
    29    12     9    1
    30    26    27    1
    31    13     9    1
    32     9    11    2
    33     9    10    1
