@<TRIPOS>MOLECULE
2ff3_III_C_1.pdb
 17 16 0 0 0
SMALL
GASTEIGER

@<TRIPOS>ATOM
      1  N         18.8290   16.7370   33.9140 N.3   153  ALA153     -0.1231
      2  CA        18.6600   18.1390   33.5290 C.3   153  ALA153      0.1694
      3  C         19.2240   18.4340   32.1440 C.2   153  ALA153      0.2592
      4  O         20.0250   17.6570   31.6090 O.2   153  ALA153     -0.2718
      5  CB        19.3020   19.0540   34.5700 C.3   153  ALA153      0.0304
      6  N         18.7890   19.5570   31.5710 N.am  154  ASP154     -0.1960
      7  CA        19.3690   20.0940   30.3400 C.3   154  ASP154      0.1840
      8  C         20.8850   20.2100   30.4780 C.2   154  ASP154      0.2622
      9  O         21.3870   20.9680   31.3150 O.2   154  ASP154     -0.2715
     10  CB        18.7710   21.4700   30.0160 C.3   154  ASP154      0.1450
     11  CG        17.5030   21.3870   29.1690 C.2   154  ASP154      0.3671
     12  OD1       16.9790   20.2700   28.9390 O.co2 154  ASP154     -0.2456
     13  OD2       16.9590   22.4080   28.6860 O.co2 154  ASP154     -0.2456
     14  N         21.6010   19.4340   29.6670 N.am  155  GLY155     -0.1954
     15  CA        23.0600   19.4040   29.7030 C.3   155  GLY155      0.1869
     16  C         23.5940   17.9890   29.8180 C.2   155  GLY155      0.2309
     17  O         24.7520   17.7250   29.4850 O.2   155  GLY155     -0.2863
@<TRIPOS>BOND
     1    13    11   ar
     2    12    11   ar
     3    11    10    1
     4    17    16    2
     5    14    15    1
     6    14     8   am
     7    15    16    1
     8    10     7    1
     9     7     8    1
    10     7     6    1
    11     8     9    2
    12     6     3   am
    13     4     3    2
    14     3     2    1
    15     2     1    1
    16     2     5    1
