@<TRIPOS>MOLECULE
2ff4_III_F_1.pdb
 43 42 0 0 0
SMALL
GASTEIGER

@<TRIPOS>ATOM
      1  N        -42.4580    6.8910  -29.2840 N.3     3  GLU3       -0.1231
      2  CA       -43.6070    6.0450  -28.8350 C.3     3  GLU3        0.1693
      3  C        -43.1580    4.8790  -27.9500 C.2     3  GLU3        0.2593
      4  O        -41.9800    4.4990  -27.9440 O.2     3  GLU3       -0.2718
      5  CB       -44.4330    5.5480  -30.0330 C.3     3  GLU3        0.0284
      6  CG       -43.6210    4.9690  -31.1880 C.3     3  GLU3        0.0021
      7  N        -44.1050    4.3190  -27.2000 N.am    4  VAL4       -0.1942
      8  CA       -43.8010    3.2550  -26.2520 C.3     4  VAL4        0.2014
      9  C        -43.7400    1.8650  -26.8670 C.2     4  VAL4        0.2640
     10  O        -44.5720    1.5120  -27.7060 O.2     4  VAL4       -0.2714
     11  N        -42.7520    1.0840  -26.4250 N.am    5  THR5       -0.1937
     12  CA       -42.5320   -0.2860  -26.9020 C.3     5  THR5        0.2002
     13  CB       -41.3010   -0.8970  -26.2140 C.3     5  THR5        0.1551
     14  CG2      -40.8890   -2.2390  -26.8170 C.3     5  THR5        0.0350
     15  OG1      -40.1650   -0.0280  -26.2420 O.3     5  THR5       -0.2705
     16  P        -39.3470    0.3010  -24.8860 P.3     5  THR5        0.5326
     17  O1P      -38.9530   -1.0330  -24.2870 O.3     5  THR5       -0.1145
     18  O2P      -40.3360    1.0760  -24.0650 O.3     5  THR5       -0.1145
     19  O3P      -38.1880    1.1530  -25.3320 O.2     5  THR5       -0.2224
     20  C        -43.7290   -1.1860  -26.6930 C.2     5  THR5        0.2641
     21  O        -44.3430   -1.1810  -25.6260 O.2     5  THR5       -0.2714
     22  N        -44.0760   -1.9550  -27.7240 N.am    6  GLU6       -0.1963
     23  CA       -45.1150   -2.9770  -27.6140 C.3     6  GLU6        0.1733
     24  C        -44.5030   -4.2900  -27.1320 C.2     6  GLU6        0.2616
     25  O        -43.3640   -4.6130  -27.4710 O.2     6  GLU6       -0.2715
     26  CB       -45.8140   -3.1830  -28.9600 C.3     6  GLU6        0.0429
     27  CG       -46.8670   -2.1280  -29.2930 C.3     6  GLU6        0.1163
     28  CD       -47.4690   -2.3040  -30.6820 C.2     6  GLU6        0.3649
     29  OE1      -47.4900   -3.4440  -31.1990 O.co2   6  GLU6       -0.2457
     30  OE2      -47.9200   -1.2940  -31.2610 O.co2   6  GLU6       -0.2457
     31  N        -45.2550   -5.0450  -26.3360 N.am    7  ALA7       -0.1963
     32  CA       -44.7510   -6.3060  -25.8040 C.3     7  ALA7        0.1728
     33  C        -45.1000   -7.4920  -26.6930 C.2     7  ALA7        0.2616
     34  O        -46.2270   -7.5980  -27.1960 O.2     7  ALA7       -0.2715
     35  CB       -45.2720   -6.5390  -24.4080 C.3     7  ALA7        0.0334
     36  N        -44.1160   -8.3750  -26.8800 N.am    8  ASP8       -0.1971
     37  CA       -44.3620   -9.6770  -27.4880 C.3     8  ASP8        0.1709
     38  C        -44.9590  -10.6050  -26.4310 C.2     8  ASP8        0.2293
     39  O        -46.1290  -11.0350  -26.5780 O.2     8  ASP8       -0.2864
     40  CB       -43.0590  -10.2820  -28.0270 C.3     8  ASP8        0.1436
     41  CG       -42.4970   -9.5180  -29.2190 C.2     8  ASP8        0.3671
     42  OD1      -43.2650   -8.7960  -29.9030 O.co2   8  ASP8       -0.2456
     43  OD2      -41.2780   -9.6510  -29.4790 O.co2   8  ASP8       -0.2456
@<TRIPOS>BOND
     1    30    28   ar
     2    29    28   ar
     3     6     5    1
     4    28    27    1
     5     5     2    1
     6    42    41   ar
     7    43    41   ar
     8    27    26    1
     9     1     2    1
    10    41    40    1
    11    26    23    1
    12     2     3    1
    13    40    37    1
    14     3     4    2
    15     3     7   am
    16    22    23    1
    17    22    20   am
    18    10     9    2
    19    23    24    1
    20    37    36    1
    21    37    38    1
    22    25    24    2
    23     7     8    1
    24    34    33    2
    25    24    31   am
    26    12    20    1
    27    12    11    1
    28    12    13    1
    29    36    33   am
    30     9    11   am
    31     9     8    1
    32    14    13    1
    33    20    21    2
    34    33    32    1
    35    39    38    2
    36    31    32    1
    37    15    13    1
    38    15    16    1
    39    32    35    1
    40    19    16    2
    41    16    17    1
    42    16    18    1
