@<TRIPOS>MOLECULE
2ff5_H53_A_1.pdb
 19 20 0 0 0
SMALL
GASTEIGER

@<TRIPOS>ATOM
      1  O5        32.9990   21.4030   28.1580 O.3   998  H53998     -0.3461
      2  C5        32.0190   20.7610   27.2940 C.3   998  H53998      0.1813
      3  C4        32.3880   20.9250   25.7880 C.3   998  H53998      0.2143
      4  C3        32.5250   22.4300   25.4380 C.3   998  H53998      0.2175
      5  C2        33.6380   23.0340   26.3650 C.3   998  H53998      0.2159
      6  C1        33.1630   22.8270   27.8520 C.3   998  H53998      0.1736
      7  C7        34.1500   23.3900   28.8610 C.2   998  H53998      0.0492
      8  C12       33.6180   24.1650   30.0320 C.2   998  H53998      0.1943
      9  O12       32.4020   24.3340   30.1550 O.2   998  H53998     -0.2868
     10  C11       34.5550   24.7410   31.0600 C.2   998  H53998      0.0451
     11  C10       35.8990   24.5540   30.9310 C.2   998  H53998      0.0453
     12  C9        36.4320   23.7830   29.7710 C.2   998  H53998      0.1957
     13  O9        37.6310   23.6140   29.6510 O.2   998  H53998     -0.2866
     14  C8        35.5010   23.2140   28.7520 C.2   998  H53998      0.0434
     15  O2        33.7930   24.4360   26.0510 O.3   998  H53998     -0.2173
     16  O3        32.8910   22.5720   24.0500 O.3   998  H53998     -0.2175
     17  O4        31.3610   20.3130   24.9800 O.3   998  H53998     -0.2176
     18  C6        31.9120   19.2720   27.7050 C.3   998  H53998      0.2141
     19  O6        33.1030   18.5800   27.2800 O.3   998  H53998     -0.2176
@<TRIPOS>BOND
     1    16     4    1
     2    17     3    1
     3     4     3    1
     4     4     5    1
     5     3     2    1
     6    15     5    1
     7     5     6    1
     8    19    18    1
     9     2    18    1
    10     2     1    1
    11     6     1    1
    12     6     7    1
    13    14     7    2
    14    14    12    1
    15     7     8    1
    16    13    12    2
    17    12    11    1
    18     8     9    2
    19     8    10    1
    20    11    10    2
