@<TRIPOS>MOLECULE
2ff5_PLP_A_1.pdb
 15 15 0 0 0
SMALL
GASTEIGER

@<TRIPOS>ATOM
      1  N1        24.5710   25.4750   30.1450 N.ar  999  PLP999     -0.2452
      2  C2        23.4570   24.7220   30.3940 C.ar  999  PLP999      0.0978
      3  C2A       22.5390   25.1600   31.5110 C.3   999  PLP999      0.0555
      4  C3        23.2160   23.5630   29.6810 C.ar  999  PLP999      0.2049
      5  O3        22.0140   22.8490   29.8950 O.3   999  PLP999     -0.2857
      6  C4        24.1410   23.1560   28.7140 C.ar  999  PLP999      0.0182
      7  C4A       23.8760   21.8670   27.8550 C.3   999  PLP999      0.0342
      8  C5        25.2870   23.9320   28.5070 C.ar  999  PLP999      0.0261
      9  C6        25.4720   25.0750   29.2190 C.ar  999  PLP999      0.0965
     10  C5A       26.2860   23.6580   27.3690 C.3   999  PLP999      0.1815
     11  O4P       25.8470   24.3880   26.2280 O.3   999  PLP999     -0.2653
     12  P         26.8220   24.5790   24.9360 P.3   999  PLP999      0.5329
     13  O1P       26.0400   25.3880   23.9960 O.2   999  PLP999     -0.2224
     14  O2P       27.9050   25.5050   25.5140 O.3   999  PLP999     -0.1145
     15  O3P       27.4670   23.3130   24.5130 O.3   999  PLP999     -0.1145
@<TRIPOS>BOND
     1    13    12    2
     2    15    12    1
     3    12    14    1
     4    12    11    1
     5    11    10    1
     6    10     8    1
     7     7     6    1
     8     8     6   ar
     9     8     9   ar
    10     6     4   ar
    11     9     1   ar
    12     4     5    1
    13     4     2   ar
    14     1     2   ar
    15     2     3    1
