@<TRIPOS>MOLECULE
2ff6_ATP_A_1.pdb
 31 33 0 0 0
SMALL
GASTEIGER

@<TRIPOS>ATOM
      1  PG         2.6510   -1.7620   13.6940 P.3   900  ATP900      0.5373
      2  O1G        3.5030   -2.9870   13.4360 O.3   900  ATP900     -0.1143
      3  O2G        1.5250   -1.5840   12.7190 O.2   900  ATP900     -0.2221
      4  O3G        2.2700   -1.5620   15.1380 O.3   900  ATP900     -0.1143
      5  PB         4.5850    0.3500   14.2530 P.3   900  ATP900      0.2277
      6  O1B        5.8410    0.6680   13.4700 O.2   900  ATP900     -0.5168
      7  O2B        4.7420   -0.2520   15.6250 O.3   900  ATP900     -0.4368
      8  O3B        3.6290   -0.5230   13.2950 O.3   900  ATP900     -0.2258
      9  PA         3.8110    2.8710   15.4800 P.3   900  ATP900      0.2189
     10  O1A        2.7960    2.6060   16.5740 O.3   900  ATP900     -0.4371
     11  O2A        5.2400    3.0980   15.8880 O.2   900  ATP900     -0.5170
     12  O3A        3.7090    1.7020   14.3700 O.3   900  ATP900     -0.2700
     13  O5'        3.2970    4.1510   14.6520 O.3   900  ATP900     -0.3112
     14  C5'        3.8640    4.5410   13.3960 C.3   900  ATP900      0.1813
     15  C4'        2.7470    4.9910   12.4630 C.3   900  ATP900      0.1821
     16  O4'        2.0070    6.0330   13.1040 O.3   900  ATP900     -0.3135
     17  C3'        3.2630    5.5750   11.1490 C.3   900  ATP900      0.2184
     18  O3'        2.3820    5.1900   10.0930 O.3   900  ATP900     -0.2174
     19  C2'        3.1460    7.0710   11.3200 C.3   900  ATP900      0.2570
     20  O2'        2.9090    7.7390   10.0770 O.3   900  ATP900     -0.2130
     21  C1'        1.9430    7.1720   12.2420 C.3   900  ATP900      0.3186
     22  N9         1.9360    8.4360   13.0050 N.pl3 900  ATP900     -0.1439
     23  C8         2.8850    8.9080   13.8300 C.3   900  ATP900      0.3377
     24  N7         2.5120   10.1020   14.3530 N.2   900  ATP900     -0.2095
     25  C5         1.3010   10.4050   13.8500 C.2   900  ATP900      0.2526
     26  C6         0.3280   11.5140   13.9700 C.2   900  ATP900      0.4393
     27  N6         0.5690   12.5860   14.7600 N.pl3 900  ATP900      0.2180
     28  N1        -0.8210   11.4160   13.2730 N.2   900  ATP900      0.0021
     29  C2        -1.0960   10.3710   12.4740 C.3   900  ATP900      0.5254
     30  N3        -0.2630    9.3310   12.3120 N.2   900  ATP900     -0.0055
     31  C4         0.9270    9.2980   12.9640 C.2   900  ATP900      0.3518
@<TRIPOS>BOND
     1    20    19    1
     2    18    17    1
     3    17    19    1
     4    17    15    1
     5    19    21    1
     6    21    22    1
     7    21    16    1
     8    30    29    1
     9    30    31    2
    10    15    16    1
    11    15    14    1
    12    29    28    1
    13     3     1    2
    14    31    22    1
    15    31    25    1
    16    22    23    1
    17    28    26    2
    18     8     1    1
    19     8     5    1
    20    14    13    1
    21     2     1    1
    22     6     5    2
    23     1     4    1
    24    23    24    1
    25    25    26    1
    26    25    24    2
    27    26    27    1
    28     5    12    1
    29     5     7    1
    30    12     9    1
    31    13     9    1
    32     9    11    2
    33     9    10    1
