@<TRIPOS>MOLECULE
2ff7_ADP_A_1.pdb
 27 29 0 0 0
SMALL
GASTEIGER

@<TRIPOS>ATOM
      1  PB       162.1990   60.8690  -66.5840 P.3   708  ADP708      0.5373
      2  O1B      163.3160   61.1810  -67.5530 O.2   708  ADP708     -0.2221
      3  O2B      161.7640   59.4120  -66.8870 O.3   708  ADP708     -0.1143
      4  O3B      162.4060   61.1860  -65.1020 O.3   708  ADP708     -0.1143
      5  PA       160.3490   63.0560  -66.5670 P.3   708  ADP708      0.2231
      6  O1A      159.3800   62.7170  -65.4940 O.3   708  ADP708     -0.4370
      7  O2A      161.4260   63.9880  -66.0270 O.2   708  ADP708     -0.5169
      8  O3A      160.9520   61.7120  -67.1530 O.3   708  ADP708     -0.2261
      9  O5'      159.5470   63.7580  -67.7550 O.3   708  ADP708     -0.3111
     10  C5'      158.5440   63.0860  -68.4820 C.3   708  ADP708      0.1813
     11  C4'      157.9730   64.1020  -69.4690 C.3   708  ADP708      0.1821
     12  O4'      157.5350   65.2320  -68.7460 O.3   708  ADP708     -0.3135
     13  C3'      159.0030   64.5970  -70.4920 C.3   708  ADP708      0.2184
     14  O3'      158.3350   64.7450  -71.7270 O.3   708  ADP708     -0.2174
     15  C2'      159.3950   65.9600  -69.9380 C.3   708  ADP708      0.2570
     16  O2'      159.8520   66.8800  -70.9010 O.3   708  ADP708     -0.2130
     17  C1'      158.1220   66.4220  -69.2640 C.3   708  ADP708      0.3186
     18  N9       158.3460   67.3770  -68.1670 N.pl3 708  ADP708     -0.1439
     19  C8       159.1400   67.2220  -67.0450 C.3   708  ADP708      0.3377
     20  N7       159.0380   68.3200  -66.2530 N.2   708  ADP708     -0.2095
     21  C5       158.1890   69.1810  -66.8710 C.2   708  ADP708      0.2526
     22  C6       157.7340   70.4440  -66.5310 C.2   708  ADP708      0.4393
     23  N6       158.1300   71.0200  -65.3890 N.pl3 708  ADP708      0.2180
     24  N1       156.8420   71.0740  -67.3840 N.2   708  ADP708      0.0021
     25  C2       156.4010   70.4900  -68.5480 C.3   708  ADP708      0.5254
     26  N3       156.8600   69.2240  -68.8770 N.2   708  ADP708     -0.0055
     27  C4       157.7450   68.5990  -68.0620 C.2   708  ADP708      0.3518
@<TRIPOS>BOND
     1    14    13    1
     2    16    15    1
     3    13    15    1
     4    13    11    1
     5    15    17    1
     6    11    12    1
     7    11    10    1
     8    17    12    1
     9    17    18    1
    10    26    25    1
    11    26    27    2
    12    25    24    1
    13    10     9    1
    14    18    27    1
    15    18    19    1
    16    27    21    1
    17     9     5    1
    18     2     1    2
    19    24    22    2
    20     8     1    1
    21     8     5    1
    22    19    20    1
    23     3     1    1
    24    21    22    1
    25    21    20    2
    26     1     4    1
    27     5     7    2
    28     5     6    1
    29    22    23    1
