@<TRIPOS>MOLECULE
2ffa_ADP_A_1.pdb
 27 29 0 0 0
SMALL
GASTEIGER

@<TRIPOS>ATOM
      1  PB       246.6110   21.0090  -29.2920 P.3   708  ADP708      0.5373
      2  O1B      247.8260   21.4520  -30.1040 O.2   708  ADP708     -0.2221
      3  O2B      246.2180   19.5510  -29.5230 O.3   708  ADP708     -0.1143
      4  O3B      246.9240   21.3150  -27.8540 O.3   708  ADP708     -0.1143
      5  PA       244.7680   23.2350  -29.1610 P.3   708  ADP708      0.2231
      6  O1A      243.7280   22.8130  -28.1250 O.3   708  ADP708     -0.4370
      7  O2A      245.7870   24.2230  -28.6580 O.2   708  ADP708     -0.5169
      8  O3A      245.3720   21.9010  -29.7860 O.3   708  ADP708     -0.2261
      9  O5'      244.0150   23.8750  -30.4060 O.3   708  ADP708     -0.3111
     10  C5'      242.8760   23.2870  -30.9750 C.3   708  ADP708      0.1813
     11  C4'      242.3220   24.2470  -32.0230 C.3   708  ADP708      0.1821
     12  O4'      241.8160   25.4020  -31.3980 O.3   708  ADP708     -0.3135
     13  C3'      243.3800   24.7320  -33.0220 C.3   708  ADP708      0.2184
     14  O3'      242.7110   24.8690  -34.2560 O.3   708  ADP708     -0.2174
     15  C2'      243.7100   26.1120  -32.5290 C.3   708  ADP708      0.2570
     16  O2'      244.1850   26.9640  -33.5580 O.3   708  ADP708     -0.2130
     17  C1'      242.4120   26.5900  -31.9310 C.3   708  ADP708      0.3186
     18  N9       242.6780   27.5140  -30.8370 N.pl3 708  ADP708     -0.1439
     19  C8       243.5140   27.3430  -29.7560 C.3   708  ADP708      0.3377
     20  N7       243.4450   28.4500  -28.9770 N.2   708  ADP708     -0.2095
     21  C5       242.6020   29.3070  -29.5870 C.2   708  ADP708      0.2526
     22  C6       242.1590   30.5800  -29.2380 C.2   708  ADP708      0.4393
     23  N6       242.5680   31.1310  -28.1110 N.pl3 708  ADP708      0.2180
     24  N1       241.2610   31.2160  -30.0670 N.2   708  ADP708      0.0021
     25  C2       240.7760   30.6630  -31.2390 C.3   708  ADP708      0.5254
     26  N3       241.2210   29.3860  -31.5620 N.2   708  ADP708     -0.0055
     27  C4       242.0910   28.7370  -30.7310 C.2   708  ADP708      0.3518
@<TRIPOS>BOND
     1    14    13    1
     2    16    15    1
     3    13    15    1
     4    13    11    1
     5    15    17    1
     6    11    12    1
     7    11    10    1
     8    17    12    1
     9    17    18    1
    10    26    25    1
    11    26    27    2
    12    25    24    1
    13    10     9    1
    14    18    27    1
    15    18    19    1
    16    27    21    1
    17     9     5    1
    18     2     1    2
    19    24    22    2
    20     8     1    1
    21     8     5    1
    22    19    20    1
    23    21    22    1
    24    21    20    2
    25     3     1    1
    26     1     4    1
    27    22    23    1
    28     5     7    2
    29     5     6    1
