@<TRIPOS>MOLECULE
2ffb_ADP_A_1.pdb
 27 29 0 0 0
SMALL
GASTEIGER

@<TRIPOS>ATOM
      1  PB        23.8920    1.3800   29.1840 P.3   708  ADP708      0.5373
      2  O1B       22.6790    1.6430   30.0100 O.3   708  ADP708     -0.1143
      3  O2B       24.2890   -0.0740   29.4610 O.3   708  ADP708     -0.1143
      4  O3B       23.5020    1.7350   27.7390 O.2   708  ADP708     -0.2221
      5  PA        25.6770    3.6380   29.1430 P.3   708  ADP708      0.2231
      6  O1A       26.6330    3.2890   28.0390 O.2   708  ADP708     -0.5169
      7  O2A       24.6030    4.5820   28.6400 O.3   708  ADP708     -0.4370
      8  O3A       25.1030    2.2710   29.7390 O.3   708  ADP708     -0.2261
      9  O5'       26.5380    4.3450   30.3240 O.3   708  ADP708     -0.3111
     10  C5'       27.4990    3.6270   31.0790 C.3   708  ADP708      0.1813
     11  C4'       28.1010    4.6070   32.0770 C.3   708  ADP708      0.1821
     12  O4'       28.6080    5.7380   31.4300 O.3   708  ADP708     -0.3135
     13  C3'       27.1190    5.1780   33.1600 C.3   708  ADP708      0.2184
     14  O3'       27.8490    5.4090   34.3460 O.3   708  ADP708     -0.2174
     15  C2'       26.6210    6.4390   32.5220 C.3   708  ADP708      0.2570
     16  O2'       26.1750    7.3870   33.4660 O.3   708  ADP708     -0.2130
     17  C1'       27.8960    6.9010   31.8590 C.3   708  ADP708      0.3186
     18  N9        27.6520    7.8650   30.7820 N.pl3 708  ADP708     -0.1439
     19  C8        26.8240    7.7640   29.6900 C.3   708  ADP708      0.3377
     20  N7        26.9290    8.8920   28.9500 N.2   708  ADP708     -0.2095
     21  C5        27.8120    9.7220   29.5820 C.2   708  ADP708      0.2526
     22  C6        28.2860   10.9940   29.3000 C.2   708  ADP708      0.4393
     23  N6        27.8340   11.6730   28.2410 N.pl3 708  ADP708      0.2180
     24  N1        29.1970   11.5880   30.1540 N.2   708  ADP708      0.0021
     25  C2        29.6490   10.9350   31.2930 C.3   708  ADP708      0.5254
     26  N3        29.1680    9.6790   31.5710 N.2   708  ADP708     -0.0055
     27  C4        28.2630    9.0910   30.7330 C.2   708  ADP708      0.3518
@<TRIPOS>BOND
     1     4     1    2
     2     6     5    2
     3    23    22    1
     4     7     5    1
     5    20    21    2
     6    20    19    1
     7     5     8    1
     8     5     9    1
     9     1     3    1
    10     1     8    1
    11     1     2    1
    12    22    21    1
    13    22    24    2
    14    21    27    1
    15    19    18    1
    16    24    25    1
    17     9    10    1
    18    27    18    1
    19    27    26    2
    20    18    17    1
    21    10    11    1
    22    25    26    1
    23    12    17    1
    24    12    11    1
    25    17    15    1
    26    11    13    1
    27    15    13    1
    28    15    16    1
    29    13    14    1
