@<TRIPOS>MOLECULE
2ffc_U5P_A_1.pdb
 21 22 0 0 0
SMALL
GASTEIGER

@<TRIPOS>ATOM
      1  N1         9.7550    7.0100    6.8160 N.am  5203  U5P5203    -0.1766
      2  C2        10.8480    6.9610    6.0070 C.1   5203  U5P5203     0.2845
      3  N3        10.6520    6.8120    4.6860 N.2   5203  U5P5203    -0.2452
      4  C4         9.4240    6.7360    4.1060 C.1   5203  U5P5203     0.2182
      5  C5         8.2790    6.7910    4.9110 C.2   5203  U5P5203     0.1242
      6  C6         8.4920    6.9370    6.2970 C.2   5203  U5P5203     0.0929
      7  O2        12.0330    7.0370    6.4470 O.2   5203  U5P5203    -0.1918
      8  O4         9.3730    6.6030    2.8400 O.2   5203  U5P5203    -0.2085
      9  C1'        9.9060    7.1980    8.2590 C.3   5203  U5P5203     0.2401
     10  C2'       10.7360    6.1480    8.9710 C.3   5203  U5P5203     0.2319
     11  O2'        9.9440    5.0460    9.4070 O.3   5203  U5P5203    -0.2157
     12  C3'       11.2890    6.9340   10.1510 C.3   5203  U5P5203     0.2158
     13  C4'       11.5170    8.3110    9.5240 C.3   5203  U5P5203     0.1801
     14  O3'       10.2680    7.1050   11.1800 O.3   5203  U5P5203    -0.2175
     15  O4'       10.5630    8.4880    8.4760 O.3   5203  U5P5203    -0.3320
     16  C5'       12.9410    8.5020    8.9380 C.3   5203  U5P5203     0.1859
     17  O5'       13.7520    8.6920   10.0910 O.3   5203  U5P5203    -0.2675
     18  P         15.3490    8.9250    9.9760 P.3   5203  U5P5203     0.5327
     19  O1P       15.5000   10.4130    9.7520 O.3   5203  U5P5203    -0.1145
     20  O2P       15.8920    8.4750   11.3350 O.3   5203  U5P5203    -0.1145
     21  O3P       15.8380    8.1260    8.8390 O.2   5203  U5P5203    -0.2224
@<TRIPOS>BOND
     1     8     4    2
     2     4     3    2
     3     4     5    1
     4     3     2    2
     5     5     6    2
     6     2     7    2
     7     2     1   am
     8     6     1    1
     9     1     9    1
    10     9    15    1
    11     9    10    1
    12    15    13    1
    13    21    18    2
    14    16    13    1
    15    16    17    1
    16    10    11    1
    17    10    12    1
    18    13    12    1
    19    19    18    1
    20    18    17    1
    21    18    20    1
    22    12    14    1
