@<TRIPOS>MOLECULE
2ffd_III_G_1.pdb
 29 29 0 0 0
SMALL
GASTEIGER

@<TRIPOS>ATOM
      1  N         40.3380    9.1360   68.9350 N.3     1  GLY1       -0.1210
      2  CA        40.8860    9.1230   70.3210 C.3     1  GLY1        0.1940
      3  C         41.5040   10.4520   70.7230 C.2     1  GLY1        0.2454
      4  O         41.1120   11.4990   70.1990 O.2     1  GLY1       -0.2732
      5  N         42.4680   10.4220   71.6690 N.am    2  PRO2       -0.2717
      6  CA        43.1970   11.6130   72.0900 C.3     2  PRO2        0.1535
      7  C         44.5270   11.7460   71.3390 C.2     2  PRO2        0.2598
      8  O         44.6070   11.3820   70.1620 O.2     2  PRO2       -0.2715
      9  CB        43.4370   11.3490   73.5760 C.3     2  PRO2        0.0310
     10  CG        43.5240    9.8280   73.6820 C.3     2  PRO2        0.0237
     11  CD        42.9190    9.2340   72.4200 C.3     2  PRO2        0.0939
     12  N         45.5540   12.2640   72.0110 N.am    3  ARG3       -0.1964
     13  CA        46.9000   12.3240   71.4390 C.3     3  ARG3        0.1729
     14  C         47.9810   12.4950   72.5300 C.2     3  ARG3        0.2616
     15  O         47.6550   12.7860   73.6850 O.2     3  ARG3       -0.2715
     16  CB        46.9670   13.4090   70.3520 C.3     3  ARG3        0.0348
     17  CG        47.5860   12.9130   69.0460 C.3     3  ARG3        0.0492
     18  CD        46.7670   13.2870   67.8080 C.3     3  ARG3        0.2205
     19  NE        45.6530   12.3690   67.5600 N.pl3   3  ARG3       -0.0865
     20  CZ        44.9930   12.2700   66.4050 C.cat   3  ARG3        0.5346
     21  NH1       45.3250   13.0270   65.3670 N.pl3   3  ARG3        0.1354
     22  NH2       43.9940   11.4060   66.2870 N.pl3   3  ARG3        0.1354
     23  N         49.2510   12.3030   72.1630 N.am    4  VAL4       -0.1977
     24  CA        50.3800   12.2670   73.1240 C.3     4  VAL4        0.1596
     25  C         50.4500   13.4710   74.0830 C.2     4  VAL4        0.2287
     26  O         50.6020   13.3140   75.2990 O.2     4  VAL4       -0.2864
     27  CB        51.7560   12.0690   72.4010 C.3     4  VAL4        0.0276
     28  CG1       52.9160   12.0580   73.4010 C.3     4  VAL4        0.0022
     29  CG2       51.7610   10.7810   71.5700 C.3     4  VAL4        0.0022
@<TRIPOS>BOND
     1    21    20    1
     2    22    20    1
     3    20    19    2
     4    19    18    1
     5    18    17    1
     6     1     2    1
     7    17    16    1
     8     8     7    2
     9     4     3    2
    10     2     3    1
    11    16    13    1
    12     3     5   am
    13     7    12   am
    14     7     6    1
    15    13    12    1
    16    13    14    1
    17    29    27    1
    18     5     6    1
    19     5    11    1
    20     6     9    1
    21    23    14   am
    22    23    24    1
    23    27    24    1
    24    27    28    1
    25    11    10    1
    26    14    15    2
    27    24    25    1
    28     9    10    1
    29    25    26    2
