@<TRIPOS>MOLECULE
2ffn_HEM_A_1.pdb
 43 50 0 0 0
SMALL
GASTEIGER

@<TRIPOS>ATOM
      1 FE         23.6990   39.2810   26.2630 Fe    1004  HEM1004     0.0000
      2  CHA       21.7150   41.9660   25.6640 C.2   1004  HEM1004     0.0000
      3  CHB       21.4840   37.2720   24.7120 C.2   1004  HEM1004     0.0000
      4  CHC       25.6130   36.5710   27.0010 C.2   1004  HEM1004     0.0000
      5  CHD       25.9930   41.3140   27.7440 C.2   1004  HEM1004     0.0000
      6  NA        21.7820   39.5740   25.4250 N.ar  1004  HEM1004     0.0000
      7  C1A       21.1540   40.7260   25.2740 C.ar  1004  HEM1004     0.0000
      8  C2A       19.9240   40.4890   24.6770 C.ar  1004  HEM1004     0.0000
      9  C3A       19.8540   39.1290   24.4270 C.ar  1004  HEM1004     0.0000
     10  C4A       21.0640   38.6120   24.8600 C.ar  1004  HEM1004     0.0000
     11  CMA       18.6990   38.3450   23.8100 C.3   1004  HEM1004     0.0000
     12  CAA       18.8620   41.4980   24.3000 C.3   1004  HEM1004     0.0000
     13  CBA       18.9210   41.8480   22.8220 C.3   1004  HEM1004     0.0000
     14  CGA       17.7500   42.7030   22.3790 C.2   1004  HEM1004     0.0000
     15  O1A       16.5920   42.3500   22.6920 O.co2 1004  HEM1004     0.0000
     16  O2A       17.9920   43.7310   21.7160 O.co2 1004  HEM1004     0.0000
     17  NB        23.6130   37.2240   25.8370 N.2   1004  HEM1004     0.0000
     18  C1B       22.6760   36.6590   25.1090 C.2   1004  HEM1004     0.0000
     19  C2B       23.0640   35.3670   24.7760 C.2   1004  HEM1004     0.0000
     20  C3B       24.2640   35.1280   25.4410 C.2   1004  HEM1004     0.0000
     21  C4B       24.5290   36.3130   26.1410 C.2   1004  HEM1004     0.0000
     22  CMB       22.3190   34.4340   23.7980 C.3   1004  HEM1004     0.0000
     23  CAB       25.0790   34.0050   25.4220 C.3   1004  HEM1004     0.0000
     24  CBB       25.3560   33.2630   24.1890 C.3   1004  HEM1004     0.0000
     25  NC        25.5300   38.9890   27.2610 N.ar  1004  HEM1004     0.0000
     26  C1C       26.0710   37.8080   27.5360 C.ar  1004  HEM1004     0.0000
     27  C2C       27.1380   37.9800   28.3930 C.ar  1004  HEM1004     0.0000
     28  C3C       27.2390   39.3420   28.6330 C.ar  1004  HEM1004     0.0000
     29  C4C       26.2420   39.9390   27.8750 C.ar  1004  HEM1004     0.0000
     30  CMC       27.9640   36.8420   28.9840 C.3   1004  HEM1004     0.0000
     31  CAC       28.1720   40.0420   29.4150 C.3   1004  HEM1004     0.0000
     32  CBC       29.5670   39.6350   29.5360 C.3   1004  HEM1004     0.0000
     33  ND        23.8930   41.3580   26.5560 N.2   1004  HEM1004     0.0000
     34  C1D       24.9240   41.9790   27.1220 C.2   1004  HEM1004     0.0000
     35  C2D       24.7690   43.3450   27.0320 C.2   1004  HEM1004     0.0000
     36  C3D       23.4810   43.5190   26.5240 C.2   1004  HEM1004     0.0000
     37  C4D       22.9770   42.2600   26.2260 C.2   1004  HEM1004     0.0000
     38  CMD       25.7500   44.4460   27.4390 C.3   1004  HEM1004     0.0000
     39  CAD       22.7720   44.8400   26.3040 C.3   1004  HEM1004     0.0000
     40  CBD       22.0460   45.3070   27.5470 C.3   1004  HEM1004     0.0000
     41  CGD       21.1040   46.4600   27.2830 C.2   1004  HEM1004     0.0000
     42  O1D       21.5730   47.5040   26.7750 O.co2 1004  HEM1004     0.0000
     43  O2D       19.8910   46.3260   27.5670 O.co2 1004  HEM1004     0.0000
@<TRIPOS>BOND
     1    16    14   ar
     2    14    15   ar
     3    14    13    1
     4    13    12    1
     5    22    19    1
     6    11     9    1
     7    24    23    1
     8    12     8    1
     9     9     8   ar
    10     9    10   ar
    11     8     7   ar
    12     3    10    2
    13     3    18    1
    14    19    18    1
    15    19    20    2
    16    10     6   ar
    17    18    17    2
    18     7     6   ar
    19     7     2    2
    20    23    20    1
    21     6     1    1
    22    20    21    1
    23     2    37    1
    24    17    21    1
    25    17     1    1
    26    21     4    2
    27    37    36    1
    28    37    33    2
    29     1    33    1
    30     1    25    1
    31    39    36    1
    32    39    40    1
    33    36    35    2
    34    33    34    1
    35    42    41   ar
    36     4    26    1
    37    35    34    1
    38    35    38    1
    39    34     5    2
    40    25    26   ar
    41    25    29   ar
    42    41    40    1
    43    41    43   ar
    44    26    27   ar
    45     5    29    1
    46    29    28   ar
    47    27    28   ar
    48    27    30    1
    49    28    31    1
    50    31    32    1
