@<TRIPOS>MOLECULE
2ffq_GSP_A_1.pdb
 32 34 0 0 0
SMALL
GASTEIGER

@<TRIPOS>ATOM
      1  PG        12.6140   34.4780   27.1750 P.3   355  GSP355      0.4340
      2  O3B       12.8310   32.9900   27.8380 O.3   355  GSP355     -0.2405
      3  S1G       11.1810   35.1060   28.2000 S.3   355  GSP355      0.0416
      4  O2G       13.9260   35.0800   27.3450 O.3   355  GSP355     -0.1305
      5  O3G       12.0120   34.3750   25.8170 O.2   355  GSP355     -0.2423
      6  PB        13.9810   31.8550   27.3760 P.3   355  GSP355      0.2262
      7  O1B       13.2620   31.0880   26.3540 O.2   355  GSP355     -0.5168
      8  O2B       15.3250   32.3000   26.9340 O.3   355  GSP355     -0.4369
      9  PA        15.5020   30.9870   29.6190 P.3   355  GSP355      0.2189
     10  O1A       16.6850   30.4210   28.9020 O.2   355  GSP355     -0.5170
     11  O2A       15.5310   32.3180   30.2790 O.3   355  GSP355     -0.4371
     12  O3A       14.2370   30.9840   28.7050 O.3   355  GSP355     -0.2701
     13  O5'       15.0130   29.9140   30.7480 O.3   355  GSP355     -0.3112
     14  C5'       13.8550   30.2160   31.6040 C.3   355  GSP355      0.1813
     15  C4'       14.0940   29.5790   32.9490 C.3   355  GSP355      0.1799
     16  O4'       14.2660   28.1300   32.7530 O.3   355  GSP355     -0.3326
     17  C3'       15.4400   30.0490   33.6150 C.3   355  GSP355      0.2158
     18  O3'       15.2030   30.1330   35.0400 O.3   355  GSP355     -0.2175
     19  C2'       16.4510   28.8800   33.2910 C.3   355  GSP355      0.2310
     20  O2'       17.5110   28.7500   34.2480 O.3   355  GSP355     -0.2158
     21  C1'       15.5220   27.6290   33.2670 C.3   355  GSP355      0.2293
     22  N9        15.9540   26.5900   32.3030 N.pl3 355  GSP355     -0.2354
     23  C8        16.3800   26.6340   30.9840 C.3   355  GSP355      0.2246
     24  N7        16.6950   25.4880   30.4530 N.2   355  GSP355     -0.2322
     25  C5        16.4440   24.5980   31.4990 C.2   355  GSP355      0.2182
     26  C6        16.6270   23.1660   31.5120 C.1   355  GSP355      0.2372
     27  O6        17.0210   22.5440   30.5310 O.2   355  GSP355     -0.2069
     28  N1        16.2710   22.6430   32.7710 N.2   355  GSP355     -0.2485
     29  C2        15.8100   23.3650   33.8910 C.1   355  GSP355      0.2531
     30  N2        15.5160   22.7370   35.0190 N.pl3 355  GSP355     -0.0226
     31  N3        15.6600   24.7190   33.8640 N.2   355  GSP355     -0.3074
     32  C4        16.0030   25.2670   32.6370 C.2   355  GSP355      0.2300
@<TRIPOS>BOND
     1     5     1    2
     2     7     6    2
     3     8     6    1
     4     1     4    1
     5     1     2    1
     6     1     3    1
     7     6     2    1
     8     6    12    1
     9    12     9    1
    10    10     9    2
    11     9    11    1
    12     9    13    1
    13    24    23    1
    14    24    25    2
    15    27    26    2
    16    13    14    1
    17    23    22    1
    18    25    26    1
    19    25    32    1
    20    26    28    2
    21    14    15    1
    22    22    32    1
    23    22    21    1
    24    32    31    2
    25    16    15    1
    26    16    21    1
    27    28    29    2
    28    15    17    1
    29    21    19    1
    30    19    17    1
    31    19    20    1
    32    17    18    1
    33    31    29    2
    34    29    30    1
