@<TRIPOS>MOLECULE
2ffr_PLP_A_1.pdb
 15 15 0 0 0
SMALL
GASTEIGER

@<TRIPOS>ATOM
      1  N1        24.6830   25.6500   30.2920 N.ar  999  PLP999     -0.2452
      2  C2        23.5470   24.9260   30.5300 C.ar  999  PLP999      0.0978
      3  C2A       22.5990   25.3980   31.6500 C.3   999  PLP999      0.0555
      4  C3        23.2830   23.7930   29.7890 C.ar  999  PLP999      0.2049
      5  O3        22.1450   23.0170   30.0600 O.3   999  PLP999     -0.2857
      6  C4        24.1830   23.4020   28.8100 C.ar  999  PLP999      0.0182
      7  C4A       23.8760   22.1420   27.9420 C.3   999  PLP999      0.0342
      8  C5        25.3440   24.1650   28.6010 C.ar  999  PLP999      0.0261
      9  C6        25.5610   25.2740   29.3380 C.ar  999  PLP999      0.0965
     10  C5A       26.3700   23.8580   27.4650 C.3   999  PLP999      0.1815
     11  O4P       25.9460   24.5580   26.2780 O.3   999  PLP999     -0.2653
     12  P         26.9460   24.7760   25.0290 P.3   999  PLP999      0.5329
     13  O1P       26.1900   25.5450   24.0530 O.2   999  PLP999     -0.2224
     14  O2P       28.0630   25.7000   25.6260 O.3   999  PLP999     -0.1145
     15  O3P       27.5710   23.4930   24.6350 O.3   999  PLP999     -0.1145
@<TRIPOS>BOND
     1    13    12    2
     2    15    12    1
     3    12    14    1
     4    12    11    1
     5    11    10    1
     6    10     8    1
     7     7     6    1
     8     8     6   ar
     9     8     9   ar
    10     6     4   ar
    11     9     1   ar
    12     4     5    1
    13     4     2   ar
    14     1     2   ar
    15     2     3    1
