@<TRIPOS>MOLECULE
2ffr_DL6_A_1.pdb
 18 18 0 0 0
SMALL
GASTEIGER

@<TRIPOS>ATOM
      1  O6        33.3550   18.6450   27.2580 O.3   998  DL6998     -0.2176
      2  C6        32.2360   19.3740   27.8180 C.3   998  DL6998      0.2142
      3  C5        32.4260   20.8830   27.4810 C.3   998  DL6998      0.1828
      4  C4        32.4940   21.0890   25.8730 C.3   998  DL6998      0.2144
      5  O4        31.3070   20.6510   25.2170 O.3   998  DL6998     -0.2176
      6  C3        32.7100   22.6120   25.5530 C.3   998  DL6998      0.2190
      7  O3        32.7930   22.8390   24.1240 O.3   998  DL6998     -0.2174
      8  C2        34.0120   23.0230   26.2350 C.3   998  DL6998      0.2326
      9  O2        34.2250   24.4400   26.0000 O.3   998  DL6998     -0.2157
     10  C1        33.9710   22.7460   27.7560 C.3   998  DL6998      0.2447
     11  N1        35.3350   23.0800   28.2340 N.am  998  DL6998     -0.1733
     12  C7        35.5640   23.7910   29.3260 C.2   998  DL6998      0.2714
     13  C8        37.0180   24.0850   29.7240 C.3   998  DL6998      0.2505
     14  N2        37.1390   24.8650   30.9190 N.2   998  DL6998     -0.0874
     15  N3        37.7320   24.4380   31.8390 N.2   998  DL6998     -0.1659
     16  N4        38.3250   24.0060   32.7550 N.2   998  DL6998      0.0678
     17  O7        34.6860   24.2190   30.0130 O.2   998  DL6998     -0.2710
     18  O5        33.7150   21.3430   28.0150 O.3   998  DL6998     -0.3315
@<TRIPOS>BOND
     1     7     6    1
     2     5     4    1
     3     6     4    1
     4     6     8    1
     5     4     3    1
     6     9     8    1
     7     8    10    1
     8     1     2    1
     9     3     2    1
    10     3    18    1
    11    10    18    1
    12    10    11    1
    13    11    12   am
    14    12    13    1
    15    12    17    2
    16    13    14    1
    17    14    15    2
    18    15    16    2
