@<TRIPOS>MOLECULE
2ffu_UDP_A_1.pdb
 25 26 0 0 0
SMALL
GASTEIGER

@<TRIPOS>ATOM
      1  N1        -1.7100  -17.5080   16.4370 N.am  601  UDP601     -0.1766
      2  C2        -1.2180  -17.1810   17.7480 C.1   601  UDP601      0.2845
      3  N3        -0.5110  -15.9860   17.9440 N.2   601  UDP601     -0.2452
      4  C4        -0.2340  -15.0490   16.9000 C.1   601  UDP601      0.2182
      5  C5        -0.6830  -15.2660   15.4800 C.2   601  UDP601      0.1242
      6  C6        -1.4540  -16.5690   15.2740 C.2   601  UDP601      0.0929
      7  O2        -1.4090  -17.9380   18.7220 O.2   601  UDP601     -0.1918
      8  O4         0.3800  -14.0470   17.1570 O.2   601  UDP601     -0.2085
      9  C1'       -2.4590  -18.7900   16.2750 C.3   601  UDP601      0.2401
     10  C2'       -3.7910  -18.4380   15.6450 C.3   601  UDP601      0.2319
     11  O2'       -4.9740  -18.0420   16.3140 O.3   601  UDP601     -0.2157
     12  C3'       -4.0910  -19.7790   15.0330 C.3   601  UDP601      0.2158
     13  C4'       -2.8550  -20.2010   14.4520 C.3   601  UDP601      0.1799
     14  O4'       -1.8630  -19.5610   15.2330 O.3   601  UDP601     -0.3320
     15  O3'       -4.6070  -20.8080   15.8700 O.3   601  UDP601     -0.2175
     16  C5'       -2.5880  -20.0440   12.9200 C.3   601  UDP601      0.1813
     17  O5'       -2.7790  -18.6720   12.6090 O.3   601  UDP601     -0.3111
     18  PA        -3.8550  -18.3200   11.5480 P.3   601  UDP601      0.2231
     19  O1A       -5.0100  -19.1770   11.5930 O.3   601  UDP601     -0.4370
     20  O2A       -4.1570  -16.7810   11.5780 O.2   601  UDP601     -0.5169
     21  O3A       -3.0820  -18.5880   10.1780 O.3   601  UDP601     -0.2261
     22  PB        -3.6710  -19.1850    8.7880 P.3   601  UDP601      0.5373
     23  O1B       -4.3480  -20.5260    9.0330 O.3   601  UDP601     -0.1143
     24  O2B       -2.4830  -19.2300    7.7970 O.2   601  UDP601     -0.2221
     25  O3B       -4.7010  -18.2390    8.0240 O.3   601  UDP601     -0.1143
@<TRIPOS>BOND
     1    24    22    2
     2    25    22    1
     3    22    23    1
     4    22    21    1
     5    21    18    1
     6    18    20    2
     7    18    19    1
     8    18    17    1
     9    17    16    1
    10    16    13    1
    11    13    12    1
    12    13    14    1
    13    12    10    1
    14    12    15    1
    15    14     9    1
    16     6     5    2
    17     6     1    1
    18     5     4    1
    19    10     9    1
    20    10    11    1
    21     9     1    1
    22     1     2   am
    23     4     8    2
    24     4     3    2
    25     2     3    2
    26     2     7    2
