@<TRIPOS>MOLECULE
2ffv_UDP_A_1.pdb
 25 26 0 0 0
SMALL
GASTEIGER

@<TRIPOS>ATOM
      1  N1         6.0560  -41.1540  -54.6300 N.am  5601  UDP5601    -0.1766
      2  C2         4.7800  -40.5460  -54.9190 C.1   5601  UDP5601     0.2845
      3  N3         3.6760  -41.3480  -55.2100 N.2   5601  UDP5601    -0.2452
      4  C4         3.7330  -42.7740  -55.2680 C.1   5601  UDP5601     0.2182
      5  C5         4.9960  -43.5470  -54.9920 C.2   5601  UDP5601     0.1242
      6  C6         6.2020  -42.6550  -54.6690 C.2   5601  UDP5601     0.0929
      7  O2         4.6250  -39.3160  -54.8930 O.2   5601  UDP5601    -0.1918
      8  O4         2.7350  -43.3870  -55.5340 O.2   5601  UDP5601    -0.2085
      9  C1'        7.2180  -40.2660  -54.3210 C.3   5601  UDP5601     0.2401
     10  C2'        7.2680  -40.2040  -52.8040 C.3   5601  UDP5601     0.2319
     11  O2'        6.5480  -39.3210  -51.9670 O.3   5601  UDP5601    -0.2157
     12  C3'        8.7080  -39.7860  -52.6800 C.3   5601  UDP5601     0.2158
     13  C4'        9.3990  -40.6580  -53.5530 C.3   5601  UDP5601     0.1799
     14  O4'        8.4640  -40.9450  -54.5830 O.3   5601  UDP5601    -0.3320
     15  O3'        9.0670  -38.4350  -53.0050 O.3   5601  UDP5601    -0.2175
     16  C5'       10.0340  -41.9620  -52.9600 C.3   5601  UDP5601     0.1813
     17  O5'        8.9240  -42.7710  -52.5420 O.3   5601  UDP5601    -0.3111
     18  PA         9.1620  -43.8930  -51.5120 P.3   5601  UDP5601     0.2231
     19  O1A        7.9770  -44.3610  -50.8750 O.3   5601  UDP5601    -0.4370
     20  O2A       10.0580  -45.0290  -52.1240 O.2   5601  UDP5601    -0.5169
     21  O3A       10.0380  -43.1520  -50.3900 O.3   5601  UDP5601    -0.2261
     22  PB        11.4500  -43.6150  -49.7300 P.3   5601  UDP5601     0.5373
     23  O1B       11.3380  -45.0180  -49.1290 O.3   5601  UDP5601    -0.1143
     24  O2B       11.8200  -42.5270  -48.7100 O.3   5601  UDP5601    -0.1143
     25  O3B       12.7140  -43.5650  -50.6980 O.2   5601  UDP5601    -0.2221
@<TRIPOS>BOND
     1     8     4    2
     2     4     3    2
     3     4     5    1
     4     3     2    2
     5     5     6    2
     6     2     7    2
     7     2     1   am
     8     6     1    1
     9     1     9    1
    10    14     9    1
    11    14    13    1
    12     9    10    1
    13    13    16    1
    14    13    12    1
    15    15    12    1
    16    16    17    1
    17    10    12    1
    18    10    11    1
    19    17    18    1
    20    20    18    2
    21    18    19    1
    22    18    21    1
    23    25    22    2
    24    21    22    1
    25    22    23    1
    26    22    24    1
