@<TRIPOS>MOLECULE
2ffy_SM3_A_1.pdb
 19 20 0 0 0
SMALL
GASTEIGER

@<TRIPOS>ATOM
      1  CAF       21.7290    4.9810   11.0980 C.ar  5401  SM35401     0.0000
      2  CAC       20.4980    5.6540   11.3560 C.ar  5401  SM35401     0.0000
      3  CAB       20.3580    6.0610   12.6360 C.ar  5401  SM35401     0.0000
      4  SAD       21.7580    5.6970   13.5570 S.2   5401  SM35401     0.0000
      5  CAE       22.5270    4.9370   12.2280 C.ar  5401  SM35401     0.0000
      6  CAG       23.9130    4.3170   12.3790 C.3   5401  SM35401     0.0000
      7  CAH       24.8610    5.2980   13.0720 C.2   5401  SM35401     0.0000
      8  OAI       25.2160    6.3450   12.4610 O.2   5401  SM35401     0.0000
      9  NAJ       25.3530    4.9750   14.3080 N.am  5401  SM35401     0.0000
     10  CAK       26.2970    5.8340   15.0820 C.3   5401  SM35401     0.0000
     11  B         26.7580    5.0750   16.4270 B     5401  SM35401     0.0000
     12  OAT       25.6950    4.1810   16.9720 O.3   5401  SM35401     0.0000
     13  OAO       27.1600    6.0380   17.5110 O.3   5401  SM35401     0.0000
     14  CAL       25.6090    7.1750   15.2720 C.ar  5401  SM35401     0.0000
     15  CAQ       24.2440    7.2180   15.5580 C.ar  5401  SM35401     0.0000
     16  CAM       26.2850    8.3560   15.0870 C.ar  5401  SM35401     0.0000
     17  CAN       25.6360    9.5760   15.1830 C.ar  5401  SM35401     0.0000
     18  CAS       24.2680    9.6050   15.4210 C.ar  5401  SM35401     0.0000
     19  CAR       23.5840    8.4210   15.6310 C.ar  5401  SM35401     0.0000
@<TRIPOS>BOND
     1     1     2   ar
     2     1     5   ar
     3     2     3   ar
     4     5     6    1
     5     5     4   ar
     6     6     7    1
     7     8     7    2
     8     3     4   ar
     9     7     9   am
    10     9    10    1
    11    10    14    1
    12    10    11    1
    13    16    17   ar
    14    16    14   ar
    15    17    18   ar
    16    14    15   ar
    17    18    19   ar
    18    15    19   ar
    19    11    12    1
    20    11    13    1
