@<TRIPOS>MOLECULE
2fg5_GNP_A_1.pdb
 32 34 0 0 0
SMALL
GASTEIGER

@<TRIPOS>ATOM
      1  PG        19.6190    3.9300   -5.1840 P.3   302  GNP302      0.4884
      2  O1G       18.6620    4.8130   -5.9720 O.2   302  GNP302     -0.2331
      3  O2G       21.0540    4.0580   -5.6380 O.3   302  GNP302     -0.1240
      4  O3G       19.0420    2.5240   -5.2460 O.3   302  GNP302     -0.1240
      5  N3B       19.5570    4.3590   -3.6250 N.3   302  GNP302     -0.0163
      6  PB        20.0620    3.4480   -2.4240 P.3   302  GNP302      0.4669
      7  O1B       19.3270    2.1710   -2.3620 O.3   302  GNP302     -0.1253
      8  O2B       21.5230    3.3620   -2.5420 O.2   302  GNP302     -0.2351
      9  O3A       19.7430    4.1710   -1.1150 O.3   302  GNP302     -0.2360
     10  PA        20.5730    5.3550   -0.6010 P.3   302  GNP302      0.2220
     11  O1A       21.7610    4.8660    0.1570 O.3   302  GNP302     -0.4370
     12  O2A       20.8220    6.2780   -1.7080 O.2   302  GNP302     -0.5170
     13  O5'       19.7050    6.0820    0.4890 O.3   302  GNP302     -0.3111
     14  C5'       18.4040    6.5370    0.2030 C.3   302  GNP302      0.1813
     15  C4'       17.9460    7.5130    1.2740 C.3   302  GNP302      0.1799
     16  O4'       17.8220    6.8160    2.5490 O.3   302  GNP302     -0.3326
     17  C3'       18.9010    8.6680    1.5250 C.3   302  GNP302      0.2158
     18  O3'       18.1890    9.8100    1.8880 O.3   302  GNP302     -0.2175
     19  C2'       19.7240    8.1630    2.6980 C.3   302  GNP302      0.2310
     20  O2'       20.3710    9.1760    3.4520 O.3   302  GNP302     -0.2158
     21  C1'       18.6500    7.4460    3.5130 C.3   302  GNP302      0.2293
     22  N9        19.1960    6.4290    4.4030 N.pl3 302  GNP302     -0.2354
     23  C8        20.0880    5.4360    4.0670 C.3   302  GNP302      0.2246
     24  N7        20.4300    4.6740    5.0680 N.2   302  GNP302     -0.2322
     25  C5        19.7080    5.1880    6.1390 C.2   302  GNP302      0.2182
     26  C6        19.6530    4.7720    7.4840 C.1   302  GNP302      0.2372
     27  O6        20.2410    3.8370    8.0310 O.2   302  GNP302     -0.2069
     28  N1        18.8120    5.5560    8.2460 N.2   302  GNP302     -0.2485
     29  C2        18.0950    6.6240    7.7750 C.1   302  GNP302      0.2531
     30  N2        17.3430    7.2520    8.6870 N.pl3 302  GNP302     -0.0226
     31  N3        18.1280    7.0410    6.5060 N.2   302  GNP302     -0.3074
     32  C4        18.9510    6.2790    5.7450 C.2   302  GNP302      0.2300
@<TRIPOS>BOND
     1     2     1    2
     2     3     1    1
     3     4     1    1
     4     1     5    1
     5     5     6    1
     6     8     6    2
     7     6     7    1
     8     6     9    1
     9    12    10    2
    10     9    10    1
    11    10    11    1
    12    10    13    1
    13    14    13    1
    14    14    15    1
    15    15    17    1
    16    15    16    1
    17    17    18    1
    18    17    19    1
    19    16    21    1
    20    19    20    1
    21    19    21    1
    22    21    22    1
    23    23    22    1
    24    23    24    1
    25    22    32    1
    26    24    25    2
    27    32    25    1
    28    32    31    2
    29    25    26    1
    30    31    29    2
    31    26    27    2
    32    26    28    2
    33    29    28    2
    34    29    30    1
