@<TRIPOS>MOLECULE
2fg6_SN0_C_1.pdb
 15 14 0 0 0
SMALL
GASTEIGER

@<TRIPOS>ATOM
      1  CA        -3.3090  -55.5900  -19.3040 C.3   351  SN0351      0.1977
      2  C         -4.4700  -55.8560  -18.3500 C.2   351  SN0351      0.3842
      3  O         -4.9320  -54.8930  -17.7050 O.co2 351  SN0351     -0.2437
      4  OXT       -4.9030  -57.0230  -18.2580 O.co2 351  SN0351     -0.2437
      5  CB        -3.7110  -54.5590  -20.3600 C.3   351  SN0351      0.0333
      6  CG        -4.6530  -55.0870  -21.4300 C.3   351  SN0351      0.0023
      7  CD        -5.0360  -53.9910  -22.4150 C.3   351  SN0351      0.0001
      8  N1        -2.5990  -56.7770  -19.8040 N.am  351  SN0351     -0.1956
      9  C1        -1.5150  -57.2560  -19.1960 C.2   351  SN0351      0.2424
     10  O1        -1.1480  -56.8420  -18.0950 O.2   351  SN0351     -0.2733
     11  C2        -0.8000  -58.3330  -19.9660 C.3   351  SN0351      0.0986
     12  C3         0.6580  -58.5100  -19.5340 C.3   351  SN0351      0.1237
     13  C4         1.1710  -59.8940  -19.8450 C.2   351  SN0351      0.3654
     14  OD1        0.3760  -60.7900  -20.2050 O.co2 351  SN0351     -0.2456
     15  OD2        2.3990  -60.0980  -19.7290 O.co2 351  SN0351     -0.2456
@<TRIPOS>BOND
     1     7     6    1
     2     6     5    1
     3     5     1    1
     4    14    13   ar
     5    11    12    1
     6    11     9    1
     7    13    15   ar
     8    13    12    1
     9     8     1    1
    10     8     9   am
    11     1     2    1
    12     9    10    2
    13     2     4   ar
    14     2     3   ar
