@<TRIPOS>MOLECULE
2fg7_SN0_C_1.pdb
 15 14 0 0 0
SMALL
GASTEIGER

@<TRIPOS>ATOM
      1  CA        -3.5510  -55.4190  -18.8720 C.3   351  SN0351      0.1977
      2  C         -4.7620  -55.6910  -17.9780 C.2   351  SN0351      0.3842
      3  O         -5.2390  -54.7400  -17.3140 O.co2 351  SN0351     -0.2437
      4  OXT       -5.2170  -56.8540  -17.9510 O.co2 351  SN0351     -0.2437
      5  CB        -3.9050  -54.3840  -19.9400 C.3   351  SN0351      0.0333
      6  CG        -4.7890  -54.9120  -21.0480 C.3   351  SN0351      0.0023
      7  CD        -5.2380  -53.7880  -21.9640 C.3   351  SN0351      0.0001
      8  N1        -2.8060  -56.6010  -19.3310 N.am  351  SN0351     -0.1956
      9  C1        -1.6020  -56.9330  -18.8580 C.2   351  SN0351      0.2424
     10  O1        -1.0240  -56.2580  -17.9950 O.2   351  SN0351     -0.2733
     11  C2        -1.0200  -58.1960  -19.4700 C.3   351  SN0351      0.0986
     12  C3         0.5130  -58.2600  -19.4280 C.3   351  SN0351      0.1237
     13  C4         0.9990  -59.6790  -19.4800 C.2   351  SN0351      0.3654
     14  OD1        0.5600  -60.4810  -20.3300 O.co2 351  SN0351     -0.2456
     15  OD2        1.8540  -60.0130  -18.6400 O.co2 351  SN0351     -0.2456
@<TRIPOS>BOND
     1     7     6    1
     2     6     5    1
     3    14    13   ar
     4     5     1    1
     5    13    12    1
     6    13    15   ar
     7    11    12    1
     8    11     9    1
     9     8     1    1
    10     8     9   am
    11     1     2    1
    12     9    10    2
    13     2     4   ar
    14     2     3   ar
