@<TRIPOS>MOLECULE
2fgb_P6G_A_1.pdb
 19 18 0 0 0
SMALL
GASTEIGER

@<TRIPOS>ATOM
      1  O1        31.2240   19.6070   14.9260 O.3   600  P6G600     -0.2176
      2  C2        31.7690   20.8460   14.4590 C.3   600  P6G600      0.2140
      3  C3        30.6530   21.8840   14.4230 C.3   600  P6G600      0.1777
      4  O4        31.0650   23.0790   15.0820 O.3   600  P6G600     -0.3483
      5  C5        30.3840   24.2310   14.5850 C.3   600  P6G600      0.1742
      6  C6        30.4930   25.3630   15.6000 C.3   600  P6G600      0.1743
      7  O7        31.8020   25.9180   15.4890 O.3   600  P6G600     -0.3471
      8  C8        31.8310   27.3400   15.6330 C.3   600  P6G600      0.1894
      9  C9        33.2670   27.7500   15.9390 C.3   600  P6G600      0.2376
     10  O10       33.3050   28.9490   16.7090 O.2   600  P6G600     -0.4666
     11  C11       34.1490   28.9730   17.8920 C.2   600  P6G600      0.2124
     12  C12       34.8180   30.0620   18.2600 C.2   600  P6G600      0.2124
     13  O13       34.7460   31.2940   17.4880 O.2   600  P6G600     -0.4666
     14  C14       35.8140   32.2440   17.5290 C.3   600  P6G600      0.2376
     15  C15       36.1240   32.6770   18.9640 C.3   600  P6G600      0.1894
     16  O16       35.8400   34.0660   19.1490 O.3   600  P6G600     -0.3470
     17  C17       36.9660   34.9010   18.8670 C.3   600  P6G600      0.1778
     18  C18       36.4930   36.3300   18.6260 C.3   600  P6G600      0.2140
     19  O19       37.5720   37.0920   18.0720 O.3   600  P6G600     -0.2176
@<TRIPOS>BOND
     1     3     2    1
     2     3     4    1
     3     2     1    1
     4     5     4    1
     5     5     6    1
     6     7     6    1
     7     7     8    1
     8     8     9    1
     9     9    10    1
    10    10    11    1
    11    13    14    1
    12    13    12    1
    13    14    15    1
    14    11    12    2
    15    19    18    1
    16    18    17    1
    17    17    16    1
    18    15    16    1
