@<TRIPOS>MOLECULE
2fgb_NAP_A_1.pdb
 48 52 0 0 0
SMALL
GASTEIGER

@<TRIPOS>ATOM
      1  PA        26.6020   27.9550    2.8410 P.3   700  NAP700      0.2189
      2  O1A       25.1200   28.1790    2.8790 O.3   700  NAP700     -0.4371
      3  O2A       27.1690   26.5700    2.7030 O.2   700  NAP700     -0.5170
      4  O5B       27.1780   28.9060    1.6830 O.3   700  NAP700     -0.3112
      5  C5B       28.5650   28.8350    1.3460 C.3   700  NAP700      0.1813
      6  C4B       28.9030   29.9200    0.3440 C.3   700  NAP700      0.1820
      7  O4B       28.1280   29.7110   -0.8270 O.3   700  NAP700     -0.3136
      8  C3B       28.5270   31.3190    0.8180 C.3   700  NAP700      0.2157
      9  O3B       29.6240   31.9430    1.4900 O.3   700  NAP700     -0.2175
     10  C2B       28.0910   32.0420   -0.4530 C.3   700  NAP700      0.2314
     11  O2B       29.0070   33.0700   -0.8220 O.3   700  NAP700     -0.2630
     12  C1B       28.0620   30.9580   -1.5220 C.3   700  NAP700      0.3158
     13  N9A       26.8120   30.9430   -2.2970 N.pl3 700  NAP700     -0.1439
     14  C8A       25.5690   31.1660   -1.8400 C.3   700  NAP700      0.3377
     15  N7A       24.6900   31.0370   -2.8540 N.2   700  NAP700     -0.2095
     16  C5A       25.4100   30.6990   -3.9550 C.2   700  NAP700      0.2526
     17  C6A       25.0490   30.4470   -5.2680 C.2   700  NAP700      0.4393
     18  N6A       23.7590   30.4940   -5.6580 N.pl3 700  NAP700      0.2180
     19  N1A       26.0010   30.1410   -6.1760 N.2   700  NAP700      0.0021
     20  C2A       27.4220   30.0490   -5.8710 C.3   700  NAP700      0.5254
     21  N3A       27.7270   30.3310   -4.4790 N.2   700  NAP700     -0.0055
     22  C4A       26.7450   30.6400   -3.5910 C.2   700  NAP700      0.3518
     23  O3        27.2800   28.7110    4.1030 O.3   700  NAP700     -0.2703
     24  PN        27.3670   28.3520    5.6730 P.3   700  NAP700      0.2189
     25  O1N       27.5980   29.6620    6.3780 O.3   700  NAP700     -0.4371
     26  O2N       28.3240   27.2200    5.9070 O.2   700  NAP700     -0.5170
     27  O5D       25.9050   27.7930    6.0750 O.3   700  NAP700     -0.3112
     28  C5D       24.7360   28.6190    5.9710 C.3   700  NAP700      0.1813
     29  C4D       24.2490   29.1130    7.3300 C.3   700  NAP700      0.1799
     30  O4D       24.0220   28.0170    8.2190 O.3   700  NAP700     -0.3327
     31  C3D       25.1930   30.0100    8.1290 C.3   700  NAP700      0.2158
     32  O3D       25.2690   31.3510    7.6270 O.3   700  NAP700     -0.2175
     33  C2D       24.5900   29.9050    9.5110 C.3   700  NAP700      0.2309
     34  O2D       23.3680   30.6550    9.5120 O.3   700  NAP700     -0.2158
     35  C1D       24.2770   28.4100    9.5760 C.3   700  NAP700      0.2263
     36  N1N       25.3860   27.6080   10.1350 N.pl3 700  NAP700     -0.2787
     37  C2N       25.2210   27.0560   11.3450 C.3   700  NAP700      0.1244
     38  C3N       26.2220   26.2870   11.9300 C.2   700  NAP700      0.0544
     39  C7N       26.0070   25.6510   13.2690 C.2   700  NAP700      0.2818
     40  O7N       26.9800   25.2690   13.9080 O.2   700  NAP700     -0.2670
     41  N7N       24.7470   25.4760   13.6870 N.am  700  NAP700     -0.0839
     42  C4N       27.4180   26.0960   11.2430 C.2   700  NAP700      0.0033
     43  C5N       27.5820   26.6730    9.9860 C.2   700  NAP700      0.0157
     44  C6N       26.5380   27.4150    9.4440 C.2   700  NAP700      0.0633
     45  P2B       28.4440   34.5580   -1.1280 P.3   700  NAP700      0.5328
     46  O1X       28.0400   35.1350    0.2180 O.3   700  NAP700     -0.1145
     47  O2X       29.6620   35.2500   -1.7230 O.3   700  NAP700     -0.1145
     48  O3X       27.2830   34.3890   -2.0630 O.2   700  NAP700     -0.2224
@<TRIPOS>BOND
     1    19    20    1
     2    19    17    2
     3    20    21    1
     4    18    17    1
     5    17    16    1
     6    21    22    2
     7    16    22    1
     8    16    15    2
     9    22    13    1
    10    15    14    1
    11    13    14    1
    12    13    12    1
    13    48    45    2
    14    47    45    1
    15    12     7    1
    16    12    10    1
    17    45    11    1
    18    45    46    1
    19     7     6    1
    20    11    10    1
    21    10     8    1
    22     6     8    1
    23     6     5    1
    24     8     9    1
    25     5     4    1
    26     4     1    1
    27     3     1    2
    28     1     2    1
    29     1    23    1
    30    23    24    1
    31    24    26    2
    32    24    27    1
    33    24    25    1
    34    28    27    1
    35    28    29    1
    36    29    31    1
    37    29    30    1
    38    32    31    1
    39    31    33    1
    40    30    35    1
    41    44    43    2
    42    44    36    1
    43    33    34    1
    44    33    35    1
    45    35    36    1
    46    43    42    1
    47    36    37    1
    48    42    38    2
    49    37    38    1
    50    38    39    1
    51    39    41   am
    52    39    40    2
