@<TRIPOS>MOLECULE
2fge_III_D_1.pdb
 41 40 0 0 0
SMALL
GASTEIGER

@<TRIPOS>ATOM
      1  N         43.2080  171.2280    6.2000 N.3     1  ALA1       -0.1231
      2  CA        42.4660  170.1200    5.5210 C.3     1  ALA1        0.1694
      3  C         41.6190  169.3030    6.4990 C.2     1  ALA1        0.2592
      4  O         41.8350  169.3390    7.7140 O.2     1  ALA1       -0.2718
      5  CB        43.4300  169.2100    4.7580 C.3     1  ALA1        0.0304
      6  N         40.6420  168.5870    5.9490 N.am    2  ALA2       -0.1966
      7  CA        39.8200  167.6470    6.7010 C.3     2  ALA2        0.1728
      8  C         39.2340  166.6240    5.7350 C.2     2  ALA2        0.2616
      9  O         38.4010  166.9630    4.8890 O.2     2  ALA2       -0.2715
     10  CB        38.7100  168.3700    7.4660 C.3     2  ALA2        0.0334
     11  N         39.6990  165.3820    5.8450 N.am    3  LEU3       -0.1963
     12  CA        39.1650  164.2800    5.0550 C.3     3  LEU3        0.1728
     13  C         38.3590  163.3560    5.9610 C.2     3  LEU3        0.2617
     14  O         38.8750  162.8360    6.9570 O.2     3  LEU3       -0.2715
     15  CB        40.2850  163.5250    4.3370 C.3     3  LEU3        0.0311
     16  CG        40.9980  164.3340    3.2500 C.3     3  LEU3        0.0022
     17  CD1       42.4540  163.9520    3.1750 C.3     3  LEU3        0.0001
     18  CD2       40.3200  164.2160    1.8840 C.3     3  LEU3        0.0001
     19  N         37.0870  163.1720    5.6070 N.am    4  THR4       -0.1937
     20  CA        36.1260  162.4650    6.4510 C.3     4  THR4        0.2028
     21  C         35.8510  161.0440    5.9560 C.2     4  THR4        0.2642
     22  O         36.3010  160.6520    4.8750 O.2     4  THR4       -0.2714
     23  CB        34.7980  163.2690    6.6190 C.3     4  THR4        0.1808
     24  OG1       34.0570  163.2690    5.3910 O.3     4  THR4       -0.2208
     25  CG2       35.0820  164.7140    7.0380 C.3     4  THR4        0.0379
     26  N         35.1220  160.2810    6.7690 N.am    5  ARG5       -0.1963
     27  CA        34.8280  158.8760    6.4980 C.3     5  ARG5        0.1729
     28  C         33.4880  158.7240    5.7800 C.2     5  ARG5        0.2616
     29  O         33.3960  158.0240    4.7660 O.2     5  ARG5       -0.2715
     30  CB        34.8160  158.0820    7.8080 C.3     5  ARG5        0.0348
     31  CG        35.5610  156.7730    7.7500 C.3     5  ARG5        0.0492
     32  CD        34.6690  155.5810    7.4390 C.3     5  ARG5        0.2205
     33  NE        35.4980  154.4200    7.1040 N.pl3   5  ARG5       -0.0865
     34  CZ        35.1450  153.1410    7.2320 C.cat   5  ARG5        0.5346
     35  NH1       33.9500  152.7950    7.6990 N.pl3   5  ARG5        0.1354
     36  NH2       36.0070  152.1990    6.8890 N.pl3   5  ARG5        0.1354
     37  N         32.4600  159.3840    6.3190 N.am    6  ALA6       -0.1977
     38  CA        31.1090  159.3600    5.7520 C.3     6  ALA6        0.1597
     39  C         30.8590  160.5570    4.8240 C.2     6  ALA6        0.2287
     40  O         31.1800  161.7030    5.1540 O.2     6  ALA6       -0.2864
     41  CB        30.0580  159.3120    6.8680 C.3     6  ALA6        0.0319
@<TRIPOS>BOND
     1    18    16    1
     2    17    16    1
     3    16    15    1
     4    15    12    1
     5     5     2    1
     6    29    28    2
     7    39    40    2
     8    39    38    1
     9    22    21    2
    10     9     8    2
    11    12    11    1
    12    12    13    1
    13    24    23    1
    14     2     1    1
    15     2     3    1
    16    19    13   am
    17    19    20    1
    18     8    11   am
    19     8     7    1
    20    38    37    1
    21    38    41    1
    22    28    37   am
    23    28    27    1
    24     6     3   am
    25     6     7    1
    26    21    20    1
    27    21    26   am
    28    13    14    2
    29    20    23    1
    30    27    26    1
    31    27    30    1
    32     3     4    2
    33    23    25    1
    34     7    10    1
    35    36    34    1
    36    33    34    2
    37    33    32    1
    38    34    35    1
    39    32    31    1
    40    31    30    1
