@<TRIPOS>MOLECULE
2fgh_ATP_A_1.pdb
 31 33 0 0 0
SMALL
GASTEIGER

@<TRIPOS>ATOM
      1  PG         6.7930   38.1710  -38.6740 P.3   5380  ATP5380     0.5373
      2  O1G        5.3370   37.8700  -38.6720 O.2   5380  ATP5380    -0.2221
      3  O2G        7.0920   39.2770  -37.6200 O.3   5380  ATP5380    -0.1143
      4  O3G        7.6250   36.9150  -38.3580 O.3   5380  ATP5380    -0.1143
      5  PB         8.5480   38.2730  -40.8490 P.3   5380  ATP5380     0.2277
      6  O1B        8.8120   39.0460  -42.1100 O.2   5380  ATP5380    -0.5168
      7  O2B        8.6970   36.7490  -40.9970 O.3   5380  ATP5380    -0.4368
      8  O3B        7.1410   38.6860  -40.1690 O.3   5380  ATP5380    -0.2258
      9  PA        11.1500   37.9720  -40.1310 P.3   5380  ATP5380     0.2189
     10  O1A       11.5440   36.8390  -39.2460 O.3   5380  ATP5380    -0.4371
     11  O2A       11.3200   37.7440  -41.6430 O.2   5380  ATP5380    -0.5170
     12  O3A        9.6750   38.5830  -39.7400 O.3   5380  ATP5380    -0.2700
     13  O5'       11.9480   39.2810  -39.6440 O.3   5380  ATP5380    -0.3112
     14  C5'       11.8110   39.4960  -38.2320 C.3   5380  ATP5380     0.1813
     15  C4'       11.3560   40.8970  -37.8350 C.3   5380  ATP5380     0.1821
     16  O4'       12.4090   41.5590  -37.1480 O.3   5380  ATP5380    -0.3135
     17  C3'       11.0360   41.8360  -38.9750 C.3   5380  ATP5380     0.2184
     18  O3'       10.1400   42.8320  -38.4870 O.3   5380  ATP5380    -0.2174
     19  C2'       12.3700   42.3830  -39.4090 C.3   5380  ATP5380     0.2570
     20  O2'       12.3180   43.7130  -39.8640 O.3   5380  ATP5380    -0.2130
     21  C1'       13.1880   42.2300  -38.1380 C.3   5380  ATP5380     0.3186
     22  N9        14.4480   41.6060  -38.5830 N.pl3 5380  ATP5380    -0.1439
     23  C8        14.7480   40.6920  -39.5790 C.3   5380  ATP5380     0.3377
     24  N7        16.0980   40.5300  -39.6230 N.2   5380  ATP5380    -0.2095
     25  C5        16.6570   41.3470  -38.6830 C.2   5380  ATP5380     0.2526
     26  C6        17.9560   41.5830  -38.2880 C.2   5380  ATP5380     0.4393
     27  N6        18.9720   41.0810  -39.0010 N.pl3 5380  ATP5380     0.2180
     28  N1        18.1910   42.4930  -37.2750 N.2   5380  ATP5380     0.0021
     29  C2        17.1480   43.1500  -36.6630 C.3   5380  ATP5380     0.5254
     30  N3        15.8530   42.9180  -37.0410 N.2   5380  ATP5380    -0.0055
     31  C4        15.6290   42.0290  -38.0380 C.2   5380  ATP5380     0.3518
@<TRIPOS>BOND
     1     6     5    2
     2    11     9    2
     3     7     5    1
     4     5     8    1
     5     5    12    1
     6     8     1    1
     7     9    12    1
     8     9    13    1
     9     9    10    1
    10    20    19    1
    11    13    14    1
    12    24    23    1
    13    24    25    2
    14    23    22    1
    15    19    17    1
    16    19    21    1
    17    27    26    1
    18    17    18    1
    19    17    15    1
    20    25    26    1
    21    25    31    1
    22     1     2    2
    23     1     4    1
    24     1     3    1
    25    22    21    1
    26    22    31    1
    27    26    28    2
    28    14    15    1
    29    21    16    1
    30    31    30    2
    31    15    16    1
    32    28    29    1
    33    30    29    1
