@<TRIPOS>MOLECULE
2fgi_PD1_A_1.pdb
 38 40 0 0 0
SMALL
GASTEIGER

@<TRIPOS>ATOM
      1  C1         9.7300    6.0540   29.1360 C.3   1001  PD11001     0.0188
      2  C2        11.1620    5.7790   28.6910 C.3   1001  PD11001     0.0721
      3  C3        13.0390    4.6910   30.8380 C.3   1001  PD11001     0.0188
      4  C4        12.8670    4.0160   29.4650 C.3   1001  PD11001     0.0721
      5  C5        10.8880    3.3130   27.9900 C.3   1001  PD11001     0.0721
      6  C6        10.4530    3.8870   26.6560 C.3   1001  PD11001     0.0192
      7  C7         9.4540    2.9910   25.9730 C.3   1001  PD11001     0.0257
      8  C8         8.9500    3.6270   24.6840 C.3   1001  PD11001     0.1253
      9  C9         7.1310    3.0720   22.9050 C.1   1001  PD11001     0.1759
     10  C10        5.7400    2.2150   21.2950 C.2   1001  PD11001     0.1238
     11  C11        6.0240    3.3180   20.4860 C.2   1001  PD11001     0.1065
     12  C12        6.9000    4.3240   20.9760 C.1   1001  PD11001     0.1525
     13  C13        5.4770    3.4670   19.1980 C.2   1001  PD11001     0.0176
     14  C14        5.8210    4.5680   18.4330 C.2   1001  PD11001     0.0478
     15  C15        6.6830    5.4990   18.9790 C.2   1001  PD11001     0.2194
     16  C16        5.2980    4.6730   17.1530 C.ar  1001  PD11001     0.0099
     17  C17        5.8270    3.8790   16.1330 C.ar  1001  PD11001     0.0372
     18  C18        5.3200    3.9650   14.8510 C.ar  1001  PD11001     0.1418
     19  C19        4.2880    4.8070   14.5410 C.ar  1001  PD11001     0.0737
     20  C20        3.7620    5.5890   15.5520 C.ar  1001  PD11001     0.1418
     21  C21        4.2470    5.5340   16.8560 C.ar  1001  PD11001     0.0372
     22  C22        5.0810    2.5360   12.8020 C.3   1001  PD11001     0.2525
     23  C23        1.7620    6.2110   14.1600 C.3   1001  PD11001     0.2525
     24  C24        7.9120    7.6430   18.4980 C.2   1001  PD11001     0.3456
     25  C25        9.2370    8.8210   20.2280 C.3   1001  PD11001     0.0804
     26  C26       10.5680    8.7190   19.5510 C.3   1001  PD11001     0.0218
     27  C27        8.6280   10.1930   19.9490 C.3   1001  PD11001     0.0218
     28  C28        9.4340    8.6440   21.7060 C.3   1001  PD11001     0.0218
     29  N1        11.4990    4.3260   28.9210 N.3   1001  PD11001    -0.2727
     30  N2         7.7510    2.9590   24.1820 N.pl3 1001  PD11001    -0.1615
     31  N3         6.3230    2.0940   22.5420 N.2   1001  PD11001    -0.1673
     32  N4         7.4290    4.1450   22.1800 N.2   1001  PD11001    -0.2704
     33  N5         7.1900    5.3550   20.2030 N.2   1001  PD11001    -0.3219
     34  N6         7.0700    6.6520   18.2320 N.am  1001  PD11001    -0.1299
     35  N7         8.3600    7.7640   19.7500 N.am  1001  PD11001    -0.1903
     36  O1         5.8570    3.1510   13.8580 O.3   1001  PD11001    -0.4713
     37  O2         2.6890    6.4300   15.2610 O.3   1001  PD11001    -0.4713
     38  O3         8.2250    8.4490   17.6210 O.2   1001  PD11001    -0.2487
@<TRIPOS>BOND
     1    22    36    1
     2    36    18    1
     3    23    37    1
     4    19    18   ar
     5    19    20   ar
     6    18    17   ar
     7    37    20    1
     8    20    21   ar
     9    17    16   ar
    10    21    16   ar
    11    16    14    1
    12    38    24    2
    13    34    24   am
    14    34    15    1
    15    14    15    1
    16    14    13    2
    17    24    35   am
    18    15    33    2
    19    13    11    1
    20    26    25    1
    21    35    25    1
    22    27    25    1
    23    33    12    2
    24    25    28    1
    25    11    12    1
    26    11    10    2
    27    12    32    2
    28    10    31    1
    29    32     9    2
    30    31     9    2
    31     9    30    1
    32    30     8    1
    33     8     7    1
    34     7     6    1
    35     6     5    1
    36     5    29    1
    37     2    29    1
    38     2     1    1
    39    29     4    1
    40     4     3    1
