@<TRIPOS>MOLECULE
2fgj_ATP_A_1.pdb
 31 33 0 0 0
SMALL
GASTEIGER

@<TRIPOS>ATOM
      1  PG         3.3250   -6.0810   -2.4670 P.3   800  ATP800      0.5373
      2  O1G        3.9410   -7.2070   -1.6680 O.3   800  ATP800     -0.1143
      3  O2G        1.8180   -5.9980   -2.4490 O.2   800  ATP800     -0.2221
      4  O3G        3.9940   -4.7510   -2.2490 O.3   800  ATP800     -0.1143
      5  PB         3.3940   -5.7920   -5.3570 P.3   800  ATP800      0.2277
      6  O1B        2.1310   -6.2780   -6.0220 O.2   800  ATP800     -0.5168
      7  O2B        3.6190   -4.3030   -5.1790 O.3   800  ATP800     -0.4368
      8  O3B        3.6740   -6.5770   -3.9690 O.3   800  ATP800     -0.2258
      9  PA         5.8740   -5.7150   -6.7740 P.3   800  ATP800      0.2189
     10  O1A        6.5990   -5.0240   -5.6500 O.3   800  ATP800     -0.4371
     11  O2A        5.4060   -4.9370   -7.9820 O.2   800  ATP800     -0.5170
     12  O3A        4.5900   -6.4810   -6.1860 O.3   800  ATP800     -0.2700
     13  O5'        6.7850   -6.9560   -7.2600 O.3   800  ATP800     -0.3112
     14  C5'        6.1960   -8.0720   -7.9370 C.3   800  ATP800      0.1813
     15  C4'        7.2430   -9.1420   -8.2310 C.3   800  ATP800      0.1821
     16  O4'        8.4400   -8.5500   -8.7410 O.3   800  ATP800     -0.3135
     17  C3'        7.6310   -9.9490   -6.9960 C.3   800  ATP800      0.2184
     18  O3'        7.6130  -11.3360   -7.3450 O.3   800  ATP800     -0.2174
     19  C2'        9.0410   -9.5130   -6.6560 C.3   800  ATP800      0.2570
     20  O2'        9.8600  -10.6150   -6.2680 O.3   800  ATP800     -0.2130
     21  C1'        9.5720   -8.9570   -7.9580 C.3   800  ATP800      0.3186
     22  N9        10.4800   -7.8100   -7.7350 N.pl3 800  ATP800     -0.1439
     23  C8        10.1630   -6.6120   -7.2050 C.3   800  ATP800      0.3377
     24  N7        11.2470   -5.7950   -7.1700 N.2   800  ATP800     -0.2095
     25  C5        12.2830   -6.4790   -7.6990 C.2   800  ATP800      0.2526
     26  C6        13.7200   -6.2200   -7.9730 C.2   800  ATP800      0.4393
     27  N6        14.2860   -5.0250   -7.6630 N.pl3 800  ATP800      0.2180
     28  N1        14.4480   -7.2190   -8.5420 N.2   800  ATP800      0.0021
     29  C2        13.9070   -8.4200   -8.8570 C.3   800  ATP800      0.5254
     30  N3        12.6110   -8.7250   -8.6370 N.2   800  ATP800     -0.0055
     31  C4        11.7690   -7.8110   -8.0710 C.2   800  ATP800      0.3518
@<TRIPOS>BOND
     1    29    30    1
     2    29    28    1
     3    16    15    1
     4    16    21    1
     5    30    31    2
     6    28    26    2
     7    15    14    1
     8    15    17    1
     9    31    22    1
    10    31    25    1
    11    11     9    2
    12    26    25    1
    13    26    27    1
    14    21    22    1
    15    21    19    1
    16    14    13    1
    17    22    23    1
    18    25    24    2
    19    18    17    1
    20    13     9    1
    21    23    24    1
    22    17    19    1
    23     9    12    1
    24     9    10    1
    25    19    20    1
    26    12     5    1
    27     6     5    2
    28     5     7    1
    29     5     8    1
    30     8     1    1
    31     1     3    2
    32     1     4    1
    33     1     2    1
