@<TRIPOS>MOLECULE
2fgk_ATP_A_1.pdb
 31 33 0 0 0
SMALL
GASTEIGER

@<TRIPOS>ATOM
      1  PG        -4.9970    4.4250   -2.6040 P.3   800  ATP800      0.5373
      2  O1G       -5.6850    5.6030   -1.7640 O.3   800  ATP800     -0.1143
      3  O2G       -3.4270    4.7650   -2.6650 O.2   800  ATP800     -0.2221
      4  O3G       -5.2730    3.1000   -1.9670 O.3   800  ATP800     -0.1143
      5  PB        -5.1730    3.7870   -5.3880 P.3   800  ATP800      0.2277
      6  O1B       -3.9850    4.3180   -6.1200 O.2   800  ATP800     -0.5168
      7  O2B       -5.2320    2.3350   -5.0450 O.3   800  ATP800     -0.4368
      8  O3B       -5.5290    4.6750   -4.0890 O.3   800  ATP800     -0.2258
      9  PA        -7.7730    3.3480   -6.4360 P.3   800  ATP800      0.2189
     10  O1A       -8.2600    2.7200   -5.1770 O.3   800  ATP800     -0.4371
     11  O2A       -7.5010    2.5030   -7.6320 O.2   800  ATP800     -0.5170
     12  O3A       -6.4830    4.2740   -6.1680 O.3   800  ATP800     -0.2700
     13  O5'       -8.7870    4.5180   -6.8330 O.3   800  ATP800     -0.3112
     14  C5'       -8.4030    5.4640   -7.8460 C.3   800  ATP800      0.1813
     15  C4'       -9.6040    6.3150   -8.2690 C.3   800  ATP800      0.1821
     16  O4'      -10.7930    5.4710   -8.4620 O.3   800  ATP800     -0.3135
     17  C3'       -9.9370    7.3030   -7.1520 C.3   800  ATP800      0.2184
     18  O3'      -10.2280    8.5590   -7.7560 O.3   800  ATP800     -0.2174
     19  C2'      -11.1910    6.7240   -6.5140 C.3   800  ATP800      0.2570
     20  O2'      -12.0230    7.7640   -6.0360 O.3   800  ATP800     -0.2130
     21  C1'      -11.8750    6.0250   -7.6790 C.3   800  ATP800      0.3186
     22  N9       -12.6080    4.8320   -7.2180 N.pl3 800  ATP800     -0.1439
     23  C8       -12.0770    3.8100   -6.5470 C.3   800  ATP800      0.3377
     24  N7       -13.0230    2.9040   -6.3090 N.2   800  ATP800     -0.2095
     25  C5       -14.1620    3.3410   -6.8350 C.2   800  ATP800      0.2526
     26  C6       -15.4610    2.8280   -6.8990 C.2   800  ATP800      0.4393
     27  N6       -15.7510    1.6470   -6.3510 N.pl3 800  ATP800      0.2180
     28  N1       -16.4140    3.5470   -7.5250 N.2   800  ATP800      0.0021
     29  C2       -16.1250    4.7170   -8.0760 C.3   800  ATP800      0.5254
     30  N3       -14.9020    5.2300   -8.0320 N.2   800  ATP800     -0.0055
     31  C4       -13.9010    4.5710   -7.4170 C.2   800  ATP800      0.3518
@<TRIPOS>BOND
     1    16    15    1
     2    16    21    1
     3    15    14    1
     4    15    17    1
     5    29    30    1
     6    29    28    1
     7    30    31    2
     8    14    13    1
     9    18    17    1
    10    21    22    1
    11    21    19    1
    12    11     9    2
    13    28    26    2
    14    31    22    1
    15    31    25    1
    16    22    23    1
    17    17    19    1
    18    26    25    1
    19    26    27    1
    20    25    24    2
    21    13     9    1
    22    23    24    1
    23    19    20    1
    24     9    12    1
    25     9    10    1
    26    12     5    1
    27     6     5    2
    28     5     7    1
    29     5     8    1
    30     8     1    1
    31     3     1    2
    32     1     4    1
    33     1     2    1
