@<TRIPOS>MOLECULE
2fgl_LXC_B_1.pdb
 10 10 0 0 0
SMALL
GASTEIGER

@<TRIPOS>ATOM
      1  C5        -3.8290  -10.5490   38.5730 C.3   708  LXC708      0.1804
      2  O5        -3.7510   -9.2050   38.1360 O.3   708  LXC708     -0.3237
      3  C1        -2.9950   -9.0270   36.9630 C.3   708  LXC708      0.3024
      4  O1        -2.9790   -7.6900   36.5970 O.3   708  LXC708     -0.1869
      5  C2        -3.5510   -9.9100   35.8410 C.3   708  LXC708      0.2434
      6  O2        -2.8420   -9.7710   34.6580 O.3   708  LXC708     -0.2148
      7  C3        -3.5530  -11.3620   36.2990 C.3   708  LXC708      0.2199
      8  O3        -3.9820  -12.2490   35.3090 O.3   708  LXC708     -0.2174
      9  C4        -4.4000  -11.4620   37.4810 C.3   708  LXC708      0.2143
     10  O4        -4.4820  -12.7780   37.9020 O.3   708  LXC708     -0.2176
@<TRIPOS>BOND
     1     6     5    1
     2     8     7    1
     3     5     7    1
     4     5     3    1
     5     7     9    1
     6     4     3    1
     7     3     2    1
     8     9    10    1
     9     9     1    1
    10     2     1    1
