@<TRIPOS>MOLECULE
2fgl_XYS_A_1.pdb
 10 10 0 0 0
SMALL
GASTEIGER

@<TRIPOS>ATOM
      1  C1        -7.4750   -3.3000    9.7960 C.3   700  XYS700      0.3024
      2  C2        -8.1610   -2.0260   10.4110 C.3   700  XYS700      0.2434
      3  C3        -7.4160   -0.7580   10.0470 C.3   700  XYS700      0.2199
      4  C4        -5.8970   -0.9870   10.2420 C.3   700  XYS700      0.2143
      5  C5        -5.4410   -2.2140    9.3490 C.3   700  XYS700      0.1804
      6  O1        -8.5030   -4.0010    9.2250 O.3   700  XYS700     -0.1869
      7  O2        -8.2650   -2.0970   11.7950 O.3   700  XYS700     -0.2148
      8  O3        -7.8930    0.3040   10.7900 O.3   700  XYS700     -0.2174
      9  O4        -5.1890    0.1570    9.9190 O.3   700  XYS700     -0.2176
     10  O5        -6.5140   -2.9340    8.8220 O.3   700  XYS700     -0.3237
@<TRIPOS>BOND
     1    10     5    1
     2    10     1    1
     3     6     1    1
     4     5     4    1
     5     1     2    1
     6     9     4    1
     7     3     4    1
     8     3     2    1
     9     3     8    1
    10     2     7    1
