@<TRIPOS>MOLECULE
2fgu_QNC_A_1.pdb
 12 13 0 0 0
SMALL
GASTEIGER

@<TRIPOS>ATOM
      1  C         19.1640   -6.3060   12.6430 C.2   504  QNC504      0.2619
      2  O         18.9080   -5.7980   11.5630 O.2   504  QNC504     -0.2806
      3  N1        20.3730   -8.1250   13.9490 N.2   504  QNC504     -0.4026
      4  C2        20.0690   -7.5100   12.7740 C.2   504  QNC504      0.1553
      5  C3        20.6240   -7.9900   11.5970 C.3   504  QNC504      0.0885
      6  C4        21.4760   -9.0960   11.6080 C.2   504  QNC504     -0.0160
      7  C5        22.6080  -10.8350   12.8140 C.ar  504  QNC504      0.0022
      8  C6        22.9060  -11.4610   14.0210 C.ar  504  QNC504      0.0002
      9  C7        22.3470  -10.9580   15.1950 C.ar  504  QNC504      0.0026
     10  C8        21.5010   -9.8480   15.1770 C.ar  504  QNC504      0.0320
     11  C4A       21.7700   -9.7180   12.8060 C.ar  504  QNC504      0.0257
     12  C8A       21.1920   -9.2140   13.9740 C.ar  504  QNC504      0.1308
@<TRIPOS>BOND
     1     2     1    2
     2     5     6    1
     3     5     4    1
     4     6    11    2
     5     1     4    1
     6     4     3    2
     7    11     7   ar
     8    11    12   ar
     9     7     8   ar
    10     3    12    2
    11    12    10   ar
    12     8     9   ar
    13    10     9   ar
