@<TRIPOS>MOLECULE
2fgu_HPH_A_1.pdb
 11 11 0 0 0
SMALL
GASTEIGER

@<TRIPOS>ATOM
      1  C         19.8720   -0.5220   14.6250 C.3   506  HPH506      0.2013
      2  O         20.1260   -0.0890   13.3910 O.3   506  HPH506     -0.2188
      3  CA        20.3290   -1.9250   14.9090 C.3   506  HPH506      0.1290
      4  N         19.4580   -2.9430   14.3440 N.3   506  HPH506     -0.1298
      5  CB        21.7890   -2.0460   14.4370 C.3   506  HPH506      0.0480
      6  CG        22.2840   -3.4580   14.6330 C.ar  506  HPH506     -0.0206
      7  CD1       22.6440   -3.9130   15.9000 C.ar  506  HPH506     -0.0042
      8  CD2       22.3680   -4.3210   13.5470 C.ar  506  HPH506     -0.0042
      9  CE1       23.0740   -5.2310   16.0740 C.ar  506  HPH506     -0.0003
     10  CE2       22.7900   -5.6400   13.7200 C.ar  506  HPH506     -0.0003
     11  CZ        23.1510   -6.0970   14.9860 C.ar  506  HPH506     -0.0000
@<TRIPOS>BOND
     1     2     1    1
     2     8    10   ar
     3     8     6   ar
     4    10    11   ar
     5     4     3    1
     6     5     6    1
     7     5     3    1
     8     1     3    1
     9     6     7   ar
    10    11     9   ar
    11     7     9   ar
