@<TRIPOS>MOLECULE
2fgu_DIQ_A_1.pdb
 13 14 0 0 0
SMALL
GASTEIGER

@<TRIPOS>ATOM
      1  N1        19.3940    0.4580   16.7920 N.3   507  DIQ507     -0.2664
      2  CM        20.1280    0.3900   15.5800 C.3   507  DIQ507      0.0899
      3  C2        20.1420    1.2230   17.8070 C.3   507  DIQ507      0.1231
      4  C         21.4190    0.5760   18.2560 C.2   507  DIQ507      0.2230
      5  O         21.4430   -0.6380   18.3530 O.2   507  DIQ507     -0.2868
      6  C3        19.3380    1.4600   19.0880 C.3   507  DIQ507      0.0240
      7  C3A       17.9740    2.1090   18.8350 C.3   507  DIQ507      0.0031
      8  C4        17.1370    2.1060   20.1120 C.3   507  DIQ507      0.0001
      9  C5        16.6680    0.6980   20.4520 C.3   507  DIQ507      0.0000
     10  C6        15.9750    0.0470   19.2650 C.3   507  DIQ507      0.0000
     11  C7        16.9850   -0.0630   18.1320 C.3   507  DIQ507      0.0014
     12  C7A       17.3070    1.3580   17.7030 C.3   507  DIQ507      0.0161
     13  C8        18.2120    1.2710   16.4990 C.3   507  DIQ507      0.0724
@<TRIPOS>BOND
     1     2     1    1
     2    13     1    1
     3    13    12    1
     4     1     3    1
     5    12    11    1
     6    12     7    1
     7     3     4    1
     8     3     6    1
     9    11    10    1
    10     4     5    2
    11     7     6    1
    12     7     8    1
    13    10     9    1
    14     8     9    1
