@<TRIPOS>MOLECULE
2fgv_DIQ_A_1.pdb
 13 14 0 0 0
SMALL
GASTEIGER

@<TRIPOS>ATOM
      1  N1        19.3010    0.7580   17.0120 N.3   511  DIQ511     -0.2664
      2  CM        20.0660    0.6710   15.8190 C.3   511  DIQ511      0.0899
      3  C2        20.0680    1.4420   18.0620 C.3   511  DIQ511      0.1231
      4  C         21.3690    0.7550   18.3770 C.2   511  DIQ511      0.2230
      5  O         21.4120   -0.4620   18.5070 O.2   511  DIQ511     -0.2868
      6  C3        19.2850    1.5310   19.3710 C.3   511  DIQ511      0.0240
      7  C3A       17.9750    2.2900   19.2090 C.3   511  DIQ511      0.0031
      8  C4        17.1590    2.2740   20.5010 C.3   511  DIQ511      0.0001
      9  C5        16.4760    0.9420   20.7850 C.3   511  DIQ511      0.0000
     10  C6        15.6610    0.5000   19.5780 C.3   511  DIQ511      0.0000
     11  C7        16.5840    0.3680   18.3720 C.3   511  DIQ511      0.0014
     12  C7A       17.2210    1.7140   18.0180 C.3   511  DIQ511      0.0161
     13  C8        18.0790    1.5410   16.7690 C.3   511  DIQ511      0.0724
@<TRIPOS>BOND
     1     2     1    1
     2    13     1    1
     3    13    12    1
     4     1     3    1
     5    12    11    1
     6    12     7    1
     7     3     4    1
     8     3     6    1
     9    11    10    1
    10     4     5    2
    11     7     6    1
    12     7     8    1
    13    10     9    1
    14     8     9    1
