@<TRIPOS>MOLECULE
2fgv_HPH_A_1.pdb
 11 11 0 0 0
SMALL
GASTEIGER

@<TRIPOS>ATOM
      1  C         19.7960   -0.2620   14.8820 C.3   510  HPH510      0.2013
      2  O         19.9750    0.1130   13.6100 O.3   510  HPH510     -0.2188
      3  CA        20.1830   -1.6790   15.2030 C.3   510  HPH510      0.1290
      4  N         19.3300   -2.6650   14.5610 N.3   510  HPH510     -0.1298
      5  CB        21.6410   -1.8640   14.7870 C.3   510  HPH510      0.0480
      6  CG        22.1010   -3.3000   14.8710 C.ar  510  HPH510     -0.0206
      7  CD1       22.4900   -3.8380   16.0920 C.ar  510  HPH510     -0.0042
      8  CD2       22.1450   -4.0690   13.7140 C.ar  510  HPH510     -0.0042
      9  CE1       22.9100   -5.1640   16.1660 C.ar  510  HPH510     -0.0003
     10  CE2       22.5680   -5.3930   13.7920 C.ar  510  HPH510     -0.0003
     11  CZ        22.9490   -5.9360   15.0130 C.ar  510  HPH510     -0.0000
@<TRIPOS>BOND
     1     2     1    1
     2     8    10   ar
     3     8     6   ar
     4    10    11   ar
     5     4     3    1
     6     5     6    1
     7     5     3    1
     8     6     7   ar
     9     1     3    1
    10    11     9   ar
    11     7     9   ar
