@<TRIPOS>MOLECULE
2fgv_QNC_A_1.pdb
 12 13 0 0 0
SMALL
GASTEIGER

@<TRIPOS>ATOM
      1  C         19.1110   -6.2710   12.8630 C.2   508  QNC508      0.2619
      2  O         18.8700   -5.7580   11.7800 O.2   508  QNC508     -0.2806
      3  N1        20.1670   -8.0980   14.1680 N.2   508  QNC508     -0.4026
      4  C2        19.9340   -7.5150   12.9700 C.2   508  QNC508      0.1553
      5  C3        20.4480   -8.0640   11.8050 C.3   508  QNC508      0.0885
      6  C4        21.2080   -9.2210   11.8830 C.2   508  QNC508     -0.0160
      7  C5        22.2110  -10.9660   13.1750 C.ar  508  QNC508      0.0022
      8  C6        22.4580  -11.5700   14.3980 C.ar  508  QNC508      0.0002
      9  C7        21.9330  -10.9940   15.5470 C.ar  508  QNC508      0.0026
     10  C8        21.1660   -9.8340   15.4800 C.ar  508  QNC508      0.0320
     11  C4A       21.4460   -9.8060   13.1130 C.ar  508  QNC508      0.0257
     12  C8A       20.9140   -9.2240   14.2560 C.ar  508  QNC508      0.1308
@<TRIPOS>BOND
     1     2     1    2
     2     5     6    1
     3     5     4    1
     4     6    11    2
     5     1     4    1
     6     4     3    2
     7    11     7   ar
     8    11    12   ar
     9     7     8   ar
    10     3    12    2
    11    12    10   ar
    12     8     9   ar
    13    10     9   ar
