@<TRIPOS>MOLECULE
2fh5_GTP_B_1.pdb
 32 34 0 0 0
SMALL
GASTEIGER

@<TRIPOS>ATOM
      1  PG        30.4970   45.3320   33.1560 P.3   301  GTP301      0.5373
      2  O1G       31.4090   45.6510   34.2390 O.3   301  GTP301     -0.1143
      3  O2G       29.0840   45.7220   33.4440 O.3   301  GTP301     -0.1143
      4  O3G       30.6050   43.8400   32.7730 O.2   301  GTP301     -0.2221
      5  O3B       31.0640   46.3450   31.8790 O.3   301  GTP301     -0.2258
      6  PB        30.4700   46.4470   30.4710 P.3   301  GTP301      0.2277
      7  O1B       31.1410   45.4800   29.5510 O.2   301  GTP301     -0.5168
      8  O2B       28.9610   46.3110   30.4200 O.3   301  GTP301     -0.4368
      9  O3A       30.9720   47.9160   30.0930 O.3   301  GTP301     -0.2700
     10  PA        30.1420   49.1760   29.6430 P.3   301  GTP301      0.2189
     11  O1A       29.2270   48.8780   28.5860 O.2   301  GTP301     -0.5170
     12  O2A       29.4690   49.8060   30.8310 O.3   301  GTP301     -0.4371
     13  O5'       31.3500   50.0160   29.0560 O.3   301  GTP301     -0.3112
     14  C5'       32.3770   50.4250   29.9430 C.3   301  GTP301      0.1813
     15  C4'       32.8990   51.7950   29.5120 C.3   301  GTP301      0.1799
     16  O4'       33.4400   51.7450   28.1740 O.3   301  GTP301     -0.3326
     17  C3'       31.8250   52.8860   29.4550 C.3   301  GTP301      0.2158
     18  O3'       32.3500   54.1560   29.9370 O.3   301  GTP301     -0.2175
     19  C2'       31.4650   52.9350   27.9980 C.3   301  GTP301      0.2310
     20  O2'       30.7900   54.1340   27.5650 O.3   301  GTP301     -0.2158
     21  C1'       32.7940   52.6610   27.2930 C.3   301  GTP301      0.2293
     22  N9        32.6730   51.9900   26.0110 N.pl3 301  GTP301     -0.2354
     23  C8        31.8950   50.8600   25.7350 C.3   301  GTP301      0.2246
     24  N7        32.0250   50.5090   24.4580 N.2   301  GTP301     -0.2322
     25  C5        32.9170   51.4350   23.8750 C.2   301  GTP301      0.2182
     26  C6        33.4480   51.5890   22.5810 C.1   301  GTP301      0.2372
     27  O6        33.2670   50.9210   21.5810 O.2   301  GTP301     -0.2069
     28  N1        34.3380   52.6760   22.3650 N.2   301  GTP301     -0.2485
     29  C2        34.6910   53.5690   23.3600 C.1   301  GTP301      0.2531
     30  N2        35.5360   54.5940   23.0610 N.pl3 301  GTP301     -0.0226
     31  N3        34.1810   53.4080   24.6100 N.2   301  GTP301     -0.3074
     32  C4        33.3040   52.3560   24.8510 C.2   301  GTP301      0.2300
@<TRIPOS>BOND
     1    27    26    2
     2    28    26    2
     3    28    29    2
     4    26    25    1
     5    30    29    1
     6    29    31    2
     7    25    24    2
     8    25    32    1
     9    24    23    1
    10    31    32    2
    11    32    22    1
    12    23    22    1
    13    22    21    1
    14    21    19    1
    15    21    16    1
    16    20    19    1
    17    19    17    1
    18    16    15    1
    19    11    10    2
    20    13    10    1
    21    13    14    1
    22    17    15    1
    23    17    18    1
    24    15    14    1
    25     7     6    2
    26    10     9    1
    27    10    12    1
    28     9     6    1
    29     8     6    1
    30     6     5    1
    31     5     1    1
    32     4     1    2
    33     1     3    1
    34     1     2    1
