@<TRIPOS>MOLECULE
2fh6_GLC_A_1.pdb
 12 12 0 0 0
SMALL
GASTEIGER

@<TRIPOS>ATOM
      1  C1        24.1840   31.6620   92.5820 C.3   1097  GLC1097     0.3024
      2  C2        24.5300   33.0120   93.2280 C.3   1097  GLC1097     0.2434
      3  C3        23.9230   33.1110   94.6370 C.3   1097  GLC1097     0.2199
      4  C4        22.4240   32.7950   94.5900 C.3   1097  GLC1097     0.2144
      5  C5        22.2160   31.4310   93.9320 C.3   1097  GLC1097     0.1836
      6  C6        20.7530   31.0530   93.8190 C.3   1097  GLC1097     0.2142
      7  O1        24.7870   30.6370   93.2930 O.3   1097  GLC1097    -0.1869
      8  O2        25.9410   33.1400   93.3080 O.3   1097  GLC1097    -0.2148
      9  O3        24.1210   34.4180   95.1590 O.3   1097  GLC1097    -0.2174
     10  O4        21.8900   32.7820   95.9060 O.3   1097  GLC1097    -0.2176
     11  O5        22.7640   31.4430   92.5960 O.3   1097  GLC1097    -0.3236
     12  O6        20.0810   31.8820   92.8850 O.3   1097  GLC1097    -0.2176
@<TRIPOS>BOND
     1     1    11    1
     2     1     2    1
     3     1     7    1
     4    11     5    1
     5    12     6    1
     6     2     8    1
     7     2     3    1
     8     6     5    1
     9     5     4    1
    10     4     3    1
    11     4    10    1
    12     3     9    1
