@<TRIPOS>MOLECULE
2fh8_BGC_A_1.pdb
 12 12 0 0 0
SMALL
GASTEIGER

@<TRIPOS>ATOM
      1  C2        27.0260   54.5910   94.7550 C.3   1098  BGC1098     0.2434
      2  C3        25.7170   53.9230   95.1760 C.3   1098  BGC1098     0.2199
      3  C4        24.5270   54.6850   94.5860 C.3   1098  BGC1098     0.2144
      4  C5        24.6830   54.8550   93.0630 C.3   1098  BGC1098     0.1836
      5  C6        23.6170   55.7810   92.5080 C.3   1098  BGC1098     0.2142
      6  C1        27.0810   54.7030   93.2290 C.3   1098  BGC1098     0.3024
      7  O1        28.2390   55.3660   92.8520 O.3   1098  BGC1098    -0.1869
      8  O2        28.1270   53.8250   95.2230 O.3   1098  BGC1098    -0.2148
      9  O3        25.6240   53.9100   96.5940 O.3   1098  BGC1098    -0.2174
     10  O4        23.3220   53.9870   94.8670 O.3   1098  BGC1098    -0.2176
     11  O5        25.9620   55.4620   92.7490 O.3   1098  BGC1098    -0.3236
     12  O6        23.7350   57.0660   93.1500 O.3   1098  BGC1098    -0.2176
@<TRIPOS>BOND
     1     5     4    1
     2     5    12    1
     3    11     4    1
     4    11     6    1
     5     7     6    1
     6     4     3    1
     7     6     1    1
     8     3    10    1
     9     3     2    1
    10     1     2    1
    11     1     8    1
    12     2     9    1
