@<TRIPOS>MOLECULE
2fh8_GLC_A_1.pdb
 11 11 0 0 0
SMALL
GASTEIGER

@<TRIPOS>ATOM
      1  C1        23.0530   58.0880   92.4810 C.3   1097  GLC1097     0.1777
      2  C2        23.4900   59.4440   93.0530 C.3   1097  GLC1097     0.2141
      3  C3        23.0170   59.5750   94.5020 C.3   1097  GLC1097     0.2173
      4  C4        21.5040   59.3440   94.5910 C.3   1097  GLC1097     0.2142
      5  C5        21.1320   58.0060   93.9420 C.3   1097  GLC1097     0.1810
      6  C6        19.6360   57.7950   93.8670 C.3   1097  GLC1097     0.2141
      7  O2        24.9070   59.5500   93.0030 O.3   1097  GLC1097    -0.2176
      8  O3        23.3370   60.8670   94.9950 O.3   1097  GLC1097    -0.2175
      9  O4        21.0980   59.3390   95.9520 O.3   1097  GLC1097    -0.2176
     10  O5        21.6380   57.9500   92.5900 O.3   1097  GLC1097    -0.3481
     11  O6        19.0790   58.4770   92.7530 O.3   1097  GLC1097    -0.2176
@<TRIPOS>BOND
     1     1    10    1
     2     1     2    1
     3    10     5    1
     4    11     6    1
     5     7     2    1
     6     2     3    1
     7     6     5    1
     8     5     4    1
     9     3     4    1
    10     3     8    1
    11     4     9    1
