@<TRIPOS>MOLECULE
2fhb_GLC_A_1.pdb
 11 11 0 0 0
SMALL
GASTEIGER

@<TRIPOS>ATOM
      1  C1        29.8220   24.4160   94.9220 C.3   1093  GLC1093     0.1777
      2  C2        29.8580   25.8180   94.2940 C.3   1093  GLC1093     0.2141
      3  C3        29.0780   26.8050   95.1640 C.3   1093  GLC1093     0.2173
      4  C4        27.6510   26.2900   95.3760 C.3   1093  GLC1093     0.2142
      5  C5        27.6930   24.8750   95.9750 C.3   1093  GLC1093     0.1810
      6  C6        26.3190   24.2420   96.1260 C.3   1093  GLC1093     0.2141
      7  O2        31.2020   26.2530   94.1580 O.3   1093  GLC1093    -0.2176
      8  O3        29.0410   28.0750   94.5320 O.3   1093  GLC1093    -0.2175
      9  O4        26.9530   27.1660   96.2510 O.3   1093  GLC1093    -0.2176
     10  O5        28.4720   24.0000   95.1270 O.3   1093  GLC1093    -0.3481
     11  O6        25.3930   24.7710   95.1870 O.3   1093  GLC1093    -0.2176
@<TRIPOS>BOND
     1     7     2    1
     2     2     1    1
     3     2     3    1
     4     8     3    1
     5     1    10    1
     6    10     5    1
     7     3     4    1
     8    11     6    1
     9     4     5    1
    10     4     9    1
    11     5     6    1
