@<TRIPOS>MOLECULE
2fhc_GLC_A_1.pdb
 11 11 0 0 0
SMALL
GASTEIGER

@<TRIPOS>ATOM
      1  C1        48.0330   26.1730  -95.3730 C.3   1092  GLC1092     0.1777
      2  C2        48.0440   27.6980  -95.4900 C.3   1092  GLC1092     0.2141
      3  C3        48.3640   28.1030  -96.9300 C.3   1092  GLC1092     0.2173
      4  C4        49.6900   27.4700  -97.3690 C.3   1092  GLC1092     0.2142
      5  C5        49.6580   25.9490  -97.1430 C.3   1092  GLC1092     0.1810
      6  C6        50.9920   25.2750  -97.3990 C.3   1092  GLC1092     0.2141
      7  O2        46.7810   28.2210  -95.1060 O.3   1092  GLC1092    -0.2176
      8  O3        48.4490   29.5180  -97.0230 O.3   1092  GLC1092    -0.2175
      9  O4        49.9090   27.7390  -98.7450 O.3   1092  GLC1092    -0.2176
     10  O5        49.2920   25.6500  -95.7770 O.3   1092  GLC1092    -0.3481
     11  O6        50.8640   23.8570  -97.3610 O.3   1092  GLC1092    -0.2176
@<TRIPOS>BOND
     1     9     4    1
     2     6    11    1
     3     6     5    1
     4     4     5    1
     5     4     3    1
     6     5    10    1
     7     8     3    1
     8     3     2    1
     9    10     1    1
    10     2     1    1
    11     2     7    1
