@<TRIPOS>MOLECULE
2fhe_GSH_A_1.pdb
 20 19 0 0 0
SMALL
GASTEIGER

@<TRIPOS>ATOM
      1  N1        19.2390   12.6300   23.4880 N.3   233  GSH233     -0.1208
      2  CA1       19.9910   11.3680   23.2650 C.3   233  GSH233      0.1948
      3  C1        20.7940   11.3790   21.9580 C.2   233  GSH233      0.3819
      4  O11       21.7790   10.6060   21.8740 O.co2 233  GSH233     -0.2441
      5  O12       20.4410   12.1600   21.0430 O.co2 233  GSH233     -0.2441
      6  CB1       19.0370   10.1720   23.2710 C.3   233  GSH233      0.0402
      7  CG1       19.7550    8.8560   23.5350 C.3   233  GSH233      0.0889
      8  CD1       18.8210    7.6720   23.6020 C.2   233  GSH233      0.2418
      9  OE1       17.6390    7.8230   23.9010 O.2   233  GSH233     -0.2733
     10  N2        19.3520    6.4870   23.3200 N.am  233  GSH233     -0.1968
     11  CA2       18.5640    5.2650   23.3480 C.3   233  GSH233      0.1843
     12  C2        19.2260    4.2200   24.2430 C.2   233  GSH233      0.2627
     13  O2        19.0460    3.0220   24.0470 O.2   233  GSH233     -0.2714
     14  CB2       18.4090    4.7090   21.9290 C.3   233  GSH233      0.0997
     15  SG2       17.9220    5.9180   20.6750 S.3   233  GSH233     -0.0797
     16  N3        19.9980    4.6740   25.2250 N.am  233  GSH233     -0.1917
     17  CA3       20.6610    3.7350   26.1110 C.3   233  GSH233      0.2285
     18  C3        20.5450    4.1120   27.5740 C.2   233  GSH233      0.3865
     19  O31       19.7710    5.0430   27.8790 O.co2 233  GSH233     -0.2437
     20  O32       21.2300    3.4800   28.4110 O.co2 233  GSH233     -0.2437
@<TRIPOS>BOND
     1    15    14    1
     2     5     3   ar
     3     4     3   ar
     4    14    11    1
     5     3     2    1
     6     2     6    1
     7     2     1    1
     8     6     7    1
     9    10    11    1
    10    10     8   am
    11    11    12    1
    12     7     8    1
    13     8     9    2
    14    13    12    2
    15    12    16   am
    16    16    17    1
    17    17    18    1
    18    18    19   ar
    19    18    20   ar
