@<TRIPOS>MOLECULE
2fhf_GLC_A_1.pdb
 11 11 0 0 0
SMALL
GASTEIGER

@<TRIPOS>ATOM
      1  C1        25.5480   32.0430   99.5400 C.3   1091  GLC1091     0.1777
      2  C2        25.5950   33.2450  100.4820 C.3   1091  GLC1091     0.2141
      3  C3        26.3650   32.8710  101.7510 C.3   1091  GLC1091     0.2173
      4  C4        25.7690   31.6170  102.4010 C.3   1091  GLC1091     0.2142
      5  C5        25.6220   30.4740  101.3820 C.3   1091  GLC1091     0.1810
      6  C6        24.8100   29.3220  101.9420 C.3   1091  GLC1091     0.2141
      7  O2        26.2410   34.3310   99.8320 O.3   1091  GLC1091    -0.2176
      8  O3        26.3190   33.9500  102.6730 O.3   1091  GLC1091    -0.2175
      9  O4        26.6130   31.1940  103.4630 O.3   1091  GLC1091    -0.2176
     10  O5        24.9320   30.9360  100.1970 O.3   1091  GLC1091    -0.3481
     11  O6        23.5650   29.7770  102.4590 O.3   1091  GLC1091    -0.2176
@<TRIPOS>BOND
     1     1    10    1
     2     1     2    1
     3     7     2    1
     4    10     5    1
     5     2     3    1
     6     5     6    1
     7     5     4    1
     8     3     4    1
     9     3     8    1
    10     6    11    1
    11     4     9    1
