@<TRIPOS>MOLECULE
2fhh_M1N_2_1.pdb
 32 34 0 0 0
SMALL
GASTEIGER

@<TRIPOS>ATOM
      1  O3        34.4130  -12.4410  -64.2910 O.2   273  M1N273      0.0000
      2  C2        33.9090  -12.5010  -63.1420 C.2   273  M1N273      0.0000
      3  N1        32.5290  -12.0620  -63.1790 N.am  273  M1N273      0.0000
      4  C15       32.3520  -10.5920  -63.4230 C.3   273  M1N273      0.0000
      5  B         33.2600   -9.3780  -63.6320 B     273  M1N273      0.0000
      6  O17       34.7700   -9.5270  -63.5350 O.3   273  M1N273      0.0000
      7  O16       32.8590   -8.2280  -62.7410 O.3   273  M1N273      0.0000
      8  C22       31.5430  -10.3360  -62.1190 C.3   273  M1N273      0.0000
      9  C23       30.1390  -10.4630  -61.6010 C.3   273  M1N273      0.0000
     10  C25       29.8760  -11.8550  -61.2590 C.3   273  M1N273      0.0000
     11  C24       29.8000   -9.4450  -60.6050 C.3   273  M1N273      0.0000
     12  C4        34.8070  -13.0090  -62.1120 C.3   273  M1N273      0.0000
     13  N6        36.2680  -12.9100  -62.3740 N.am  273  M1N273      0.0000
     14  C7        37.1940  -11.8040  -62.5340 C.2   273  M1N273      0.0000
     15  N9        37.7720  -10.7450  -61.7160 N.am  273  M1N273      0.0000
     16  C14       36.9330  -10.7090  -60.4580 C.3   273  M1N273      0.0000
     17  C13       37.6560   -9.9040  -59.3530 C.3   273  M1N273      0.0000
     18  O12       38.5650   -8.9740  -60.0610 O.3   273  M1N273      0.0000
     19  C11       39.7650   -9.6880  -60.6620 C.3   273  M1N273      0.0000
     20  C10       39.2690  -10.9540  -61.4190 C.3   273  M1N273      0.0000
     21  O8        37.7060  -11.6720  -63.7390 O.2   273  M1N273      0.0000
     22  C5        34.7080  -14.3700  -61.8840 C.3   273  M1N273      0.0000
     23  C31       34.3700  -14.8650  -60.5210 C.ar  273  M1N273      0.0000
     24  C36       34.2750  -14.0780  -59.3500 C.ar  273  M1N273      0.0000
     25  C35       33.9480  -14.7020  -58.0630 C.ar  273  M1N273      0.0000
     26  C34       33.7080  -16.1090  -57.9630 C.ar  273  M1N273      0.0000
     27  C33       33.8050  -16.9180  -59.1440 C.ar  273  M1N273      0.0000
     28  C40       33.5750  -18.3150  -59.0190 C.ar  273  M1N273      0.0000
     29  C39       33.6500  -19.1680  -60.1320 C.ar  273  M1N273      0.0000
     30  C38       33.9720  -18.6210  -61.4100 C.ar  273  M1N273      0.0000
     31  C37       34.2250  -17.1750  -61.5700 C.ar  273  M1N273      0.0000
     32  C32       34.1390  -16.3020  -60.4290 C.ar  273  M1N273      0.0000
@<TRIPOS>BOND
     1     1     2    2
     2    21    14    2
     3     5     6    1
     4     5     4    1
     5     5     7    1
     6     4     3    1
     7     4     8    1
     8     3     2   am
     9     2    12    1
    10    14    13   am
    11    14    15   am
    12    13    12    1
    13     8     9    1
    14    12    22    1
    15    22    23    1
    16    15    20    1
    17    15    16    1
    18     9    10    1
    19     9    11    1
    20    31    30   ar
    21    31    32   ar
    22    20    19    1
    23    30    29   ar
    24    19    18    1
    25    23    32   ar
    26    23    24   ar
    27    16    17    1
    28    32    27   ar
    29    29    28   ar
    30    18    17    1
    31    24    25   ar
    32    27    28   ar
    33    27    26   ar
    34    25    26   ar
