@<TRIPOS>MOLECULE
2fhi_IB2_A_1.pdb
 49 54 0 0 0
SMALL
GASTEIGER

@<TRIPOS>ATOM
      1  PA         9.2630   12.9860   23.2270 P.3   301  IB2301      0.3820
      2  O1A       10.3760   13.1880   22.2000 O.2   301  IB2301     -0.2548
      3  O2A        8.0270   12.2090   22.7260 O.3   301  IB2301     -0.1392
      4  C3A        8.6510   14.6920   23.6650 C.3   301  IB2301      0.2357
      5  PB         8.3210   15.9400   22.3510 P.3   301  IB2301      0.3885
      6  O1B        7.1770   16.7690   22.8870 O.3   301  IB2301     -0.1389
      7  O2B        8.0390   15.2000   21.0760 O.2   301  IB2301     -0.2545
      8  O3B        9.5700   16.8140   22.1370 O.3   301  IB2301     -0.2191
      9  PG        10.0590   17.9360   21.1670 P.3   301  IB2301      0.4096
     10  O1G        9.0760   18.4180   20.2660 O.2   301  IB2301     -0.2446
     11  S2G       11.1980   17.4650   20.4250 S.3   301  IB2301      0.0396
     12  O5D        9.8820   12.2560   24.5490 O.3   301  IB2301     -0.2896
     13  C5D       10.2490   10.8980   24.4610 C.3   301  IB2301      0.1836
     14  C4D       11.4460   10.7790   25.3590 C.3   301  IB2301      0.1822
     15  O4D       11.0850    9.8930   26.4360 O.3   301  IB2301     -0.3135
     16  C3D       12.6630   10.1600   24.6430 C.3   301  IB2301      0.2184
     17  O3D       13.8700   10.8450   25.0080 O.3   301  IB2301     -0.2174
     18  C2D       12.7170    8.6780   25.0630 C.3   301  IB2301      0.2570
     19  O2D       14.1030    8.1050   25.0510 O.3   301  IB2301     -0.2130
     20  C1D       12.0100    8.7360   26.4460 C.3   301  IB2301      0.3186
     21  O5'       10.5130   19.0590   22.2120 O.3   301  IB2301     -0.2834
     22  C5'        9.5220   19.9220   22.8260 C.3   301  IB2301      0.1844
     23  C4'        9.6410   19.7430   24.3500 C.3   301  IB2301      0.1822
     24  O4'        9.8510   21.0470   24.9630 O.3   301  IB2301     -0.3135
     25  C3'        8.3380   19.1460   24.9440 C.3   301  IB2301      0.2184
     26  O3'        8.5690   18.1000   25.9120 O.3   301  IB2301     -0.2174
     27  C2'        7.6100   20.3180   25.5440 C.3   301  IB2301      0.2570
     28  O2'        6.7680   19.9730   26.6780 O.3   301  IB2301     -0.2130
     29  C1'        8.7420   21.2850   25.8800 C.3   301  IB2301      0.3186
     30  N9         8.2730   22.7160   25.7890 N.pl3 301  IB2301     -0.1439
     31  C8         7.9010   23.3670   24.6560 C.3   301  IB2301      0.3377
     32  N7         7.5460   24.6360   24.9270 N.2   301  IB2301     -0.2095
     33  C5         7.6810   24.8060   26.2350 C.2   301  IB2301      0.2526
     34  C6         7.4740   25.8830   27.0910 C.2   301  IB2301      0.4393
     35  N6         7.0520   27.0760   26.6320 N.pl3 301  IB2301      0.2180
     36  N1         7.7330   25.6800   28.4960 N.2   301  IB2301      0.0021
     37  C2         8.1830   24.4620   29.0230 C.3   301  IB2301      0.5254
     38  N3         8.3800   23.4400   28.1660 N.2   301  IB2301     -0.0055
     39  C4         8.1430   23.5630   26.7560 C.2   301  IB2301      0.3518
     40  N9A       11.2940    7.4520   26.7250 N.pl3 301  IB2301     -0.1439
     41  C8A       11.8710    6.2310   26.8420 C.3   301  IB2301      0.3377
     42  N7A       10.9340    5.3040   27.0830 N.2   301  IB2301     -0.2095
     43  C5A        9.7530    5.9330   27.1200 C.2   301  IB2301      0.2526
     44  C6A        8.4260    5.5100   27.3260 C.2   301  IB2301      0.4393
     45  N6A        8.1190    4.2350   27.5400 N.pl3 301  IB2301      0.2180
     46  N1A        7.4020    6.4930   27.2970 N.2   301  IB2301      0.0021
     47  C2A        7.6820    7.8620   27.0700 C.3   301  IB2301      0.5254
     48  N3A        8.9860    8.2460   26.8670 N.2   301  IB2301     -0.0055
     49  C4A       10.0440    7.3020   26.8890 C.2   301  IB2301      0.3518
@<TRIPOS>BOND
     1    10     9    2
     2    11     9    1
     3     7     5    2
     4     9     8    1
     5     9    21    1
     6     8     5    1
     7     2     1    2
     8    21    22    1
     9     5     6    1
    10     5     4    1
    11     3     1    1
    12    22    23    1
    13     1     4    1
    14     1    12    1
    15    23    25    1
    16    23    24    1
    17    13    12    1
    18    13    14    1
    19    16    17    1
    20    16    18    1
    21    16    14    1
    22    31    32    1
    23    31    30    1
    24    32    33    2
    25    25    27    1
    26    25    26    1
    27    24    29    1
    28    19    18    1
    29    18    20    1
    30    14    15    1
    31    27    29    1
    32    27    28    1
    33    30    29    1
    34    30    39    1
    35    33    39    1
    36    33    34    1
    37    15    20    1
    38    20    40    1
    39    35    34    1
    40    40    41    1
    41    40    49    1
    42    39    38    2
    43    41    42    1
    44    48    49    2
    45    48    47    1
    46    49    43    1
    47    47    46    1
    48    42    43    2
    49    34    36    2
    50    43    44    1
    51    46    44    2
    52    44    45    1
    53    38    37    1
    54    36    37    1
