@<TRIPOS>MOLECULE
2fhj_MFN_A_1.pdb
 41 42 0 0 0
SMALL
GASTEIGER

@<TRIPOS>ATOM
      1  C1       -47.9460   91.0880   73.5970 C.3   900  MFN900      0.1796
      2  O1       -48.1540   89.5900   71.5220 O.2   900  MFN900     -0.4531
      3  C2       -48.0630   90.8750   72.1340 C.ar  900  MFN900      0.1447
      4  O2       -49.4890   91.2130   68.1210 O.3   900  MFN900     -0.4705
      5  C3       -48.0910   91.8620   71.2450 C.ar  900  MFN900      0.0372
      6  O3       -53.4930   92.9740   61.0420 O.2   900  MFN900     -0.2733
      7  C4       -48.2010   91.1740   70.0060 C.ar  900  MFN900      0.0615
      8  O4       -51.9130   91.8800   56.3870 O.co2 900  MFN900     -0.2437
      9  C5       -48.2440   89.8240   70.2090 C.ar  900  MFN900      0.1784
     10  O5       -53.4300   92.1880   54.8070 O.co2 900  MFN900     -0.2437
     11  C6       -50.3420   93.3200   64.7040 C.ar  900  MFN900     -0.0202
     12  N3       -53.1010   94.9450   56.5890 N.am  900  MFN900     -0.1956
     13  C21      -53.4340   95.7900   55.6020 C.2   900  MFN900      0.2419
     14  O6       -53.0060   95.5390   54.4610 O.2   900  MFN900     -0.2733
     15  C22      -54.1380   97.1520   55.8600 C.3   900  MFN900      0.0892
     16  C14      -54.5600   97.7170   54.4880 C.3   900  MFN900      0.0429
     17  C23      -55.2510   99.0990   54.4350 C.3   900  MFN900      0.1982
     18  C24      -54.3560  100.3380   54.5430 C.2   900  MFN900      0.3842
     19  O7       -54.6670  101.2990   55.4430 O.co2 900  MFN900     -0.2437
     20  O8       -53.4090  100.4310   53.7720 O.co2 900  MFN900     -0.2437
     21  N4       -56.6580   99.3500   54.8580 N.am  900  MFN900     -0.1956
     22  C25      -57.3880   99.9380   53.8880 C.2   900  MFN900      0.2423
     23  O9       -57.0700  101.0670   53.4620 O.2   900  MFN900     -0.2733
     24  C26      -58.1650   98.9970   52.9180 C.3   900  MFN900      0.0964
     25  C19      -53.7360   93.6050   56.7490 C.3   900  MFN900      0.1982
     26  C20      -53.0130   92.5140   55.9200 C.2   900  MFN900      0.3842
     27  C16      -52.6110   93.6180   60.4680 C.2   900  MFN900      0.2414
     28  C17      -52.8130   94.1220   59.0230 C.3   900  MFN900      0.0892
     29  C18      -53.7980   93.2210   58.2450 C.3   900  MFN900      0.0429
     30  N2       -51.5740   94.0780   61.1650 N.am  900  MFN900     -0.2051
     31  C15      -50.9400   93.2380   62.2060 C.3   900  MFN900      0.1198
     32  C12      -50.6390   94.1300   63.4280 C.3   900  MFN900      0.0498
     33  C11      -51.3790   93.0180   65.6090 C.ar  900  MFN900     -0.0011
     34  C10      -51.1010   92.2960   66.7740 C.ar  900  MFN900      0.0366
     35  C7       -49.0220   92.9180   64.9630 C.ar  900  MFN900     -0.0011
     36  C8       -48.7460   92.1930   66.1250 C.ar  900  MFN900      0.0366
     37  C9       -49.7790   91.8910   67.0260 C.ar  900  MFN900      0.1390
     38  C13      -48.2860   91.7700   68.7240 C.3   900  MFN900      0.2352
     39  N1       -49.0310   90.4270   74.3910 N.am  900  MFN900     -0.1895
     40  C35      -49.5560   91.5630   75.6380 C.2   900  MFN900      0.3205
     41  O16      -48.9620   92.5730   76.0330 O.2   900  MFN900     -0.2633
@<TRIPOS>BOND
     1    24    22    1
     2    23    22    2
     3    20    18   ar
     4    22    21   am
     5    17    16    1
     6    17    18    1
     7    17    21    1
     8    14    13    2
     9    16    15    1
    10    18    19   ar
    11    10    26   ar
    12    13    15    1
    13    13    12   am
    14    26     8   ar
    15    26    25    1
    16    12    25    1
    17    25    29    1
    18    29    28    1
    19    28    27    1
    20    27     6    2
    21    27    30   am
    22    30    31    1
    23    31    32    1
    24    32    11    1
    25    11    35   ar
    26    11    33   ar
    27    35    36   ar
    28    33    34   ar
    29    36    37   ar
    30    34    37   ar
    31    37     4    1
    32     4    38    1
    33    38     7    1
    34     7     9   ar
    35     7     5   ar
    36     9     2   ar
    37     5     3   ar
    38     2     3   ar
    39     3     1    1
    40     1    39    1
    41    39    40   am
    42    40    41    2
