@<TRIPOS>MOLECULE
2fhj_H4Z_A_1.pdb
 25 25 0 0 0
SMALL
GASTEIGER

@<TRIPOS>ATOM
      1  C12      -47.6500   66.7050   45.3490 C.3   905  H4Z905      0.0310
      2  C13      -46.7030   66.4790   46.5610 C.ar  905  H4Z905     -0.0218
      3  C14      -46.4380   67.5140   47.4650 C.ar  905  H4Z905     -0.0029
      4  C15      -45.5810   67.2980   48.5490 C.ar  905  H4Z905      0.0158
      5  C16      -44.9790   66.0470   48.7320 C.ar  905  H4Z905      0.0654
      6  N1       -44.0980   65.8140   49.8740 N.pl3 905  H4Z905     -0.2351
      7  C17      -44.6400   64.8480   50.8340 C.3   905  H4Z905      0.1433
      8  C18      -44.4130   68.4320   51.8600 C.3   905  H4Z905      0.0000
      9  C19      -43.6630   64.5640   52.0120 C.3   905  H4Z905      0.1747
     10  N2       -42.2930   65.1260   51.8490 N.2   905  H4Z905     -0.2412
     11  C20      -41.2300   64.1220   51.7370 C.2   905  H4Z905      0.2585
     12  C21      -41.4820   62.8160   51.4430 C.1   905  H4Z905      0.1806
     13  N3       -40.3480   61.9090   51.3350 N.2   905  H4Z905     -0.2562
     14  C22      -39.0730   62.3390   51.5270 C.1   905  H4Z905      0.2617
     15  N4       -38.0820   61.4780   51.4260 N.pl3 905  H4Z905     -0.0220
     16  N5       -38.8060   63.6100   51.8210 N.2   905  H4Z905     -0.2474
     17  C23      -39.7810   64.5100   51.9340 C.1   905  H4Z905      0.2452
     18  O12      -39.4640   65.6530   52.2050 O.2   905  H4Z905     -0.2062
     19  N6       -42.8270   62.2880   51.2180 N.2   905  H4Z905     -0.3443
     20  C24      -43.8230   63.0380   51.9570 C.2   905  H4Z905      0.1235
     21  C25      -44.8810   62.1130   52.5720 C.3   905  H4Z905      0.0646
     22  C26      -45.2560   65.0130   47.8330 C.ar  905  H4Z905      0.0158
     23  C27      -46.1120   65.2290   46.7500 C.ar  905  H4Z905     -0.0029
     24  C31      -40.8050   66.8110   49.1120 C.2   905  H4Z905      0.2794
     25  O17      -39.6020   66.5360   48.9730 O.2   905  H4Z905     -0.2794
@<TRIPOS>BOND
     1     1     2    1
     2     2    23   ar
     3     2     3   ar
     4    23    22   ar
     5     3     4   ar
     6    22     5   ar
     7     4     5   ar
     8     5     6    1
     9    25    24    2
    10     6     7    1
    11     7     9    1
    12    19    12    2
    13    19    20    2
    14    13    12    2
    15    13    14    2
    16    15    14    1
    17    12    11    1
    18    14    16    2
    19    11    10    2
    20    11    17    1
    21    16    17    2
    22    10     9    1
    23    17    18    2
    24    20     9    1
    25    20    21    1
