@<TRIPOS>MOLECULE
2fhk_MFN_A_1.pdb
 31 32 0 0 0
SMALL
GASTEIGER

@<TRIPOS>ATOM
      1  C1        28.5500   91.5000   68.8660 C.3   600  MFN600      0.1733
      2  O1        29.0370   89.8260   70.7470 O.2   600  MFN600     -0.4534
      3  C2        28.7750   91.1440   70.2810 C.ar  600  MFN600      0.1420
      4  O2        30.3310   91.4690   74.3770 O.3   600  MFN600     -0.4705
      5  C3        28.7390   92.0310   71.2630 C.ar  600  MFN600      0.0369
      6  O3        34.2460   92.8840   81.6500 O.2   600  MFN600     -0.2733
      7  C4        28.9900   91.2630   72.4290 C.ar  600  MFN600      0.0615
      8  O4        33.4750   91.9970   86.6150 O.co2 600  MFN600     -0.2437
      9  C5        29.1640   89.9500   72.0770 C.ar  600  MFN600      0.1784
     10  O5        35.6350   92.3830   86.9890 O.co2 600  MFN600     -0.2437
     11  C6        31.0690   93.4920   77.9260 C.ar  600  MFN600     -0.0202
     12  N3        34.1810   95.1880   86.7220 N.am  600  MFN600     -0.1956
     13  C21       35.0940   96.3000   86.8810 C.2   600  MFN600      0.2418
     14  O6        34.2090   97.4740   86.6170 O.2   600  MFN600     -0.2733
     15  C22       36.5470   96.7790   86.4120 C.3   600  MFN600      0.0868
     16  C14       37.1040   98.1970   87.2010 C.3   600  MFN600      0.0101
     17  C19       34.5210   94.1200   85.7320 C.3   600  MFN600      0.1982
     18  C20       34.5780   92.7710   86.4870 C.2   600  MFN600      0.3842
     19  C16       33.4440   93.6670   82.1600 C.2   600  MFN600      0.2414
     20  C17       33.9260   94.5770   83.3060 C.3   600  MFN600      0.0892
     21  C18       33.4200   94.0220   84.6500 C.3   600  MFN600      0.0429
     22  N2        32.2950   93.9440   81.5370 N.am  600  MFN600     -0.2051
     23  C15       31.9150   93.2440   80.2840 C.3   600  MFN600      0.1198
     24  C12       31.3630   94.2430   79.2440 C.3   600  MFN600      0.0498
     25  C11       32.1100   93.2200   77.0210 C.ar  600  MFN600     -0.0011
     26  C10       31.8500   92.5330   75.8250 C.ar  600  MFN600      0.0366
     27  C7        29.7580   93.0780   77.6250 C.ar  600  MFN600     -0.0011
     28  C8        29.5010   92.3910   76.4250 C.ar  600  MFN600      0.0366
     29  C9        30.5440   92.1230   75.5200 C.ar  600  MFN600      0.1390
     30  C13       29.0560   91.7930   73.7560 C.3   600  MFN600      0.2352
     31  N1        29.6400   90.9980   67.9990 N.3   600  MFN600     -0.1227
@<TRIPOS>BOND
     1    31     1    1
     2     1     3    1
     3     3     2   ar
     4     3     5   ar
     5     2     9   ar
     6     5     7   ar
     7     9     7   ar
     8     7    30    1
     9    30     4    1
    10     4    29    1
    11    29    26   ar
    12    29    28   ar
    13    26    25   ar
    14    28    27   ar
    15    25    11   ar
    16    27    11   ar
    17    11    24    1
    18    24    23    1
    19    23    22    1
    20    22    19   am
    21     6    19    2
    22    19    20    1
    23    20    21    1
    24    21    17    1
    25    17    18    1
    26    17    12    1
    27    15    13    1
    28    15    16    1
    29    18     8   ar
    30    18    10   ar
    31    14    13    2
    32    12    13   am
