@<TRIPOS>MOLECULE
2fhl_BNI_A_1.pdb
 25 27 0 0 0
SMALL
GASTEIGER

@<TRIPOS>ATOM
      1  C1        29.8750   57.0370   12.2720 C.2   501  BNI501      0.2456
      2  C10       28.7010   56.3960   11.5100 C.3   501  BNI501      0.0872
      3  C9        27.3360   56.9320   11.9420 C.3   501  BNI501      0.0097
      4  C8        27.0630   56.6070   13.4090 C.3   501  BNI501      0.0014
      5  C7        25.8440   57.3240   13.9430 C.3   501  BNI501      0.0129
      6  C2        25.5770   56.9650   15.4380 C.3   501  BNI501      0.0729
      7  C6        24.5310   55.7000   17.3670 C.3   501  BNI501      0.0848
      8  C4        24.5470   57.8970   16.1500 C.3   501  BNI501      0.1500
      9  C5        23.9840   57.1290   17.3550 C.3   501  BNI501      0.1509
     10  C3        22.2440   57.7700   15.9770 C.1   501  BNI501      0.2386
     11  O2        29.8650   58.2390   12.5010 O.2   501  BNI501     -0.2730
     12  O3        21.0730   57.9470   15.5640 O.2   501  BNI501     -0.2023
     13  N1        22.5700   57.1650   17.1190 N.2   501  BNI501     -0.1859
     14  N2        23.3520   58.2000   15.3730 N.2   501  BNI501     -0.1860
     15  S1        24.8480   55.3040   15.6180 S.3   501  BNI501     -0.1369
     16  N17       30.8890   56.2800   12.7040 N.am  501  BNI501     -0.1792
     17  C18       32.1490   56.5980   13.1400 C.ar  501  BNI501      0.0735
     18  C20       33.3130   55.8250   12.8080 C.ar  501  BNI501      0.0183
     19  C21       34.6200   56.2140   13.3070 C.ar  501  BNI501      0.0254
     20  C22       34.7530   57.4200   14.1250 C.ar  501  BNI501      0.1430
     21  C23       33.5830   58.1800   14.4350 C.ar  501  BNI501      0.0254
     22  C24       32.2950   57.7920   13.9720 C.ar  501  BNI501      0.0183
     23  N25       36.0920   57.8740   14.6720 N.pl3 501  BNI501      0.0577
     24  O26       37.1000   57.2670   14.4350 O.2   501  BNI501     -0.1261
     25  O27       36.1820   58.8600   15.3540 O.2   501  BNI501     -0.1261
@<TRIPOS>BOND
     1     2     3    1
     2     2     1    1
     3     3     4    1
     4     1    11    2
     5     1    16   am
     6    16    17    1
     7    18    17   ar
     8    18    19   ar
     9    17    22   ar
    10    19    20   ar
    11     4     5    1
    12     5     6    1
    13    22    21   ar
    14    20    21   ar
    15    20    23    1
    16    24    23    2
    17    23    25    2
    18    14    10    2
    19    14     8    1
    20     6    15    1
    21     6     8    1
    22    12    10    2
    23    15     7    1
    24    10    13    2
    25     8     9    1
    26    13     9    1
    27     9     7    1
