@<TRIPOS>MOLECULE
2fhn_BNI_X_1.pdb
 25 27 0 0 0
SMALL
GASTEIGER

@<TRIPOS>ATOM
      1  C1        29.9610   56.3550   12.1430 C.2   501  BNI501      0.2456
      2  C10       28.7990   55.7350   11.3800 C.3   501  BNI501      0.0872
      3  C9        27.4390   56.2700   11.8280 C.3   501  BNI501      0.0097
      4  C8        27.1810   55.9420   13.2960 C.3   501  BNI501      0.0014
      5  C7        25.9410   56.6340   13.8000 C.3   501  BNI501      0.0129
      6  C2        25.6560   56.2830   15.2980 C.3   501  BNI501      0.0729
      7  C6        24.6120   55.0290   17.2230 C.3   501  BNI501      0.0848
      8  C4        24.6240   57.2180   16.0100 C.3   501  BNI501      0.1500
      9  C5        24.0500   56.4400   17.2030 C.3   501  BNI501      0.1509
     10  C3        22.3210   57.0670   15.8350 C.1   501  BNI501      0.2386
     11  O2        29.9340   57.5550   12.4300 O.2   501  BNI501     -0.2730
     12  O3        21.1560   57.2300   15.4110 O.2   501  BNI501     -0.2023
     13  N1        22.6330   56.4510   16.9870 N.2   501  BNI501     -0.1859
     14  N2        23.4260   57.4960   15.2260 N.2   501  BNI501     -0.1860
     15  S1        24.9530   54.6100   15.4810 S.3   501  BNI501     -0.1369
     16  N17       30.9810   55.5780   12.5260 N.am  501  BNI501     -0.1792
     17  C18       32.1690   55.8520   13.1440 C.ar  501  BNI501      0.0735
     18  C20       33.3860   55.2600   12.6950 C.ar  501  BNI501      0.0183
     19  C21       34.6180   55.5700   13.3710 C.ar  501  BNI501      0.0254
     20  C22       34.6180   56.4910   14.5010 C.ar  501  BNI501      0.1430
     21  C23       33.4010   57.0840   14.9500 C.ar  501  BNI501      0.0254
     22  C24       32.1860   56.7760   14.2830 C.ar  501  BNI501      0.0183
     23  N25       35.9190   56.8070   15.1900 N.pl3 501  BNI501      0.0577
     24  O26       36.9480   56.3090   14.8310 O.2   501  BNI501     -0.1261
     25  O27       35.9450   57.5690   16.1140 O.2   501  BNI501     -0.1261
@<TRIPOS>BOND
     1     2     3    1
     2     2     1    1
     3     3     4    1
     4     1    11    2
     5     1    16   am
     6    16    17    1
     7    18    17   ar
     8    18    19   ar
     9    17    22   ar
    10     4     5    1
    11    19    20   ar
    12     5     6    1
    13    22    21   ar
    14    20    21   ar
    15    20    23    1
    16    24    23    2
    17    23    25    2
    18    14    10    2
    19    14     8    1
    20     6    15    1
    21     6     8    1
    22    12    10    2
    23    15     7    1
    24    10    13    2
    25     8     9    1
    26    13     9    1
    27     9     7    1
