@<TRIPOS>MOLECULE
2fhr_FSI_A_1.pdb
 21 21 0 0 0
SMALL
GASTEIGER

@<TRIPOS>ATOM
      1  O1B       47.3010    2.8090   63.6760 O.co2 700  FSI700     -0.2429
      2  C1        47.8960    3.2960   62.6630 C.2   700  FSI700      0.3942
      3  O1A       47.7960    4.5130   62.3920 O.co2 700  FSI700     -0.2429
      4  C2        48.7900    2.5010   61.6790 C.3   700  FSI700      0.2533
      5  C3        49.3040    1.2620   62.4090 C.3   700  FSI700      0.2308
      6  F1        49.5820    1.5930   63.7040 F     700  FSI700     -0.2312
      7  C4        50.5740    0.7510   61.7030 C.3   700  FSI700      0.2096
      8  O4        50.9670   -0.4780   62.2910 O.3   700  FSI700     -0.2182
      9  O6        49.9030    3.4700   61.6280 O.3   700  FSI700     -0.3409
     10  C6        51.1900    3.0520   61.0810 C.3   700  FSI700      0.1712
     11  C5        51.7020    1.8180   61.8420 C.3   700  FSI700      0.1580
     12  N5        52.9010    1.3410   61.4830 N.am  700  FSI700     -0.2019
     13  C10       54.1540    1.7380   61.7300 C.2   700  FSI700      0.2420
     14  C11       55.2470    0.9010   61.0770 C.3   700  FSI700      0.0964
     15  O10       54.4700    2.7500   62.3960 O.2   700  FSI700     -0.2733
     16  C7        52.1790    4.2350   61.1270 C.3   700  FSI700      0.2134
     17  O7        52.4540    4.6300   62.4720 O.3   700  FSI700     -0.2176
     18  C8        51.6700    5.4980   60.4640 C.3   700  FSI700      0.2173
     19  O8        51.2880    5.2540   59.1040 O.3   700  FSI700     -0.2175
     20  C9        52.7240    6.6170   60.6250 C.3   700  FSI700      0.2175
     21  O9        53.7100    6.5760   59.6050 O.3   700  FSI700     -0.2175
@<TRIPOS>BOND
     1    19    18    1
     2    21    20    1
     3    18    20    1
     4    18    16    1
     5    14    13    1
     6    10    16    1
     7    10     9    1
     8    10    11    1
     9    16    17    1
    10    12    13   am
    11    12    11    1
    12     9     4    1
    13     4     5    1
    14     4     2    1
    15     7    11    1
    16     7     8    1
    17     7     5    1
    18    13    15    2
    19     3     2   ar
    20     5     6    1
    21     2     1   ar
