@<TRIPOS>MOLECULE
2fhy_A37_A_1.pdb
 22 24 0 0 0
SMALL
GASTEIGER

@<TRIPOS>ATOM
      1  C         48.8660   -7.4770   22.1400 C.ar  502  A37502      0.0136
      2  C2        47.4540   -7.2690   21.8960 C.ar  502  A37502      0.0123
      3  C3        46.9750   -5.9460   21.8170 C.ar  502  A37502      0.0591
      4  C4        47.8730   -4.8120   21.9830 C.ar  502  A37502      0.0325
      5  C5        49.2780   -5.0420   22.2320 C.ar  502  A37502      0.1385
      6  C6        49.7670   -6.3570   22.3080 C.ar  502  A37502      0.0766
      7  S         50.3250   -3.6290   22.4380 S.O2  502  A37502      0.0984
      8  O         49.4650   -2.4070   22.2770 O.2   502  A37502     -0.1481
      9  O9        51.5230   -3.7530   21.4880 O.2   502  A37502     -0.1481
     10  N         50.9830   -3.6290   24.0190 N.pl3 502  A37502     -0.0290
     11  C11       50.3040   -3.0190   25.2260 C.2   502  A37502      0.3864
     12  N12       49.0040   -2.5490   25.2760 N.2   502  A37502     -0.3491
     13  C13       48.7610   -2.0700   26.5930 C.2   502  A37502      0.1709
     14  C14       47.6310   -1.4910   27.2520 C.2   502  A37502      0.0427
     15  C15       47.7490   -1.1160   28.6400 C.2   502  A37502      0.0425
     16 CL1        46.3910   -0.4150   29.4580 Cl    502  A37502     -0.0865
     17  C17       48.9720   -1.3150   29.3650 C.3   502  A37502      0.0673
     18  C18       50.1140   -1.9060   28.7090 C.2   502  A37502      0.0197
     19  C19       50.0220   -2.2880   27.3420 C.2   502  A37502      0.1751
     20  O20       50.9400   -2.8700   26.4610 O.2   502  A37502     -0.4120
     21 CL2        45.2980   -5.6930   21.5180 Cl    502  A37502     -0.0822
     22 CL3        51.4630   -6.6810   22.6050 Cl    502  A37502     -0.0808
@<TRIPOS>BOND
     1     9     7    2
     2    21     3    1
     3     3     2   ar
     4     3     4   ar
     5     2     1   ar
     6     4     5   ar
     7     1     6   ar
     8     5     6   ar
     9     5     7    1
    10     8     7    2
    11     6    22    1
    12     7    10    1
    13    10    11    1
    14    11    12    2
    15    11    20    1
    16    12    13    2
    17    20    19    1
    18    13    14    1
    19    13    19    1
    20    14    15    2
    21    19    18    2
    22    15    17    1
    23    15    16    1
    24    18    17    1
