@<TRIPOS>MOLECULE
2fib_III_B_1.pdb
 30 31 0 0 0
SMALL
GASTEIGER

@<TRIPOS>ATOM
      1  N         -1.7970   11.2880   18.8930 N.3     2  GLY2       -0.1210
      2  CA        -1.4500   10.5600   17.6740 C.3     2  GLY2        0.1940
      3  C         -1.0160   11.5240   16.5930 C.2     2  GLY2        0.2454
      4  O         -0.7530   12.7040   16.8880 O.2     2  GLY2       -0.2732
      5  N         -0.9180   11.0420   15.3360 N.am    3  PRO3       -0.2717
      6  CA        -0.5240   11.7830   14.1330 C.3     3  PRO3        0.1535
      7  C         -1.6680   12.6220   13.5510 C.2     3  PRO3        0.2598
      8  O         -2.7240   12.7800   14.1790 O.2     3  PRO3       -0.2715
      9  CB        -0.1390   10.6570   13.1810 C.3     3  PRO3        0.0310
     10  CG        -1.1450    9.6250   13.4880 C.3     3  PRO3        0.0237
     11  CD        -1.1520    9.6260   15.0070 C.3     3  PRO3        0.0939
     12  N         -1.4540   13.1360   12.3390 N.am    4  ARG4       -0.1964
     13  CA        -2.4270   13.9600   11.6170 C.3     4  ARG4        0.1714
     14  C         -2.2360   13.6730   10.1120 C.2     4  ARG4        0.2459
     15  O         -1.3960   12.8310    9.7530 O.2     4  ARG4       -0.2730
     16  CB        -2.2000   15.4540   11.9240 C.3     4  ARG4        0.0347
     17  CG        -2.7470   15.9530   13.2670 C.3     4  ARG4        0.0492
     18  CD        -4.2580   15.8300   13.3420 C.3     4  ARG4        0.2205
     19  NE        -4.8390   16.5480   14.4760 N.pl3   4  ARG4       -0.0865
     20  CZ        -4.9380   16.0560   15.7100 C.cat   4  ARG4        0.5346
     21  NH1       -4.4890   14.8400   15.9890 N.pl3   4  ARG4        0.1354
     22  NH2       -5.5180   16.7710   16.6650 N.pl3   4  ARG4        0.1354
     23  N         -3.0780   14.2740    9.2290 N.am    5  PRO5       -0.2699
     24  CA        -2.9420   14.0450    7.7810 C.3     5  PRO5        0.1791
     25  C         -1.6700   14.7170    7.2390 C.2     5  PRO5        0.3825
     26  O         -0.8470   14.0190    6.5910 O.co2   5  PRO5       -0.2438
     27  CB        -4.2010   14.7150    7.2010 C.3     5  PRO5        0.0332
     28  CG        -5.1760   14.7030    8.3400 C.3     5  PRO5        0.0238
     29  CD        -4.2920   15.0690    9.5040 C.3     5  PRO5        0.0940
     30  OXT       -1.5220   15.9450    7.4720 O.co2   5  PRO5       -0.2438
@<TRIPOS>BOND
     1    26    25   ar
     2    27    24    1
     3    27    28    1
     4    25    30   ar
     5    25    24    1
     6    24    23    1
     7    28    29    1
     8    23    29    1
     9    23    14   am
    10    15    14    2
    11    14    13    1
    12    13    16    1
    13    13    12    1
    14    16    17    1
    15    12     7   am
    16     9    10    1
    17     9     6    1
    18    17    18    1
    19    18    19    1
    20    10    11    1
    21     7     6    1
    22     7     8    2
    23     6     5    1
    24    19    20    2
    25    11     5    1
    26     5     3   am
    27    20    21    1
    28    20    22    1
    29     3     4    2
    30     3     2    1
    31     2     1    1
