@<TRIPOS>MOLECULE
2fie_A74_A_1.pdb
 31 34 0 0 0
SMALL
GASTEIGER

@<TRIPOS>ATOM
      1  C         -0.7080   39.5920   33.5070 C.ar  701  A74701      0.0136
      2  C1        -0.1270   38.3980   32.9860 C.ar  701  A74701      0.0123
      3  C2         0.2450   37.3480   33.8660 C.ar  701  A74701      0.0591
      4  C3         0.0460   37.4660   35.2650 C.ar  701  A74701      0.0325
      5  C4        -0.5350   38.6560   35.8050 C.ar  701  A74701      0.1385
      6  C5        -0.9140   39.7270   34.9130 C.ar  701  A74701      0.0766
      7  S         -0.7500   38.7150   37.5870 S.O2  701  A74701      0.0984
      8  O1        -0.3080   37.4780   38.1790 O.2   701  A74701     -0.1481
      9  O2        -2.1280   39.1030   37.8160 O.2   701  A74701     -0.1481
     10  N          0.1660   39.8660   38.2300 N.pl3 701  A74701     -0.0290
     11  C6         1.6050   39.7210   38.5770 C.2   701  A74701      0.3864
     12  N1         2.4290   38.6100   38.4170 N.2   701  A74701     -0.3490
     13  C7         3.6660   39.0140   38.9070 C.2   701  A74701      0.1731
     14  C8         4.8460   38.3000   38.9870 C.2   701  A74701      0.0680
     15  C9         6.0150   38.9240   39.5420 C.2   701  A74701      0.1233
     16  C10        5.9250   40.2800   39.9920 C.3   701  A74701      0.0935
     17  C11        4.7190   41.0200   39.9170 C.2   701  A74701      0.0241
     18  C12        3.5260   40.3430   39.3330 C.2   701  A74701      0.1755
     19  O3         2.2720   40.7830   39.1380 O.2   701  A74701     -0.4120
     20 CL2         0.9520   35.9010   33.2150 Cl    701  A74701     -0.0822
     21 CL1        -1.6390   41.2170   35.4730 Cl    701  A74701     -0.0808
     22  O4         7.2180   38.1610   39.6270 O.2   701  A74701     -0.4753
     23  C13        7.2520   36.8280   39.1060 C.3   701  A74701      0.2520
     24  C14        3.4120   44.5560   40.8660 C.ar  701  A74701      0.0577
     25  C15        4.5790   45.1260   41.3810 C.ar  701  A74701      0.2250
     26  N2         5.7450   44.4170   41.4250 N.ar  701  A74701     -0.2102
     27  C16        5.7940   43.1270   40.9650 C.ar  701  A74701      0.1018
     28  C17        4.6610   42.4640   40.4210 C.ar  701  A74701      0.0189
     29  C18        3.4670   43.2250   40.3890 C.ar  701  A74701      0.0061
     30  O5         4.5010   46.4310   41.8410 O.3   701  A74701     -0.4561
     31  C19        5.5610   47.2700   41.3770 C.3   701  A74701      0.2542
@<TRIPOS>BOND
     1     2     1   ar
     2     2     3   ar
     3    20     3    1
     4     1     6   ar
     5     3     4   ar
     6     6    21    1
     7     6     5   ar
     8     4     5   ar
     9     5     7    1
    10     7     9    2
    11     7     8    2
    12     7    10    1
    13    10    11    1
    14    12    11    2
    15    12    13    2
    16    11    19    1
    17    13    14    1
    18    13    18    1
    19    14    15    2
    20    23    22    1
    21    19    18    1
    22    18    17    2
    23    15    22    1
    24    15    16    1
    25    17    16    1
    26    17    28    1
    27    29    28   ar
    28    29    24   ar
    29    28    27   ar
    30    24    25   ar
    31    27    26   ar
    32    31    30    1
    33    25    26   ar
    34    25    30    1
