@<TRIPOS>MOLECULE
2fik_NAG_A_1.pdb
 14 14 0 0 0
SMALL
GASTEIGER

@<TRIPOS>ATOM
      1  C1        35.1690   63.8030   31.3720 C.3   301  NAG301      0.1665
      2  C2        36.0490   65.0390   31.0360 C.3   301  NAG301      0.1576
      3  C3        37.5170   64.6380   31.0920 C.3   301  NAG301      0.2069
      4  C4        37.8280   63.9830   32.4410 C.3   301  NAG301      0.2134
      5  C5        36.8600   62.8180   32.6980 C.3   301  NAG301      0.1809
      6  C6        37.0700   62.1120   34.0380 C.3   301  NAG301      0.2141
      7  C7        34.9000   66.5820   29.5030 C.2   301  NAG301      0.2420
      8  C8        34.7580   67.0230   28.0660 C.3   301  NAG301      0.0964
      9  N2        35.7620   65.6030   29.7290 N.am  301  NAG301     -0.2019
     10  O3        38.3420   65.7690   30.8550 O.3   301  NAG301     -0.2184
     11  O4        39.1350   63.4880   32.4530 O.3   301  NAG301     -0.2176
     12  O5        35.5510   63.3310   32.6520 O.3   301  NAG301     -0.3489
     13  O6        36.9230   63.0510   35.0810 O.3   301  NAG301     -0.2176
     14  O7        34.2310   67.1160   30.3850 O.2   301  NAG301     -0.2733
@<TRIPOS>BOND
     1     8     7    1
     2     7     9   am
     3     7    14    2
     4     9     2    1
     5    10     3    1
     6     2     3    1
     7     2     1    1
     8     3     4    1
     9     1    12    1
    10     4    11    1
    11     4     5    1
    12    12     5    1
    13     5     6    1
    14     6    13    1
