@<TRIPOS>MOLECULE
2fik_PLM_A_1.pdb
 18 17 0 0 0
SMALL
GASTEIGER

@<TRIPOS>ATOM
      1  C1        21.3320   52.6670   21.9360 C.2   502  PLM502      0.3649
      2  O1        20.2380   52.4830   21.3620 O.co2 502  PLM502     -0.2457
      3  O2        22.2720   51.8780   21.7010 O.co2 502  PLM502     -0.2457
      4  C2        21.5210   53.8110   22.8990 C.3   502  PLM502      0.1141
      5  C3        20.3120   54.7370   22.8480 C.3   502  PLM502      0.0118
      6  C4        19.5130   54.7070   24.1480 C.3   502  PLM502      0.0006
      7  C5        19.3640   56.1080   24.7090 C.3   502  PLM502      0.0000
      8  C6        20.5680   56.4180   25.5840 C.3   502  PLM502      0.0000
      9  C7        20.9740   57.8810   25.5220 C.3   502  PLM502      0.0000
     10  C8        21.9430   58.1630   26.6610 C.3   502  PLM502      0.0000
     11  C9        23.1470   58.9470   26.1720 C.3   502  PLM502      0.0000
     12  CA        24.4100   58.4290   26.8330 C.3   502  PLM502      0.0000
     13  CB        24.9040   57.1990   26.0940 C.3   502  PLM502      0.0000
     14  CC        26.1060   56.6210   26.8130 C.3   502  PLM502      0.0000
     15  CD        26.7570   55.6470   25.8550 C.3   502  PLM502      0.0000
     16  CE        28.2510   55.8870   25.8550 C.3   502  PLM502      0.0000
     17  CF        28.7410   56.3850   24.5120 C.3   502  PLM502      0.0000
     18  CG        30.0560   57.1270   24.6930 C.3   502  PLM502      0.0000
@<TRIPOS>BOND
     1     2     1   ar
     2     3     1   ar
     3     1     4    1
     4     5     4    1
     5     5     6    1
     6     6     7    1
     7    17    18    1
     8    17    16    1
     9     7     8    1
    10     9     8    1
    11     9    10    1
    12    15    16    1
    13    15    14    1
    14    13    14    1
    15    13    12    1
    16    11    10    1
    17    11    12    1
