@<TRIPOS>MOLECULE
2fik_GSL_A_1.pdb
 48 48 0 0 0
SMALL
GASTEIGER

@<TRIPOS>ATOM
      1  C17       38.7990   41.8730   15.7200 C.3   501  GSL501      0.0000
      2  C16       38.3930   43.2730   16.1910 C.3   501  GSL501      0.0000
      3  C15       38.4190   43.3650   17.7210 C.3   501  GSL501      0.0000
      4  C14       38.0200   44.7580   18.2140 C.3   501  GSL501      0.0000
      5  C13       38.1990   44.8800   19.7360 C.3   501  GSL501      0.0000
      6  C12       37.3400   45.9860   20.3640 C.3   501  GSL501      0.0000
      7  C11       37.4780   47.3440   19.6660 C.3   501  GSL501      0.0000
      8  C10       37.2170   48.5090   20.6190 C.3   501  GSL501      0.0000
      9  C9        35.9620   49.2610   20.1690 C.3   501  GSL501      0.0000
     10  C8        36.1850   50.7690   20.1430 C.3   501  GSL501      0.0000
     11  C7        34.9180   51.4820   19.6610 C.3   501  GSL501      0.0000
     12  C6        35.0670   51.9680   18.2170 C.3   501  GSL501      0.0000
     13  C5        34.4970   53.3860   18.0350 C.3   501  GSL501      0.0001
     14  C4        34.6900   53.8880   16.5950 C.3   501  GSL501      0.0027
     15  C3        33.5830   54.8930   16.2190 C.3   501  GSL501      0.0348
     16  C2        34.0250   55.9500   15.1950 C.3   501  GSL501      0.1743
     17  O         34.4570   55.2960   13.9960 O.3   501  GSL501     -0.2212
     18  C1        32.8450   56.8950   14.8770 C.3   501  GSL501      0.1550
     19  C         32.9890   57.6560   13.5400 C.3   501  GSL501      0.1690
     20  O1        34.0690   58.6090   13.5600 O.3   501  GSL501     -0.3266
     21  C29       34.0370   59.5530   12.4460 C.3   501  GSL501      0.2699
     22  O3        32.7680   60.2730   12.3580 O.3   501  GSL501     -0.3169
     23  C28       32.4200   61.0290   13.5870 C.3   501  GSL501      0.2529
     24  C34       30.9770   61.5610   13.4330 C.2   501  GSL501      0.3941
     25  O7        30.5540   61.8630   12.2810 O.co2 501  GSL501     -0.2429
     26  O6        30.2910   61.6370   14.4820 O.co2 501  GSL501     -0.2429
     27  C33       33.5200   62.0560   13.9610 C.3   501  GSL501      0.2229
     28  O5        33.4510   63.1770   13.0750 O.3   501  GSL501     -0.2171
     29  C32       34.9360   61.4250   13.8960 C.3   501  GSL501      0.2203
     30  O4        35.9620   62.4250   14.0360 O.3   501  GSL501     -0.2174
     31  C30       35.1350   60.6200   12.5860 C.3   501  GSL501      0.2406
     32  O31       36.4240   60.0100   12.5460 O.3   501  GSL501     -0.2149
     33  N         32.6170   57.8370   15.9930 N.am  501  GSL501     -0.2020
     34  C18       31.3840   58.1710   16.3790 C.2   501  GSL501      0.2415
     35  O2        30.3680   57.7320   15.8320 O.2   501  GSL501     -0.2733
     36  C19       31.3040   59.1580   17.5690 C.3   501  GSL501      0.0868
     37  C20       30.3200   58.7420   18.6940 C.3   501  GSL501      0.0096
     38  C21       30.3540   57.2390   19.0150 C.3   501  GSL501      0.0005
     39  C22       30.2640   56.9140   20.5140 C.3   501  GSL501      0.0000
     40  C23       31.0060   55.5980   20.8000 C.3   501  GSL501      0.0000
     41  C24       30.4260   54.8230   21.9870 C.3   501  GSL501      0.0000
     42  C25       29.0840   54.1670   21.6390 C.3   501  GSL501      0.0000
     43  C26       28.6050   53.2130   22.7340 C.3   501  GSL501      0.0000
     44  C27       27.0960   53.3810   22.9240 C.3   501  GSL501      0.0000
     45  C38       26.4640   52.1910   23.6510 C.3   501  GSL501      0.0000
     46  C37       25.8690   51.1660   22.6820 C.3   501  GSL501      0.0000
     47  C36       25.3040   51.8240   21.4210 C.3   501  GSL501      0.0000
     48  C35       24.7770   50.7690   20.4590 C.3   501  GSL501      0.0000
@<TRIPOS>BOND
     1    25    24   ar
     2    22    21    1
     3    22    23    1
     4    21    31    1
     5    21    20    1
     6    32    31    1
     7    31    29    1
     8    28    27    1
     9    24    23    1
    10    24    26   ar
    11    19    20    1
    12    19    18    1
    13    23    27    1
    14    29    27    1
    15    29    30    1
    16    17    16    1
    17    18    16    1
    18    18    33    1
    19    16    15    1
    20     1     2    1
    21    35    34    2
    22    33    34   am
    23     2     3    1
    24    15    14    1
    25    34    36    1
    26    14    13    1
    27    36    37    1
    28     3     4    1
    29    13    12    1
    30     4     5    1
    31    12    11    1
    32    37    38    1
    33    38    39    1
    34    11    10    1
    35     7     6    1
    36     7     8    1
    37     5     6    1
    38    10     9    1
    39     9     8    1
    40    48    47    1
    41    39    40    1
    42    40    41    1
    43    47    46    1
    44    42    41    1
    45    42    43    1
    46    46    45    1
    47    43    44    1
    48    44    45    1
