@<TRIPOS>MOLECULE
2fim_3DP_A_1.pdb
 18 17 0 0 0
SMALL
GASTEIGER

@<TRIPOS>ATOM
      1  CAA       77.6580    4.6150   16.0090 C.3   1003  3DP1003     0.0000
      2  CAG       76.2020    4.6390   16.4040 C.3   1003  3DP1003     0.0000
      3  CAH       75.8330    5.9460   17.0480 C.3   1003  3DP1003    -0.0000
      4  CAI       74.3760    5.8940   17.4920 C.3   1003  3DP1003    -0.0000
      5  CAJ       73.5900    7.0920   16.9940 C.3   1003  3DP1003    -0.0001
      6  CAK       73.6390    8.2460   17.9700 C.3   1003  3DP1003    -0.0021
      7  CAL       72.7610    9.3880   17.4870 C.3   1003  3DP1003    -0.0223
      8  CAN       73.4720   10.7320   17.5320 C.3   1003  3DP1003    -0.0732
      9  NAQ       72.4890   11.8100   17.3910 N.4   1003  3DP1003     0.3871
     10  CAB       71.1340   11.3500   17.7530 C.3   1003  3DP1003    -0.0959
     11  CAC       72.4780   12.2960   16.0070 C.3   1003  3DP1003    -0.0959
     12  CAO       72.9020   12.9160   18.2540 C.3   1003  3DP1003    -0.0715
     13  CAM       73.9820   12.4240   19.2060 C.3   1003  3DP1003    -0.0007
     14  CAP       73.5900   12.6850   20.6580 C.3   1003  3DP1003     0.1031
     15  SAR       74.3430   14.2080   21.2990 S.3   1003  3DP1003    -0.1961
     16  OAF       74.1900   14.2750   22.6980 O.3   1003  3DP1003    -0.3075
     17  OAE       75.7930   14.2400   20.9580 O.3   1003  3DP1003    -0.3075
     18  OAD       73.6590   15.3760   20.6870 O.3   1003  3DP1003    -0.3075
@<TRIPOS>BOND
     1    11     9    1
     2     1     2    1
     3     2     3    1
     4     5     4    1
     5     5     6    1
     6     3     4    1
     7     9     8    1
     8     9    10    1
     9     9    12    1
    10     7     8    1
    11     7     6    1
    12    12    13    1
    13    13    14    1
    14    14    15    1
    15    18    15    1
    16    17    15    1
    17    15    16    1
