@<TRIPOS>MOLECULE
2fir_FUC_L_1.pdb
 10 10 0 0 0
SMALL
GASTEIGER

@<TRIPOS>ATOM
      1  C1        20.9820   30.6710   63.8490 C.3   901  FUC901      0.1776
      2  C2        20.3410   32.0480   64.2390 C.3   901  FUC901      0.2141
      3  C3        20.6630   33.0890   63.2220 C.3   901  FUC901      0.2172
      4  C4        20.1600   32.5810   61.8620 C.3   901  FUC901      0.2116
      5  C5        20.8710   31.2280   61.5370 C.3   901  FUC901      0.1483
      6  C6        20.4860   30.6510   60.1860 C.3   901  FUC901      0.0349
      7  O2        20.7940   32.4710   65.5240 O.3   901  FUC901     -0.2176
      8  O3        20.0480   34.3440   63.5880 O.3   901  FUC901     -0.2175
      9  O4        18.7360   32.3610   61.9400 O.3   901  FUC901     -0.2177
     10  O5        20.5570   30.2480   62.5600 O.3   901  FUC901     -0.3508
@<TRIPOS>BOND
     1     6     5    1
     2     5     4    1
     3     5    10    1
     4     4     9    1
     5     4     3    1
     6    10     1    1
     7     3     8    1
     8     3     2    1
     9     1     2    1
    10     2     7    1
