@<TRIPOS>MOLECULE
2fir_0G7_H_1.pdb
 30 31 0 0 0
SMALL
GASTEIGER

@<TRIPOS>ATOM
      1  N         35.0460    6.1040   10.1390 N.3   701  0G7701     -0.1228
      2  CA        35.4440    7.4730   10.3530 C.3   701  0G7701      0.1721
      3  C         34.0780    8.0280   10.0180 C.2   701  0G7701      0.2437
      4  O         33.1420    7.8410   10.8450 O.2   701  0G7701     -0.2733
      5  CB        35.8780    7.5350   11.8200 C.3   701  0G7701      0.0547
      6  CG        37.3120    7.0470   12.0190 C.ar  701  0G7701     -0.0202
      7  CD1       37.8610    6.9650   13.2780 C.ar  701  0G7701     -0.0042
      8  CD2       38.0670    6.6880   10.9260 C.ar  701  0G7701     -0.0042
      9  CE1       39.1670    6.5120   13.4380 C.ar  701  0G7701     -0.0003
     10  CE2       39.3720    6.2460   11.0980 C.ar  701  0G7701     -0.0003
     11  CZ        39.9320    6.1510   12.3450 C.ar  701  0G7701     -0.0000
     12  N1        33.9490    8.7000    8.8130 N.am  701  0G7701     -0.2718
     13  CA1       32.5330    9.6300    8.8600 C.3   701  0G7701      0.1535
     14  C1        31.3160    8.7150    8.8070 C.2   701  0G7701      0.2595
     15  O1        31.3570    7.6780    8.2170 O.2   701  0G7701     -0.2716
     16  CB1       32.8290   10.4450    7.6500 C.3   701  0G7701      0.0310
     17  CG1       34.3390   10.3500    7.4760 C.3   701  0G7701      0.0237
     18  CD        34.6410    8.9640    7.9250 C.3   701  0G7701      0.0939
     19  N2        30.2180    9.1050    9.3950 N.am  701  0G7701     -0.2032
     20  CA2       29.0130    8.3710    9.3290 C.3   701  0G7701      0.1257
     21  C2        28.1590    8.8930    8.0890 C.3   701  0G7701      0.1718
     22  O2        26.7760    8.6820    8.3840 O.3   701  0G7701     -0.2213
     23  CB2       28.3830    8.5100   10.7190 C.3   701  0G7701      0.0280
     24  CG2       29.1650    7.7030   11.7890 C.3   701  0G7701      0.0488
     25  CD3       28.6360    7.8490   13.2280 C.3   701  0G7701      0.2205
     26  NE        29.4140    6.9910   14.1350 N.pl3 701  0G7701     -0.0865
     27  CZ1       29.3070    6.8580   15.4670 C.cat 701  0G7701      0.5346
     28  NH1       28.4320    7.5520   16.1700 N.pl3 701  0G7701      0.1354
     29  NH2       30.1260    6.0040   16.0940 N.pl3 701  0G7701      0.1354
     30  C3        28.3860    9.5560    6.6430 C.3   701  0G7701      0.0373
@<TRIPOS>BOND
     1    30    21    1
     2    17    16    1
     3    17    18    1
     4    16    13    1
     5    18    12    1
     6    21    22    1
     7    21    20    1
     8    15    14    2
     9    14    13    1
    10    14    19   am
    11    12    13    1
    12    12     3   am
    13    20    19    1
    14    20    23    1
    15     3     2    1
    16     3     4    2
    17     1     2    1
    18     2     5    1
    19    23    24    1
    20     8    10   ar
    21     8     6   ar
    22    10    11   ar
    23    24    25    1
    24     5     6    1
    25     6     7   ar
    26    11     9   ar
    27    25    26    1
    28     7     9   ar
    29    26    27    2
    30    27    29    1
    31    27    28    1
