@<TRIPOS>MOLECULE
2fir_GLC_L_1.pdb
 11 11 0 0 0
SMALL
GASTEIGER

@<TRIPOS>ATOM
      1  C1        38.3420   33.8110   63.5940 C.3   801  GLC801      0.1777
      2  C2        38.2570   32.3370   63.1210 C.3   801  GLC801      0.2141
      3  C3        39.0590   32.1850   61.8340 C.3   801  GLC801      0.2173
      4  C4        38.5620   33.0590   60.8280 C.3   801  GLC801      0.2142
      5  C5        38.5760   34.5210   61.3270 C.3   801  GLC801      0.1810
      6  C6        37.8760   35.5080   60.3440 C.3   801  GLC801      0.2141
      7  O2        38.7420   31.4390   64.1330 O.3   801  GLC801     -0.2176
      8  O3        39.0260   30.8050   61.3870 O.3   801  GLC801     -0.2175
      9  O4        39.2940   32.9640   59.5520 O.3   801  GLC801     -0.2176
     10  O5        37.8880   34.6320   62.5630 O.3   801  GLC801     -0.3481
     11  O6        37.3120   36.7000   60.9680 O.3   801  GLC801     -0.2176
@<TRIPOS>BOND
     1     9     4    1
     2     6    11    1
     3     6     5    1
     4     4     5    1
     5     4     3    1
     6     5    10    1
     7     8     3    1
     8     3     2    1
     9    10     1    1
    10     2     1    1
    11     2     7    1
