@<TRIPOS>MOLECULE
2fit_FRU_A_1.pdb
 12 12 0 0 0
SMALL
GASTEIGER

@<TRIPOS>ATOM
      1  C1        10.2040   15.5650   47.7250 C.3   500  FRU500      0.2434
      2  C2        11.1420   14.7330   46.7510 C.3   500  FRU500      0.2807
      3  C3        12.6420   14.7220   47.0700 C.3   500  FRU500      0.2409
      4  C4        13.3640   15.0420   45.7460 C.3   500  FRU500      0.2168
      5  C5        12.2980   15.8090   44.9960 C.3   500  FRU500      0.1836
      6  C6        12.2370   15.3830   43.5330 C.3   500  FRU500      0.2142
      7  O1        10.9910   16.6060   48.3840 O.3   500  FRU500     -0.2148
      8  O2        10.5500   13.4870   46.5890 O.3   500  FRU500     -0.1896
      9  O3        13.4290   13.8610   47.9050 O.3   500  FRU500     -0.2149
     10  O4        14.5870   15.7300   45.9620 O.3   500  FRU500     -0.2175
     11  O5        11.0490   15.5930   45.6470 O.3   500  FRU500     -0.3253
     12  O6        11.3280   16.1890   42.9480 O.3   500  FRU500     -0.2176
@<TRIPOS>BOND
     1    12     6    1
     2     6     5    1
     3     5    11    1
     4     5     4    1
     5    11     2    1
     6     4    10    1
     7     4     3    1
     8     8     2    1
     9     2     3    1
    10     2     1    1
    11     3     9    1
    12     1     7    1
