@<TRIPOS>MOLECULE
2fix_870_A_1.pdb
 30 33 0 0 0
SMALL
GASTEIGER

@<TRIPOS>ATOM
      1  C         49.4390   -7.4190   22.7650 C.ar  701  870701      0.0136
      2  C1        48.0420   -7.1840   22.8550 C.ar  701  870701      0.0123
      3  C2        47.5550   -5.8640   22.9660 C.ar  701  870701      0.0591
      4  C3        48.4120   -4.7910   22.9920 C.ar  701  870701      0.0325
      5  C4        49.8130   -4.9770   22.9110 C.ar  701  870701      0.1385
      6  C5        50.3380   -6.3120   22.7940 C.ar  701  870701      0.0766
      7  S         50.8060   -3.5230   22.9680 S.O2  701  870701      0.0984
      8  O1        49.9390   -2.3670   23.0470 O.2   701  870701     -0.1481
      9  O2        51.7180   -3.5610   21.8490 O.2   701  870701     -0.1481
     10  N         51.7010   -3.5390   24.3350 N.pl3 701  870701     -0.0290
     11  C6        51.1820   -3.1360   25.6750 C.2   701  870701      0.3864
     12  N1        49.8940   -2.7300   25.9710 N.2   701  870701     -0.3490
     13  C7        49.9070   -2.4390   27.2980 C.2   701  870701      0.1731
     14  C8        48.8500   -1.9780   28.0470 C.2   701  870701      0.0680
     15  C9        49.0250   -1.7080   29.3950 C.2   701  870701      0.1233
     16  C10       50.3060   -1.9100   29.9990 C.3   701  870701      0.0934
     17  C11       51.4080   -2.3850   29.2420 C.2   701  870701      0.0227
     18  C12       51.1850   -2.6730   27.7860 C.2   701  870701      0.1755
     19  O3        51.9820   -3.1070   26.7990 O.2   701  870701     -0.4120
     20 CL2        45.8710   -5.5850   23.0720 Cl    701  870701     -0.0822
     21 CL1        52.0490   -6.6450   22.6780 Cl    701  870701     -0.0808
     22  O4        47.8850   -1.2230   30.0570 O.2   701  870701     -0.4753
     23  C13       48.0420   -0.7980   31.3970 C.3   701  870701      0.2520
     24  C14       55.1920   -3.2130   29.8120 C.ar  701  870701      0.0014
     25  C15       55.3750   -2.8770   31.1680 C.ar  701  870701      0.0181
     26  C19       54.2940   -2.3830   31.9210 C.ar  701  870701      0.0891
     27  C16       53.0110   -2.2290   31.3160 C.ar  701  870701      0.0179
     28  C17       52.7990   -2.5630   29.9350 C.ar  701  870701      0.0008
     29  C18       53.9230   -3.0510   29.2150 C.ar  701  870701     -0.0001
     30  N2        54.4710   -2.0590   33.2240 N.pl3 701  870701     -0.1281
@<TRIPOS>BOND
     1     9     7    2
     2    21     6    1
     3     1     6   ar
     4     1     2   ar
     5     6     5   ar
     6     2     3   ar
     7     5     7    1
     8     5     4   ar
     9     3     4   ar
    10     3    20    1
    11     7     8    2
    12     7    10    1
    13    10    11    1
    14    11    12    2
    15    11    19    1
    16    12    13    2
    17    19    18    1
    18    13    18    1
    19    13    14    1
    20    18    17    2
    21    14    15    2
    22    29    24   ar
    23    29    28   ar
    24    17    28    1
    25    17    16    1
    26    15    16    1
    27    15    22    1
    28    24    25   ar
    29    28    27   ar
    30    22    23    1
    31    25    26   ar
    32    27    26   ar
    33    26    30    1
