@<TRIPOS>MOLECULE
2fj0_TFC_A_1.pdb
 16 15 0 0 0
SMALL
GASTEIGER

@<TRIPOS>ATOM
      1  C1        35.3740   48.8220   76.9990 C.3   600  TFC600      0.0000
      2  C2        35.5220   49.9570   75.9790 C.3   600  TFC600      0.0000
      3  C3        34.7200   49.6510   74.7150 C.3   600  TFC600      0.0000
      4  C4        34.7440   50.8190   73.7290 C.3   600  TFC600      0.0000
      5  C5        33.9090   50.4980   72.4840 C.3   600  TFC600      0.0000
      6  C6        34.5670   49.3710   71.6880 C.3   600  TFC600      0.0009
      7  C7        33.6600   48.7890   70.6010 C.3   600  TFC600      0.0116
      8  C8        33.3130   49.7870   69.4930 C.3   600  TFC600      0.0576
      9  S1        32.5630   48.9280   68.0640 S.3   600  TFC600     -0.1373
     10  C9        31.6060   50.2850   67.3000 C.3   600  TFC600      0.0993
     11  C10       30.2610   49.8280   66.7270 C.3   600  TFC600      0.2567
     12  O1        30.4970   48.7140   65.8590 O.3   600  TFC600     -0.2130
     13  C11       29.1990   49.4580   67.7700 C.3   600  TFC600      0.4261
     14  F1        28.0620   49.1600   67.1500 F     600  TFC600     -0.1673
     15  F2        28.9490   50.4840   68.5780 F     600  TFC600     -0.1673
     16  F3        29.5680   48.4150   68.5080 F     600  TFC600     -0.1673
@<TRIPOS>BOND
     1    12    11    1
     2    11    10    1
     3    11    13    1
     4    14    13    1
     5    10     9    1
     6    13    16    1
     7    13    15    1
     8     9     8    1
     9     8     7    1
    10     7     6    1
    11     6     5    1
    12     5     4    1
    13     4     3    1
    14     3     2    1
    15     2     1    1
