@<TRIPOS>MOLECULE
2fj1_CTC_A_1.pdb
 33 36 0 0 0
SMALL
GASTEIGER

@<TRIPOS>ATOM
      1  C1        20.0740   34.7510   34.1660 C.2   222  CTC222      0.2144
      2  O1        19.5160   35.3400   33.1800 O.2   222  CTC222     -0.2881
      3  C2        19.5270   33.6880   34.9720 C.2   222  CTC222      0.1300
      4  C2'       18.3080   33.0100   34.5420 C.2   222  CTC222      0.2899
      5  O2'       17.7920   32.1670   35.2250 O.2   222  CTC222     -0.2665
      6  N2'       17.6400   33.4400   33.5070 N.am  222  CTC222     -0.0835
      7  C3        20.1760   33.2580   36.1140 C.2   222  CTC222      0.1948
      8  O3        19.8010   32.1710   36.7710 O.2   222  CTC222     -0.2897
      9  C4        21.2630   34.0290   36.7150 C.3   222  CTC222      0.1235
     10  N4        22.1610   33.1440   37.4430 N.3   222  CTC222     -0.2651
     11  C4'       22.8780   33.9840   38.4130 C.3   222  CTC222      0.0900
     12  C4D       23.0600   32.4410   36.5790 C.3   222  CTC222      0.0900
     13  C4A       21.8500   35.1880   35.8260 C.3   222  CTC222      0.0643
     14  C5        21.1760   36.4820   36.1730 C.3   222  CTC222      0.0084
     15  C5A       21.8580   37.6480   35.4930 C.3   222  CTC222      0.0420
     16  C6        21.0420   38.9510   35.6990 C.3   222  CTC222      0.1464
     17  O6        19.6370   38.8920   35.8920 O.3   222  CTC222     -0.2212
     18  C6'       21.5030   39.2580   37.1270 C.3   222  CTC222      0.0376
     19  C6A       21.5230   40.0970   34.8920 C.ar  222  CTC222      0.0171
     20  C7        21.1880   41.4590   35.1750 C.ar  222  CTC222      0.0559
     21 CL7        20.1360   42.0290   36.4590 Cl    222  CTC222     -0.0825
     22  C8        21.7520   42.4780   34.4940 C.ar  222  CTC222      0.0144
     23  C9        22.5930   42.1900   33.4380 C.ar  222  CTC222      0.0426
     24  C10       22.9170   40.8970   33.0880 C.ar  222  CTC222      0.1939
     25  O10       23.6770   40.7480   32.0370 O.3   222  CTC222     -0.2868
     26  C6B       22.3820   39.8250   33.8260 C.ar  222  CTC222      0.0462
     27  C11       22.6190   38.4720   33.3530 C.3   222  CTC222      0.1841
     28  O11       22.9900   38.4430   32.0550 O.3   222  CTC222     -0.2177
     29  C5B       22.1120   37.3820   34.0380 C.3   222  CTC222      0.0979
     30  C12       22.1020   36.0840   33.5080 C.2   222  CTC222      0.1876
     31  O12       22.4000   35.7920   32.3070 O.2   222  CTC222     -0.2930
     32  C4B       21.6050   34.9330   34.3620 C.3   222  CTC222      0.2331
     33  O4B       22.3170   33.7330   33.9050 O.3   222  CTC222     -0.2101
@<TRIPOS>BOND
     1    25    24    1
     2    28    27    1
     3    31    30    2
     4    24    23   ar
     5    24    26   ar
     6     2     1    2
     7    27    26    1
     8    27    29    1
     9    23    22   ar
    10     6     4   am
    11    30    29    1
    12    30    32    1
    13    26    19   ar
    14    33    32    1
    15    29    15    1
    16     1    32    1
    17     1     3    1
    18    32    13    1
    19    22    20   ar
    20     4     3    1
    21     4     5    2
    22    19    20   ar
    23    19    16    1
    24     3     7    2
    25    20    21    1
    26    15    16    1
    27    15    14    1
    28    16    17    1
    29    16    18    1
    30    13    14    1
    31    13     9    1
    32     7     9    1
    33     7     8    1
    34    12    10    1
    35     9    10    1
    36    10    11    1
