@<TRIPOS>MOLECULE
2fja_ADX_C_1.pdb
 27 29 0 0 0
SMALL
GASTEIGER

@<TRIPOS>ATOM
      1  SB        23.3620   -8.1960  127.6910 S.3   1200  ADX1200     0.0049
      2  O1B       24.4480   -8.9810  128.2040 O.2   1200  ADX1200    -0.3449
      3  O2B       22.3410   -7.8780  128.6270 O.3   1200  ADX1200    -0.2679
      4  O3B       23.8560   -7.0090  127.1200 O.2   1200  ADX1200    -0.3449
      5  PA        21.7520  -10.1160  126.3550 P.3   1200  ADX1200     0.2383
      6  O1A       20.4430   -9.6330  125.9460 O.3   1200  ADX1200    -0.4361
      7  O2A       22.2160  -11.1420  125.4050 O.2   1200  ADX1200    -0.5161
      8  O3A       22.7740   -8.8720  126.4090 O.3   1200  ADX1200    -0.1945
      9  O5'       21.6370  -10.7160  127.8300 O.3   1200  ADX1200    -0.3102
     10  C5'       22.7020  -11.4940  128.4280 C.3   1200  ADX1200     0.1814
     11  C4'       22.2250  -12.2920  129.6550 C.3   1200  ADX1200     0.1821
     12  O4'       21.3790  -13.3950  129.3970 O.3   1200  ADX1200    -0.3135
     13  C3'       23.4020  -12.8650  130.4260 C.3   1200  ADX1200     0.2184
     14  O3'       23.0170  -13.1250  131.7540 O.3   1200  ADX1200    -0.2174
     15  C2'       23.6230  -14.1330  129.6300 C.3   1200  ADX1200     0.2570
     16  O2'       24.2700  -15.1200  130.4080 O.3   1200  ADX1200    -0.2130
     17  C1'       22.1830  -14.5650  129.3770 C.3   1200  ADX1200     0.3186
     18  N9        21.9130  -15.2360  128.1070 N.pl3 1200  ADX1200    -0.1439
     19  C8        21.8040  -14.6850  126.9120 C.3   1200  ADX1200     0.3377
     20  N7        21.5290  -15.6320  126.0240 N.2   1200  ADX1200    -0.2095
     21  C5        21.4610  -16.7800  126.6570 C.2   1200  ADX1200     0.2526
     22  C6        21.2140  -18.0800  126.2580 C.2   1200  ADX1200     0.4393
     23  N6        20.9760  -18.3830  124.9920 N.pl3 1200  ADX1200     0.2180
     24  N1        21.2220  -19.0640  127.2090 N.2   1200  ADX1200     0.0021
     25  C2        21.4790  -18.7420  128.5240 C.3   1200  ADX1200     0.5254
     26  N3        21.7110  -17.4990  128.8830 N.2   1200  ADX1200    -0.0055
     27  C4        21.7070  -16.5250  127.9850 C.2   1200  ADX1200     0.3518
@<TRIPOS>BOND
     1    23    22    1
     2     7     5    2
     3     6     5    1
     4    20    21    2
     5    20    19    1
     6    22    21    1
     7    22    24    2
     8     5     8    1
     9     5     9    1
    10     8     1    1
    11    21    27    1
    12    19    18    1
    13     4     1    2
    14    24    25    1
    15     1     2    2
    16     1     3    1
    17     9    10    1
    18    27    18    1
    19    27    26    2
    20    18    17    1
    21    10    11    1
    22    25    26    1
    23    17    12    1
    24    17    15    1
    25    12    11    1
    26    15    16    1
    27    15    13    1
    28    11    13    1
    29    13    14    1
