@<TRIPOS>MOLECULE
2fjb_AMP_A_1.pdb
 23 25 0 0 0
SMALL
GASTEIGER

@<TRIPOS>ATOM
      1  P         22.7970  -11.0040  126.6500 P.3   1302  AMP1302     0.5327
      2  O1P       23.9340  -10.3210  127.2720 O.3   1302  AMP1302    -0.1145
      3  O2P       23.1220  -12.0270  125.7420 O.2   1302  AMP1302    -0.2224
      4  O3P       22.0280   -9.8740  126.0910 O.3   1302  AMP1302    -0.1145
      5  O5'       22.0320  -11.7850  127.6490 O.3   1302  AMP1302    -0.2675
      6  C5'       21.6260  -11.0630  128.9670 C.3   1302  AMP1302     0.1860
      7  C4'       21.9990  -12.1440  130.1090 C.3   1302  AMP1302     0.1823
      8  O4'       21.4700  -13.3940  129.8300 O.3   1302  AMP1302    -0.3135
      9  C3'       23.4610  -12.4690  130.4640 C.3   1302  AMP1302     0.2184
     10  O3'       23.2530  -12.5500  131.9080 O.3   1302  AMP1302    -0.2174
     11  C2'       23.7540  -13.8970  129.9160 C.3   1302  AMP1302     0.2570
     12  O2'       24.3640  -14.7600  130.8630 O.3   1302  AMP1302    -0.2130
     13  C1'       22.3960  -14.3670  129.2650 C.3   1302  AMP1302     0.3186
     14  N9        22.1000  -15.2660  128.5900 N.pl3 1302  AMP1302    -0.1439
     15  C8        21.9620  -15.0340  127.2180 C.3   1302  AMP1302     0.3377
     16  N7        21.6200  -16.0470  126.4330 N.2   1302  AMP1302    -0.2095
     17  C5        21.5220  -17.0620  127.3840 C.2   1302  AMP1302     0.2526
     18  C6        21.1810  -18.5090  127.3540 C.2   1302  AMP1302     0.4393
     19  N6        20.8870  -19.0400  126.1820 N.pl3 1302  AMP1302     0.2180
     20  N1        21.1840  -19.2440  128.5560 N.2   1302  AMP1302     0.0021
     21  C2        21.4860  -18.7170  129.8140 C.3   1302  AMP1302     0.5254
     22  N3        21.8100  -17.3640  129.9080 N.2   1302  AMP1302    -0.0055
     23  C4        21.8170  -16.5920  128.6990 C.2   1302  AMP1302     0.3518
@<TRIPOS>BOND
     1     3     1    2
     2     4     1    1
     3    19    18    1
     4    16    15    1
     5    16    17    2
     6     1     2    1
     7     1     5    1
     8    15    14    1
     9    18    17    1
    10    18    20    2
    11    17    23    1
    12     5     6    1
    13    20    21    1
    14    14    23    1
    15    14    13    1
    16    23    22    2
    17     6     7    1
    18    13     8    1
    19    13    11    1
    20    21    22    1
    21     8     7    1
    22    11     9    1
    23    11    12    1
    24     7     9    1
    25     9    10    1
