@<TRIPOS>MOLECULE
2fjk_13P_A_1.pdb
 10 9 0 0 0
SMALL
GASTEIGER

@<TRIPOS>ATOM
      1  P         54.4010   64.5070   52.1770 P.3   1063  13P1063     0.5330
      2  O1P       55.1150   64.5710   50.7420 O.2   1063  13P1063    -0.2224
      3  O2P       55.5100   64.8740   53.2460 O.3   1063  13P1063    -0.1145
      4  O3P       53.8890   63.0560   52.4300 O.3   1063  13P1063    -0.1145
      5  O1        53.1800   65.5510   52.1810 O.3   1063  13P1063    -0.2621
      6  C1        52.0080   65.2300   52.9270 C.3   1063  13P1063     0.2204
      7  C2        51.1950   66.5000   52.9600 C.2   1063  13P1063     0.2140
      8  O2        51.7260   67.5440   53.3300 O.2   1063  13P1063    -0.2906
      9  C3        49.7260   66.5010   52.5390 C.3   1063  13P1063     0.2485
     10  O3        49.2100   67.8280   52.5410 O.3   1063  13P1063    -0.2118
@<TRIPOS>BOND
     1     2     1    2
     2     1     5    1
     3     1     4    1
     4     1     3    1
     5     5     6    1
     6     9    10    1
     7     9     7    1
     8     6     7    1
     9     7     8    2
