@<TRIPOS>MOLECULE
2fjm_073_A_1.pdb
 43 47 0 0 0
SMALL
GASTEIGER

@<TRIPOS>ATOM
      1  O71       26.8300   29.0640   22.2870 O.2   800  073800     -0.2449
      2  C65       26.0380   29.9010   21.8760 C.2   800  073800      0.3413
      3  O66       26.1150   31.2570   22.4140 O.3   800  073800     -0.4413
      4  C67       27.0540   31.6250   23.4380 C.3   800  073800      0.2560
      5  C58       24.9480   29.5460   20.8810 C.ar  800  073800      0.0756
      6  C57       24.7260   28.2150   20.5020 C.ar  800  073800      0.0062
      7  C56       23.6980   27.9060   19.6050 C.ar  800  073800     -0.0025
      8  C59       24.1420   30.5620   20.3590 C.ar  800  073800      0.0062
      9  C60       23.1180   30.2600   19.4610 C.ar  800  073800     -0.0025
     10  C55       22.8920   28.9290   19.0830 C.ar  800  073800     -0.0038
     11  C11       21.7690   28.5760   18.1350 C.3   800  073800      0.1057
     12  N12       20.9150   27.5180   18.7970 N.pl3 800  073800     -0.2007
     13  N23       20.3670   26.4750   18.0470 N.pl3 800  073800     -0.0442
     14  N22       19.6390   25.7330   18.9760 N.2   800  073800     -0.1422
     15  C18       19.7350   26.3150   20.1980 C.2   800  073800      0.1161
     16  C17       19.1880   25.9380   21.4260 C.2   800  073800      0.0178
     17  C19       20.5380   27.4580   20.1020 C.2   800  073800      0.0839
     18  C20       20.7870   28.2190   21.2570 C.2   800  073800     -0.0037
     19  C21       20.2350   27.8400   22.4900 C.3   800  073800      0.0534
     20  C16       19.4300   26.7010   22.5720 C.2   800  073800     -0.0197
     21  C13       22.4130   28.0040   16.8480 C.3   800  073800      0.0509
     22  C2        23.1850   28.9740   15.9740 C.ar  800  073800     -0.0202
     23  C3        22.5210   29.7220   14.9980 C.ar  800  073800     -0.0043
     24  C4        23.2290   30.5840   14.1720 C.ar  800  073800      0.0011
     25  C5        24.6180   30.7120   14.2890 C.ar  800  073800      0.0444
     26  C28       25.3620   31.6660   13.3910 C.3   800  073800      0.3249
     27  F30       24.5770   32.7210   13.2200 F     800  073800     -0.1920
     28  P31       25.8490   30.9770   11.7260 P.3   800  073800      0.1831
     29  O34       26.8700   29.9050   11.9240 O.3   800  073800     -0.3533
     30  O33       24.5690   30.4540   11.1440 O.3   800  073800     -0.3533
     31  O32       26.4000   32.2290   11.1070 O.2   800  073800     -0.4543
     32  F29       26.4540   32.1090   14.0000 F     800  073800     -0.1920
     33  C6        25.2810   29.9650   15.2600 C.ar  800  073800      0.0011
     34  C1        24.5760   29.0830   16.0880 C.ar  800  073800     -0.0043
     35  C37       20.8560   29.7900   17.8740 C.3   800  073800      0.0505
     36  C38       19.6220   29.4730   17.0270 C.2   800  073800     -0.0241
     37  C41       19.1760   30.3060   16.0720 C.2   800  073800     -0.0045
     38  C43       17.9620   30.0230   15.2460 C.ar  800  073800     -0.0003
     39  C49       17.4150   31.0450   14.4760 C.ar  800  073800     -0.0000
     40  C48       16.2820   30.8160   13.6890 C.ar  800  073800     -0.0000
     41  C47       15.6750   29.5620   13.6840 C.ar  800  073800     -0.0000
     42  C46       16.2170   28.5240   14.4550 C.ar  800  073800     -0.0000
     43  C45       17.3510   28.7610   15.2400 C.ar  800  073800     -0.0000
@<TRIPOS>BOND
     1    31    28    2
     2    30    28    1
     3    28    29    1
     4    28    26    1
     5    27    26    1
     6    26    32    1
     7    26    25    1
     8    41    40   ar
     9    41    42   ar
    10    40    39   ar
    11    24    25   ar
    12    24    23   ar
    13    25    33   ar
    14    42    43   ar
    15    39    38   ar
    16    23    22   ar
    17    43    38   ar
    18    38    37    1
    19    33    34   ar
    20    22    34   ar
    21    22    21    1
    22    37    36    2
    23    21    11    1
    24    36    35    1
    25    35    11    1
    26    13    12    1
    27    13    14    1
    28    11    12    1
    29    11    10    1
    30    12    17    1
    31    14    15    2
    32    10     9   ar
    33    10     7   ar
    34     9     8   ar
    35     7     6   ar
    36    17    15    1
    37    17    18    2
    38    15    16    1
    39     8     5   ar
    40     6     5   ar
    41     5     2    1
    42    18    19    1
    43    16    20    2
    44     2     1    2
    45     2     3    1
    46     3     4    1
    47    19    20    1
