@<TRIPOS>MOLECULE
2fjn_073_A_1.pdb
 43 47 0 0 0
SMALL
GASTEIGER

@<TRIPOS>ATOM
      1  O71       35.2030   50.6020   55.2820 O.2   401  073401     -0.2449
      2  C65       36.1970   49.9800   55.5170 C.2   401  073401      0.3413
      3  O66       37.1310   50.4100   56.3590 O.3   401  073401     -0.4413
      4  C67       36.8440   50.4060   57.7730 C.3   401  073401      0.2560
      5  C58       36.4750   48.6790   54.8840 C.ar  401  073401      0.0756
      6  C57       37.8230   48.2820   54.6800 C.ar  401  073401      0.0062
      7  C56       38.1130   47.0450   54.0780 C.ar  401  073401     -0.0025
      8  C59       35.4220   47.8160   54.4770 C.ar  401  073401      0.0062
      9  C60       35.7190   46.5820   53.8770 C.ar  401  073401     -0.0025
     10  C55       37.0700   46.1540   53.6550 C.ar  401  073401     -0.0038
     11  C11       37.5430   44.7870   52.9750 C.3   401  073401      0.1057
     12  N12       38.4510   44.1510   53.4780 N.pl3 401  073401     -0.2007
     13  N23       39.5180   43.6990   52.7490 N.pl3 401  073401     -0.0442
     14  N22       40.2240   43.0710   53.6930 N.2   401  073401     -0.1422
     15  C18       39.7500   43.0520   54.9640 C.2   401  073401      0.1161
     16  C17       40.2170   42.5070   56.1320 C.2   401  073401      0.0178
     17  C19       38.5120   43.7890   54.8920 C.2   401  073401      0.0839
     18  C20       37.7790   43.9430   56.0880 C.2   401  073401     -0.0037
     19  C21       38.2480   43.3880   57.3020 C.3   401  073401      0.0534
     20  C16       39.4760   42.6660   57.3190 C.2   401  073401     -0.0197
     21  C13       37.9040   45.3370   51.5090 C.3   401  073401      0.0509
     22  C2        36.9670   46.1260   50.5980 C.ar  401  073401     -0.0202
     23  C3        36.1640   45.4420   49.6660 C.ar  401  073401     -0.0043
     24  C4        35.2650   46.1260   48.8360 C.ar  401  073401      0.0011
     25  C5        35.1320   47.5430   48.9060 C.ar  401  073401      0.0444
     26  C28       34.1320   48.2590   48.0370 C.3   401  073401      0.3249
     27  F30       33.0980   47.4290   47.9410 F     401  073401     -0.1920
     28  P31       34.6650   48.7380   46.3330 P.3   401  073401      0.1831
     29  O34       35.8200   49.7490   46.4460 O.3   401  073401     -0.3533
     30  O33       35.0700   47.4950   45.6640 O.3   401  073401     -0.3533
     31  O32       33.4700   49.4130   45.6190 O.2   401  073401     -0.4543
     32  F29       33.7430   49.4000   48.6400 F     401  073401     -0.1920
     33  C6        35.9470   48.2480   49.8340 C.ar  401  073401      0.0011
     34  C1        36.8490   47.5440   50.6660 C.ar  401  073401     -0.0043
     35  C37       36.2770   43.9060   52.7920 C.3   401  073401      0.0505
     36  C38       36.5200   42.6230   52.0140 C.2   401  073401     -0.0241
     37  C41       35.5760   42.0260   51.2590 C.2   401  073401     -0.0045
     38  C43       35.7730   40.7760   50.4910 C.ar  401  073401     -0.0003
     39  C49       35.0430   40.5340   49.3070 C.ar  401  073401     -0.0000
     40  C48       35.2370   39.3360   48.5830 C.ar  401  073401     -0.0000
     41  C47       36.1600   38.3640   49.0310 C.ar  401  073401     -0.0000
     42  C46       36.9020   38.5860   50.2170 C.ar  401  073401     -0.0000
     43  C45       36.7110   39.7940   50.9520 C.ar  401  073401     -0.0000
@<TRIPOS>BOND
     1    31    28    2
     2    30    28    1
     3    28    29    1
     4    28    26    1
     5    27    26    1
     6    26    32    1
     7    26    25    1
     8    40    41   ar
     9    40    39   ar
    10    24    25   ar
    11    24    23   ar
    12    25    33   ar
    13    41    42   ar
    14    39    38   ar
    15    23    22   ar
    16    33    34   ar
    17    42    43   ar
    18    38    43   ar
    19    38    37    1
    20    22    34   ar
    21    22    21    1
    22    37    36    2
    23    21    11    1
    24    36    35    1
    25    13    12    1
    26    13    14    1
    27    35    11    1
    28    11    12    1
    29    11    10    1
    30    12    17    1
    31    10     9   ar
    32    10     7   ar
    33    14    15    2
    34     9     8   ar
    35     7     6   ar
    36     8     5   ar
    37     6     5   ar
    38     5     2    1
    39    17    15    1
    40    17    18    2
    41    15    16    1
    42     1     2    2
    43     2     3    1
    44    18    19    1
    45    16    20    2
    46     3     4    1
    47    19    20    1
