@<TRIPOS>MOLECULE
2fjp_S14_A_1.pdb
 31 34 0 0 0
SMALL
GASTEIGER

@<TRIPOS>ATOM
      1  C1        47.5750   52.1530   33.8220 C.ar  1001  S141001     0.1656
      2  C2        46.4920   52.6560   32.9590 C.ar  1001  S141001     0.0389
      3  C3        45.1990   52.4720   33.3700 C.ar  1001  S141001     0.0047
      4  C4        44.8740   51.8040   34.6720 C.ar  1001  S141001     0.0193
      5  C5        45.8940   51.3480   35.4530 C.ar  1001  S141001     0.1021
      6  N6        47.2840   51.5540   35.0120 N.ar  1001  S141001    -0.2092
      7  N7        48.3290   51.2050   35.5900 N.ar  1001  S141001    -0.1409
      8  C8        49.3290   51.6060   34.7910 C.ar  1001  S141001     0.2213
      9  N9        48.9020   52.2150   33.6670 N.ar  1001  S141001    -0.2034
     10  C14       43.4820   51.6330   35.1370 C.ar  1001  S141001     0.0015
     11  C15       42.5980   52.7380   35.0280 C.ar  1001  S141001    -0.0003
     12  C16       41.2820   52.6580   35.4820 C.ar  1001  S141001    -0.0037
     13  C17       40.7780   51.4710   36.0630 C.ar  1001  S141001    -0.0120
     14  C18       41.6620   50.3360   36.1660 C.ar  1001  S141001    -0.0037
     15  C19       43.0040   50.4110   35.7080 C.ar  1001  S141001    -0.0003
     16  C24       39.3180   51.4860   36.5720 C.3   1001  S141001     0.1253
     17  C25       38.3460   50.9900   35.4420 C.3   1001  S141001     0.1804
     18  C26       36.8970   51.0300   36.0240 C.2   1001  S141001     0.2440
     19  N27       36.1220   49.9680   35.7960 N.am  1001  S141001    -0.2755
     20  C28       39.2940   50.4530   37.7980 C.2   1001  S141001     0.2313
     21  N30       38.4220   51.8230   34.2480 N.3   1001  S141001    -0.1222
     22  O32       36.5100   51.9960   36.6630 O.2   1001  S141001    -0.2733
     23  O33       38.6650   49.3860   37.8000 O.2   1001  S141001    -0.2745
     24  N34       39.9030   50.9550   38.9830 N.am  1001  S141001    -0.2757
     25  C35       39.8980   50.0390   40.1500 C.3   1001  S141001     0.1149
     26  C39       40.5090   52.2830   39.1860 C.3   1001  S141001     0.1149
     27  C43       36.5690   48.5480   35.4690 C.3   1001  S141001     0.1286
     28  C44       35.3620   47.6860   35.5160 C.3   1001  S141001     0.1824
     29  C45       34.1870   48.6370   35.5250 C.3   1001  S141001     0.0585
     30  C46       34.6860   50.0130   35.9680 C.3   1001  S141001     0.0964
     31  F53       35.3670   47.0210   36.7240 F     1001  S141001    -0.2354
@<TRIPOS>BOND
     1     2     3   ar
     2     2     1   ar
     3     3     4   ar
     4     9     1   ar
     5     9     8   ar
     6     1     6   ar
     7    21    17    1
     8     4    10    1
     9     4     5   ar
    10     8     7   ar
    11     6     5   ar
    12     6     7   ar
    13    11    10   ar
    14    11    12   ar
    15    10    15   ar
    16    17    18    1
    17    17    16    1
    18    27    28    1
    19    27    19    1
    20    12    13   ar
    21    28    29    1
    22    28    31    1
    23    29    30    1
    24    15    14   ar
    25    19    30    1
    26    19    18   am
    27    18    22    2
    28    13    14   ar
    29    13    16    1
    30    16    20    1
    31    20    23    2
    32    20    24   am
    33    24    26    1
    34    24    25    1
