@<TRIPOS>MOLECULE
2fju_GSP_A_1.pdb
 32 34 0 0 0
SMALL
GASTEIGER

@<TRIPOS>ATOM
      1  PG        54.2420  106.0060   23.1390 P.3   2466  GSP2466     0.4340
      2  O3B       53.3520  107.0240   24.0850 O.3   2466  GSP2466    -0.2405
      3  S1G       54.9010  107.2290   21.8740 S.3   2466  GSP2466     0.0416
      4  O2G       55.1190  105.3940   24.1550 O.3   2466  GSP2466    -0.1305
      5  O3G       53.3630  105.1390   22.2950 O.2   2466  GSP2466    -0.2423
      6  PB        52.4860  106.5310   25.4440 P.3   2466  GSP2466     0.2262
      7  O1B       51.2580  106.0380   24.8190 O.2   2466  GSP2466    -0.5168
      8  O2B       53.1040  105.5660   26.3980 O.3   2466  GSP2466    -0.4369
      9  PA        52.7620  108.2330   27.7060 P.3   2466  GSP2466     0.2189
     10  O1A       52.2660  107.3200   28.7700 O.3   2466  GSP2466    -0.4371
     11  O2A       54.2180  108.4730   27.5050 O.2   2466  GSP2466    -0.5170
     12  O3A       52.2070  107.8590   26.2970 O.3   2466  GSP2466    -0.2701
     13  O5'       52.0380  109.7030   27.8670 O.3   2466  GSP2466    -0.3112
     14  C5'       52.3150  110.8000   26.9260 C.3   2466  GSP2466     0.1813
     15  C4'       51.9630  112.1000   27.6100 C.3   2466  GSP2466     0.1799
     16  O4'       50.6410  111.9920   28.2730 O.3   2466  GSP2466    -0.3326
     17  C3'       52.9700  112.4390   28.7620 C.3   2466  GSP2466     0.2158
     18  O3'       53.3260  113.8410   28.6250 O.3   2466  GSP2466    -0.2175
     19  C2'       52.1490  112.1920   30.0880 C.3   2466  GSP2466     0.2310
     20  O2'       52.5450  113.0510   31.1690 O.3   2466  GSP2466    -0.2158
     21  C1'       50.6620  112.4350   29.6520 C.3   2466  GSP2466     0.2293
     22  N9        49.6830  111.5590   30.3670 N.pl3 2466  GSP2466    -0.2354
     23  C8        49.5630  110.1850   30.4840 C.3   2466  GSP2466     0.2246
     24  N7        48.5710  109.7560   31.2100 N.2   2466  GSP2466    -0.2322
     25  C5        47.9620  110.9480   31.6240 C.2   2466  GSP2466     0.2182
     26  C6        46.7940  111.1080   32.4680 C.1   2466  GSP2466     0.2372
     27  O6        46.1780  110.1530   32.9390 O.2   2466  GSP2466    -0.2069
     28  N1        46.5070  112.4720   32.6410 N.2   2466  GSP2466    -0.2485
     29  C2        47.2100  113.5630   32.1030 C.1   2466  GSP2466     0.2531
     30  N2        46.8120  114.7990   32.3590 N.pl3 2466  GSP2466    -0.0226
     31  N3        48.3170  113.3990   31.3070 N.2   2466  GSP2466    -0.3074
     32  C4        48.6330  112.0580   31.1110 C.2   2466  GSP2466     0.2300
@<TRIPOS>BOND
     1     3     1    1
     2     5     1    2
     3     1     2    1
     4     1     4    1
     5     2     6    1
     6     7     6    2
     7     6    12    1
     8     6     8    1
     9    12     9    1
    10    14    15    1
    11    14    13    1
    12    11     9    2
    13    15    16    1
    14    15    17    1
    15     9    13    1
    16     9    10    1
    17    16    21    1
    18    18    17    1
    19    17    19    1
    20    21    19    1
    21    21    22    1
    22    19    20    1
    23    22    23    1
    24    22    32    1
    25    23    24    1
    26    32    31    2
    27    32    25    1
    28    24    25    2
    29    31    29    2
    30    25    26    1
    31    29    30    1
    32    29    28    2
    33    26    28    2
    34    26    27    2
