@<TRIPOS>MOLECULE
2fka_CXS_A_1.pdb
 14 14 0 0 0
SMALL
GASTEIGER

@<TRIPOS>ATOM
      1  S         40.6840  -74.7270  -65.5680 S.3   143  CXS143     -0.1960
      2  O1        41.7260  -75.5300  -66.2000 O.3   143  CXS143     -0.3075
      3  O2        41.1290  -73.3510  -65.6090 O.3   143  CXS143     -0.3075
      4  O3        40.4630  -75.1430  -64.1780 O.3   143  CXS143     -0.3075
      5  C1        39.1590  -74.8750  -66.4680 C.3   143  CXS143      0.1067
      6  C2        39.2310  -74.3560  -67.9060 C.3   143  CXS143      0.0403
      7  C3        39.9950  -75.2890  -68.8310 C.3   143  CXS143      0.0903
      8  N         40.0500  -74.8580  -70.2220 N.3   143  CXS143     -0.2194
      9  C4        40.8060  -75.6750  -71.1530 C.3   143  CXS143      0.0728
     10  C5        41.2700  -74.8640  -72.3540 C.3   143  CXS143      0.0174
     11  C6        42.0520  -75.7390  -73.3140 C.3   143  CXS143      0.0014
     12  C7        41.1940  -76.9020  -73.7930 C.3   143  CXS143      0.0001
     13  C8        40.7070  -77.7210  -72.5930 C.3   143  CXS143      0.0014
     14  C9        39.9590  -76.8440  -71.6120 C.3   143  CXS143      0.0174
@<TRIPOS>BOND
     1    12    11    1
     2    12    13    1
     3    11    10    1
     4    13    14    1
     5    10     9    1
     6    14     9    1
     7     9     8    1
     8     8     7    1
     9     7     6    1
    10     6     5    1
    11     5     1    1
    12     2     1    1
    13     3     1    1
    14     1     4    1
