@<TRIPOS>MOLECULE
2fkf_G16_A_1.pdb
 20 20 0 0 0
SMALL
GASTEIGER

@<TRIPOS>ATOM
      1  C1        48.7330   48.6270   18.9360 C.3   465  G16465      0.2781
      2  C2        49.1270   49.9380   18.2450 C.3   465  G16465      0.2410
      3  C3        48.9570   49.7970   16.7420 C.3   465  G16465      0.2198
      4  C4        49.8310   48.6480   16.2770 C.3   465  G16465      0.2143
      5  C5        49.4770   47.3660   17.0380 C.3   465  G16465      0.1807
      6  C6        50.3780   46.1950   16.6590 C.3   465  G16465      0.1859
      7  O1        47.3650   48.3050   18.7040 O.3   465  G16465     -0.2416
      8  O2        48.3570   51.0310   18.7140 O.3   465  G16465     -0.2149
      9  O3        49.3100   50.9960   16.0660 O.3   465  G16465     -0.2174
     10  O4        49.6150   48.4810   14.8920 O.3   465  G16465     -0.2176
     11  O5        49.5630   47.5790   18.4450 O.3   465  G16465     -0.3254
     12  O6        51.7140   46.4670   17.0590 O.3   465  G16465     -0.2675
     13  P         52.7840   45.5820   16.4620 P.3   465  G16465      0.5327
     14  O1P       52.7790   45.7340   14.9730 O.2   465  G16465     -0.2224
     15  O2P       52.5560   44.1480   16.8430 O.3   465  G16465     -0.1145
     16  O3P       54.1510   46.0020   16.9460 O.3   465  G16465     -0.1145
     17  P'        46.7000   47.1090   19.3520 P.3   465  G16465      0.5346
     18  O1X       47.1250   47.0230   20.7930 O.3   465  G16465     -0.1145
     19  O2X       47.0480   45.8100   18.6770 O.2   465  G16465     -0.2223
     20  O3X       45.2110   47.3280   19.2680 O.3   465  G16465     -0.1145
@<TRIPOS>BOND
     1    10     4    1
     2    14    13    2
     3     9     3    1
     4     4     3    1
     5     4     5    1
     6    13    15    1
     7    13    16    1
     8    13    12    1
     9     6     5    1
    10     6    12    1
    11     3     2    1
    12     5    11    1
    13     2     8    1
    14     2     1    1
    15    11     1    1
    16    19    17    2
    17     7     1    1
    18     7    17    1
    19    20    17    1
    20    17    18    1
