@<TRIPOS>MOLECULE
2fkm_G16_X_1.pdb
 20 20 0 0 0
SMALL
GASTEIGER

@<TRIPOS>ATOM
      1  C1         4.0200   66.1880   34.8730 C.3   464  G16464      0.2781
      2  C2         2.9160   65.1230   34.8460 C.3   464  G16464      0.2410
      3  C3         1.8470   65.3910   35.8930 C.3   464  G16464      0.2198
      4  C4         2.5130   65.2120   37.2220 C.3   464  G16464      0.2143
      5  C5         3.6820   66.1900   37.3390 C.3   464  G16464      0.1807
      6  C6         4.8900   65.4470   37.8390 C.3   464  G16464      0.1859
      7  O1         3.7850   67.1580   33.8530 O.3   464  G16464     -0.2416
      8  O2         2.3210   65.0360   33.5700 O.3   464  G16464     -0.2149
      9  O3         0.7740   64.4690   35.8590 O.3   464  G16464     -0.2174
     10  O4         1.5880   65.3650   38.2900 O.3   464  G16464     -0.2176
     11  O5         4.0640   66.8580   36.1320 O.3   464  G16464     -0.3254
     12  O6         4.4770   64.1160   38.1100 O.3   464  G16464     -0.2675
     13  P          4.8640   63.4490   39.3760 P.3   464  G16464      0.5327
     14  O1P        5.5040   62.1480   39.0130 O.2   464  G16464     -0.2224
     15  O2P        3.6440   63.2420   40.1970 O.3   464  G16464     -0.1145
     16  O3P        5.8520   64.3050   40.1100 O.3   464  G16464     -0.1145
     17  P'         4.7890   68.1510   33.2980 P.3   464  G16464      0.5346
     18  O1X        4.6550   69.4940   33.9740 O.3   464  G16464     -0.1145
     19  O2X        4.5010   68.3540   31.8370 O.2   464  G16464     -0.2223
     20  O3X        6.2070   67.6570   33.4560 O.3   464  G16464     -0.1145
@<TRIPOS>BOND
     1    19    17    2
     2    17    20    1
     3    17     7    1
     4    17    18    1
     5     8     2    1
     6     7     1    1
     7     2     1    1
     8     2     3    1
     9     1    11    1
    10     9     3    1
    11     3     4    1
    12    11     5    1
    13     4     5    1
    14     4    10    1
    15     5     6    1
    16     6    12    1
    17    12    13    1
    18    14    13    2
    19    13    16    1
    20    13    15    1
