@<TRIPOS>MOLECULE
2fkn_NAD_A_1.pdb
 44 48 0 0 0
SMALL
GASTEIGER

@<TRIPOS>ATOM
      1  PA        -1.5350   -4.3020   49.0930 P.3   5555  NAD5555     0.2189
      2  O1A       -1.5820   -5.5790   49.8050 O.3   5555  NAD5555    -0.4371
      3  O2A       -2.7570   -3.8870   48.2920 O.2   5555  NAD5555    -0.5170
      4  O5B       -1.1300   -3.1900   50.1640 O.3   5555  NAD5555    -0.3112
      5  C5B       -1.0720   -1.8300   49.8230 C.3   5555  NAD5555     0.1813
      6  C4B       -0.8890   -1.0210   51.1120 C.3   5555  NAD5555     0.1821
      7  O4B       -0.9470    0.3540   50.7460 O.3   5555  NAD5555    -0.3135
      8  C3B       -2.0300   -1.2580   52.1140 C.3   5555  NAD5555     0.2184
      9  O3B       -1.5330   -1.7950   53.3320 O.3   5555  NAD5555    -0.2174
     10  C2B       -2.6720    0.1220   52.2290 C.3   5555  NAD5555     0.2570
     11  O2B       -3.2640    0.4290   53.4660 O.3   5555  NAD5555    -0.2130
     12  C1B       -1.5020    0.9950   51.8710 C.3   5555  NAD5555     0.3186
     13  N9A       -1.7730    2.4080   51.5320 N.pl3 5555  NAD5555    -0.1439
     14  C8A       -2.6480    2.9010   50.5920 C.3   5555  NAD5555     0.3377
     15  N7A       -2.5970    4.2430   50.6070 N.2   5555  NAD5555    -0.2095
     16  C5A       -1.7030    4.6350   51.5380 C.2   5555  NAD5555     0.2526
     17  C6A       -1.2470    5.8940   51.9960 C.2   5555  NAD5555     0.4393
     18  N6A       -1.7070    7.0210   51.4730 N.pl3 5555  NAD5555     0.2180
     19  N1A       -0.2850    5.9470   53.0120 N.2   5555  NAD5555     0.0021
     20  C2A        0.2110    4.7620   53.5750 C.3   5555  NAD5555     0.5254
     21  N3A       -0.2380    3.5240   53.1300 N.2   5555  NAD5555    -0.0055
     22  C4A       -1.1790    3.4760   52.1370 C.2   5555  NAD5555     0.3518
     23  O3        -0.3300   -4.3290   48.0700 O.3   5555  NAD5555    -0.2703
     24  PN         1.0500   -5.1450   48.1260 P.3   5555  NAD5555     0.2189
     25  O1N        1.7710   -4.8540   49.3860 O.3   5555  NAD5555    -0.4371
     26  O2N        0.7490   -6.5720   47.8320 O.2   5555  NAD5555    -0.5170
     27  O5D        1.7020   -4.4760   46.8360 O.3   5555  NAD5555    -0.3112
     28  C5D        2.0670   -3.1120   46.9080 C.3   5555  NAD5555     0.1813
     29  C4D        2.6220   -2.6080   45.5860 C.3   5555  NAD5555     0.1799
     30  O4D        3.8230   -3.2770   45.2510 O.3   5555  NAD5555    -0.3327
     31  C3D        1.6670   -2.8220   44.4110 C.3   5555  NAD5555     0.2158
     32  O3D        1.6550   -1.6960   43.5440 O.3   5555  NAD5555    -0.2175
     33  C2D        2.1960   -4.0640   43.7640 C.3   5555  NAD5555     0.2309
     34  O2D        1.7660   -4.2190   42.4420 O.3   5555  NAD5555    -0.2158
     35  C1D        3.6940   -3.8520   43.9700 C.3   5555  NAD5555     0.2263
     36  N1N        4.5660   -5.0460   43.9320 N.pl3 5555  NAD5555    -0.2787
     37  C2N        5.8840   -4.8030   43.6050 C.3   5555  NAD5555     0.1244
     38  C3N        6.7900   -5.8590   43.5370 C.2   5555  NAD5555     0.0544
     39  C7N        8.2080   -5.5670   43.1800 C.2   5555  NAD5555     0.2818
     40  O7N        9.0680   -6.6250   43.1060 O.2   5555  NAD5555    -0.2670
     41  N7N        8.6670   -4.3480   42.9390 N.am  5555  NAD5555    -0.0839
     42  C4N        6.3320   -7.1790   43.8010 C.2   5555  NAD5555     0.0033
     43  C5N        4.9820   -7.4140   44.1370 C.2   5555  NAD5555     0.0157
     44  C6N        4.0970   -6.3300   44.1970 C.2   5555  NAD5555     0.0633
@<TRIPOS>BOND
     1    34    33    1
     2    41    39   am
     3    40    39    2
     4    39    38    1
     5    38    37    1
     6    38    42    2
     7    32    31    1
     8    37    36    1
     9    33    35    1
    10    33    31    1
    11    42    43    1
    12    36    35    1
    13    36    44    1
    14    35    30    1
    15    43    44    2
    16    31    29    1
    17    30    29    1
    18    29    28    1
    19    27    28    1
    20    27    24    1
    21    26    24    2
    22    23    24    1
    23    23     1    1
    24    24    25    1
    25     3     1    2
    26     1     2    1
    27     1     4    1
    28     5     4    1
    29     5     6    1
    30    14    15    1
    31    14    13    1
    32    15    16    2
    33     7     6    1
    34     7    12    1
    35     6     8    1
    36    18    17    1
    37    13    12    1
    38    13    22    1
    39    16    17    1
    40    16    22    1
    41    12    10    1
    42    17    19    2
    43     8    10    1
    44     8     9    1
    45    22    21    2
    46    10    11    1
    47    19    20    1
    48    21    20    1
