@<TRIPOS>MOLECULE
2fky_N2T_A_1.pdb
 29 32 0 0 0
SMALL
GASTEIGER

@<TRIPOS>ATOM
      1  C1        22.0270   16.3490  105.6450 C.ar  604  N2T604      0.1400
      2  C2        20.9050   16.1340  106.4990 C.ar  604  N2T604      0.0276
      3  C3        20.9060   14.9220  107.2920 C.ar  604  N2T604      0.0089
      4  C4        22.0270   14.0560  107.1950 C.ar  604  N2T604      0.1363
      5  C5        23.1530   14.2680  106.3120 C.ar  604  N2T604      0.0316
      6  C6        23.1200   15.4480  105.5060 C.ar  604  N2T604      0.0319
      7  C10       19.7310   14.6070  108.1400 C.3   604  N2T604      0.0465
      8  C11       18.5190   15.4940  108.1760 C.3   604  N2T604      0.0996
      9  N12       17.7860   15.0500  109.3940 N.am  604  N2T604     -0.2616
     10  C13       18.4430   13.9430  110.0540 C.3   604  N2T604      0.0997
     11  C14       19.5280   13.5160  109.1100 C.3   604  N2T604      0.0306
     12  C17       18.3550   13.5460  111.4860 C.ar  604  N2T604     -0.0042
     13  C19       17.4590   12.4730  111.9060 C.ar  604  N2T604     -0.0027
     14  C20       17.4300   12.0460  113.2920 C.ar  604  N2T604     -0.0003
     15  C21       18.3150   12.7240  114.2380 C.ar  604  N2T604     -0.0000
     16  C22       19.2300   13.7900  113.8460 C.ar  604  N2T604     -0.0003
     17  C23       19.2250   14.2150  112.4450 C.ar  604  N2T604     -0.0027
     18  C8        16.5380   15.5200  109.6260 C.2   604  N2T604      0.3074
     19  N1        16.4810   16.8900  109.7040 N.am  604  N2T604     -0.2638
     20  C35       15.3550   17.7300  109.4030 C.3   604  N2T604      0.0798
     21  F40       21.9500   12.9980  107.9800 F     604  N2T604     -0.2045
     22  F41       22.0560   17.4310  104.9330 F     604  N2T604     -0.2042
     23  O2        15.5810   14.7580  109.7290 O.2   604  N2T604     -0.2523
     24  C15       14.1030   17.3760  110.2070 C.3   604  N2T604      0.0387
     25  C26       17.6490   17.6700  110.1070 C.3   604  N2T604      0.1164
     26  C12       14.9520   17.6680  107.9380 C.3   604  N2T604      0.0387
     27  C9        12.9200   18.2980  109.9040 C.3   604  N2T604      0.0904
     28  C16       13.7960   18.6170  107.5940 C.3   604  N2T604      0.0904
     29  N2        12.6390   18.2580  108.4360 N.3   604  N2T604     -0.2179
@<TRIPOS>BOND
     1    22     1    1
     2     6     1   ar
     3     6     5   ar
     4     1     2   ar
     5     5     4   ar
     6     2     3   ar
     7     4     3   ar
     8     4    21    1
     9     3     7    1
    10    28    26    1
    11    28    29    1
    12    26    20    1
    13     7     8    1
    14     7    11    1
    15     8     9    1
    16    29    27    1
    17    11    10    1
    18     9    18   am
    19     9    10    1
    20    20    19    1
    21    20    24    1
    22    18    19   am
    23    18    23    2
    24    19    25    1
    25    27    24    1
    26    10    12    1
    27    12    13   ar
    28    12    17   ar
    29    13    14   ar
    30    17    16   ar
    31    14    15   ar
    32    16    15   ar
