@<TRIPOS>MOLECULE
2fky_ADP_A_1.pdb
 27 29 0 0 0
SMALL
GASTEIGER

@<TRIPOS>ATOM
      1  PB        15.0950    6.5080   99.0670 P.3   601  ADP601      0.5373
      2  O1B       14.5480    7.1130   97.8390 O.2   601  ADP601     -0.2221
      3  O2B       15.6570    5.0510   98.7660 O.3   601  ADP601     -0.1143
      4  O3B       16.1580    7.3690   99.6480 O.3   601  ADP601     -0.1143
      5  PA        13.6150    7.1070  101.4420 P.3   601  ADP601      0.2231
      6  O1A       14.5810    6.7440  102.4710 O.3   601  ADP601     -0.4370
      7  O2A       13.6410    8.5660  101.2080 O.2   601  ADP601     -0.5169
      8  O3A       13.9580    6.3200  100.1140 O.3   601  ADP601     -0.2261
      9  O5'       12.1480    6.7510  101.9070 O.3   601  ADP601     -0.3111
     10  C5'       11.1710    5.8980  101.3030 C.3   601  ADP601      0.1813
     11  C4'        9.9170    5.9190  102.2620 C.3   601  ADP601      0.1821
     12  O4'        9.9750    4.6620  102.9460 O.3   601  ADP601     -0.3135
     13  C3'        9.9290    6.9840  103.3970 C.3   601  ADP601      0.2184
     14  O3'        8.6160    7.5280  103.6300 O.3   601  ADP601     -0.2174
     15  C2'       10.4730    6.2750  104.6350 C.3   601  ADP601      0.2570
     16  O2'       10.0360    6.8570  105.8710 O.3   601  ADP601     -0.2130
     17  C1'       10.0480    4.8310  104.3880 C.3   601  ADP601      0.3186
     18  N9        11.0390    3.8140  104.8880 N.pl3 601  ADP601     -0.1439
     19  C8        12.1560    3.4250  104.2130 C.3   601  ADP601      0.3377
     20  N7        12.8040    2.5140  104.9110 N.2   601  ADP601     -0.2095
     21  C5        12.1420    2.2940  106.0210 C.2   601  ADP601      0.2526
     22  C6        12.3200    1.4590  107.1350 C.2   601  ADP601      0.4393
     23  N6        13.3840    0.6430  107.1890 N.pl3 601  ADP601      0.2180
     24  N1        11.3960    1.4760  108.1740 N.2   601  ADP601      0.0021
     25  C2        10.2950    2.2920  108.1540 C.3   601  ADP601      0.5254
     26  N3        10.1120    3.1070  107.0790 N.2   601  ADP601     -0.0055
     27  C4        10.9870    3.1330  106.0140 C.2   601  ADP601      0.3518
@<TRIPOS>BOND
     1     2     1    2
     2     3     1    1
     3     1     4    1
     4     1     8    1
     5     8     5    1
     6     7     5    2
     7    10     9    1
     8    10    11    1
     9     5     9    1
    10     5     6    1
    11    11    12    1
    12    11    13    1
    13    12    17    1
    14    13    14    1
    15    13    15    1
    16    19    18    1
    17    19    20    1
    18    17    15    1
    19    17    18    1
    20    15    16    1
    21    18    27    1
    22    20    21    2
    23    27    21    1
    24    27    26    2
    25    21    22    1
    26    26    25    1
    27    22    23    1
    28    22    24    2
    29    25    24    1
