@<TRIPOS>MOLECULE
2fkz_HEM_B_1.pdb
 43 50 0 0 0
SMALL
GASTEIGER

@<TRIPOS>ATOM
      1  CHA       22.5920   35.6840   95.5660 C.2   3001  HEM3001     0.0000
      2  CHB       19.1780   32.2210   95.3700 C.2   3001  HEM3001     0.0000
      3  CHC       15.8190   35.6630   95.5100 C.2   3001  HEM3001     0.0000
      4  CHD       19.1380   39.0920   95.8820 C.2   3001  HEM3001     0.0000
      5  C1A       21.9810   34.4170   95.4950 C.ar  3001  HEM3001     0.0000
      6  C2A       22.6550   33.1230   95.5190 C.ar  3001  HEM3001     0.0000
      7  C3A       21.7000   32.1540   95.4610 C.ar  3001  HEM3001     0.0000
      8  C4A       20.4250   32.8550   95.3770 C.ar  3001  HEM3001     0.0000
      9  CMA       21.8960   30.6390   95.5390 C.3   3001  HEM3001     0.0000
     10  CAA       24.1500   32.8830   95.5730 C.3   3001  HEM3001     0.0000
     11  CBA       24.6100   32.7530   97.0110 C.3   3001  HEM3001     0.0000
     12  CGA       26.1070   32.4990   97.1250 C.2   3001  HEM3001     0.0000
     13  O1A       26.5820   31.4680   96.5920 O.co2 3001  HEM3001     0.0000
     14  O2A       26.8050   33.3310   97.7470 O.co2 3001  HEM3001     0.0000
     15  C1B       17.9250   32.8360   95.3820 C.2   3001  HEM3001     0.0000
     16  C2B       16.6070   32.1790   95.3850 C.2   3001  HEM3001     0.0000
     17  C3B       15.6670   33.1630   95.4020 C.2   3001  HEM3001     0.0000
     18  C4B       16.4020   34.4240   95.4330 C.2   3001  HEM3001     0.0000
     19  CMB       16.2680   30.6900   95.2460 C.3   3001  HEM3001     0.0000
     20  CAB       14.3250   32.9270   95.1460 C.3   3001  HEM3001     0.0000
     21  CBB       13.2180   33.6850   95.6450 C.3   3001  HEM3001     0.0000
     22  C1C       16.4070   36.8900   95.5830 C.ar  3001  HEM3001     0.0000
     23  C2C       15.6480   38.1070   95.7400 C.ar  3001  HEM3001     0.0000
     24  C3C       16.5670   39.1100   95.8780 C.ar  3001  HEM3001     0.0000
     25  C4C       17.8910   38.4600   95.8130 C.ar  3001  HEM3001     0.0000
     26  CMC       14.1200   38.2180   95.7480 C.3   3001  HEM3001     0.0000
     27  CAC       16.2970   40.4790   96.0420 C.3   3001  HEM3001     0.0000
     28  CBC       15.2470   40.9970   96.9120 C.3   3001  HEM3001     0.0000
     29  C1D       20.3990   38.4940   95.7990 C.2   3001  HEM3001     0.0000
     30  C2D       21.6550   39.2180   95.7340 C.2   3001  HEM3001     0.0000
     31  C3D       22.6370   38.2780   95.6140 C.2   3001  HEM3001     0.0000
     32  C4D       21.9780   36.9600   95.6020 C.2   3001  HEM3001     0.0000
     33  CMD       21.8150   40.7380   95.6740 C.3   3001  HEM3001     0.0000
     34  CAD       24.1050   38.6320   95.4230 C.3   3001  HEM3001     0.0000
     35  CBD       24.7050   38.0470   94.1530 C.3   3001  HEM3001     0.0000
     36  CGD       26.0650   38.6410   93.8110 C.2   3001  HEM3001     0.0000
     37  O1D       26.7710   38.0430   92.9650 O.co2 3001  HEM3001     0.0000
     38  O2D       26.4210   39.7040   94.3760 O.co2 3001  HEM3001     0.0000
     39  NA        20.6120   34.2410   95.4110 N.ar  3001  HEM3001     0.0000
     40  NB        17.7910   34.2350   95.3700 N.2   3001  HEM3001     0.0000
     41  NC        17.7800   37.0940   95.5950 N.ar  3001  HEM3001     0.0000
     42  ND        20.6040   37.1240   95.6620 N.2   3001  HEM3001     0.0000
     43 FE         19.2460   35.6920   95.4620 Fe    3001  HEM3001     0.0000
@<TRIPOS>BOND
     1    37    36   ar
     2    36    35    1
     3    36    38   ar
     4    35    34    1
     5    20    17    1
     6    20    21    1
     7    19    16    1
     8     2     8    2
     9     2    15    1
    10    40    15    2
    11    40    18    1
    12    40    43    1
    13     8    39   ar
    14     8     7   ar
    15    15    16    1
    16    16    17    2
    17    17    18    1
    18    39    43    1
    19    39     5   ar
    20    34    31    1
    21    18     3    2
    22     7     6   ar
    23     7     9    1
    24    43    41    1
    25    43    42    1
    26     5     6   ar
    27     5     1    2
    28     3    22    1
    29     6    10    1
    30     1    32    1
    31    10    11    1
    32    22    41   ar
    33    22    23   ar
    34    41    25   ar
    35    32    31    1
    36    32    42    2
    37    31    30    2
    38    42    29    1
    39    33    30    1
    40    30    29    1
    41    23    26    1
    42    23    24   ar
    43    29     4    2
    44    25    24   ar
    45    25     4    1
    46    24    27    1
    47    27    28    1
    48    13    12   ar
    49    11    12    1
    50    12    14   ar
