@<TRIPOS>MOLECULE
2fl0_HEM_A_1.pdb
 43 50 0 0 0
SMALL
GASTEIGER

@<TRIPOS>ATOM
      1  CHA       22.8390   35.9510   95.5020 C.2   3001  HEM3001     0.0000
      2  CHB       19.3880   32.5070   95.2660 C.2   3001  HEM3001     0.0000
      3  CHC       15.9650   35.9260   95.5850 C.2   3001  HEM3001     0.0000
      4  CHD       19.3690   39.3430   95.8370 C.2   3001  HEM3001     0.0000
      5  C1A       22.2190   34.7040   95.3970 C.ar  3001  HEM3001     0.0000
      6  C2A       22.9090   33.4330   95.4800 C.ar  3001  HEM3001     0.0000
      7  C3A       21.9600   32.4430   95.4420 C.ar  3001  HEM3001     0.0000
      8  C4A       20.6570   33.1280   95.3510 C.ar  3001  HEM3001     0.0000
      9  CMA       22.2150   30.9380   95.4610 C.3   3001  HEM3001     0.0000
     10  CAA       24.4080   33.2810   95.6350 C.3   3001  HEM3001     0.0000
     11  CBA       24.7850   33.2440   97.1040 C.3   3001  HEM3001     0.0000
     12  CGA       26.2880   33.1990   97.3210 C.2   3001  HEM3001     0.0000
     13  O1A       26.9430   32.2810   96.7790 O.co2 3001  HEM3001     0.0000
     14  O2A       26.8150   34.0800   98.0360 O.co2 3001  HEM3001     0.0000
     15  C1B       18.1240   33.1300   95.2240 C.2   3001  HEM3001     0.0000
     16  C2B       16.8010   32.4610   95.1450 C.2   3001  HEM3001     0.0000
     17  C3B       15.8450   33.4260   95.3080 C.2   3001  HEM3001     0.0000
     18  C4B       16.5720   34.6790   95.4580 C.2   3001  HEM3001     0.0000
     19  CMB       16.5000   30.9730   94.9680 C.3   3001  HEM3001     0.0000
     20  CAB       14.4670   33.2240   95.2290 C.3   3001  HEM3001     0.0000
     21  CBB       13.4690   33.9030   96.0630 C.3   3001  HEM3001     0.0000
     22  C1C       16.5730   37.1600   95.7180 C.ar  3001  HEM3001     0.0000
     23  C2C       15.8260   38.3880   95.7670 C.ar  3001  HEM3001     0.0000
     24  C3C       16.7610   39.3870   95.9300 C.ar  3001  HEM3001     0.0000
     25  C4C       18.1030   38.7190   95.9110 C.ar  3001  HEM3001     0.0000
     26  CMC       14.3060   38.4830   95.6700 C.3   3001  HEM3001     0.0000
     27  CAC       16.5170   40.7620   96.0930 C.3   3001  HEM3001     0.0000
     28  CBC       15.3290   41.3350   96.7210 C.3   3001  HEM3001     0.0000
     29  C1D       20.6430   38.7400   95.7770 C.2   3001  HEM3001     0.0000
     30  C2D       21.9340   39.4320   95.6970 C.2   3001  HEM3001     0.0000
     31  C3D       22.8930   38.4650   95.6190 C.2   3001  HEM3001     0.0000
     32  C4D       22.2160   37.1880   95.6630 C.2   3001  HEM3001     0.0000
     33  CMD       22.1820   40.9300   95.7590 C.3   3001  HEM3001     0.0000
     34  CAD       24.3910   38.6590   95.5150 C.3   3001  HEM3001     0.0000
     35  CBD       24.8200   38.8250   94.0710 C.3   3001  HEM3001     0.0000
     36  CGD       26.3310   38.9040   93.9100 C.2   3001  HEM3001     0.0000
     37  O1D       26.7960   39.1070   92.7650 O.co2 3001  HEM3001     0.0000
     38  O2D       27.0560   38.7610   94.9220 O.co2 3001  HEM3001     0.0000
     39  NA        20.8320   34.5240   95.3610 N.ar  3001  HEM3001     0.0000
     40  NB        17.9650   34.5070   95.3850 N.2   3001  HEM3001     0.0000
     41  NC        17.9610   37.3450   95.8050 N.ar  3001  HEM3001     0.0000
     42  ND        20.8320   37.3550   95.7530 N.2   3001  HEM3001     0.0000
     43 FE         19.4130   35.9400   95.5770 Fe    3001  HEM3001     0.0000
@<TRIPOS>BOND
     1    37    36   ar
     2    36    35    1
     3    36    38   ar
     4    35    34    1
     5    19    16    1
     6    16    15    1
     7    16    17    2
     8    15     2    1
     9    15    40    2
    10    20    17    1
    11    20    21    1
    12     2     8    2
    13    17    18    1
    14     8    39   ar
    15     8     7   ar
    16    39     5   ar
    17    39    43    1
    18    40    18    1
    19    40    43    1
    20     5     6   ar
    21     5     1    2
    22     7     9    1
    23     7     6   ar
    24    18     3    2
    25     6    10    1
    26     1    32    1
    27    34    31    1
    28    43    42    1
    29    43    41    1
    30     3    22    1
    31    31    32    1
    32    31    30    2
    33    10    11    1
    34    32    42    2
    35    26    23    1
    36    30    33    1
    37    30    29    1
    38    22    23   ar
    39    22    41   ar
    40    42    29    1
    41    23    24   ar
    42    29     4    2
    43    41    25   ar
    44     4    25    1
    45    25    24   ar
    46    24    27    1
    47    27    28    1
    48    13    12   ar
    49    11    12    1
    50    12    14   ar
