@<TRIPOS>MOLECULE
2fl2_N4T_A_1.pdb
 26 29 0 0 0
SMALL
GASTEIGER

@<TRIPOS>ATOM
      1  C1        21.9820   16.3790  105.5390 C.ar  604  N4T604      0.1400
      2  C2        20.7930   16.1550  106.2310 C.ar  604  N4T604      0.0276
      3  C3        20.7620   15.0560  107.1100 C.ar  604  N4T604      0.0089
      4  C4        21.9300   14.2420  107.2160 C.ar  604  N4T604      0.1363
      5  C5        23.1200   14.4700  106.4990 C.ar  604  N4T604      0.0316
      6  C6        23.1290   15.5560  105.6310 C.ar  604  N4T604      0.0319
      7  C10       19.5130   14.8220  107.8570 C.3   604  N4T604      0.0464
      8  C11       18.4410   15.8970  108.1650 C.3   604  N4T604      0.0981
      9  N12       17.3760   15.1410  108.8260 N.am  604  N4T604     -0.2759
     10  C13       17.9070   13.8440  109.2640 C.3   604  N4T604      0.0983
     11  C14       18.9770   13.6680  108.3700 C.3   604  N4T604      0.0305
     12  C17       17.8880   13.4670  110.7040 C.ar  604  N4T604     -0.0043
     13  C19       16.9850   12.4780  111.2750 C.ar  604  N4T604     -0.0027
     14  C20       17.0270   12.2270  112.6810 C.ar  604  N4T604     -0.0003
     15  C21       17.9770   12.9350  113.4740 C.ar  604  N4T604     -0.0000
     16  C22       18.8290   13.9340  112.9340 C.ar  604  N4T604     -0.0003
     17  C23       18.7820   14.2040  111.5690 C.ar  604  N4T604     -0.0027
     18  C8        16.1210   15.4850  109.2350 C.2   604  N4T604      0.2433
     19  C7        15.5870   16.9060  109.1450 C.3   604  N4T604      0.1678
     20  C35       15.9790   17.7510  110.1300 C.3   604  N4T604      0.0265
     21  F40       21.9010   13.1620  108.0260 F     604  N4T604     -0.2045
     22  F41       22.0090   17.5080  104.8360 F     604  N4T604     -0.2042
     23  O2        15.2570   14.7100  109.6430 O.2   604  N4T604     -0.2733
     24  C15       15.7780   19.1940  109.9750 C.3   604  N4T604      0.0020
     25  N1        14.3210   16.9890  108.4370 N.3   604  N4T604     -0.1231
     26  C12       17.1300   18.6460  110.1420 C.3   604  N4T604      0.0020
@<TRIPOS>BOND
     1    22     1    1
     2     1     6   ar
     3     1     2   ar
     4     6     5   ar
     5     2     3   ar
     6     5     4   ar
     7     3     4   ar
     8     3     7    1
     9     4    21    1
    10     7     8    1
    11     7    11    1
    12     8     9    1
    13    11    10    1
    14    25    19    1
    15     9    18   am
    16     9    10    1
    17    19    18    1
    18    19    20    1
    19    18    23    2
    20    10    12    1
    21    24    20    1
    22    24    26    1
    23    20    26    1
    24    12    13   ar
    25    12    17   ar
    26    13    14   ar
    27    17    16   ar
    28    14    15   ar
    29    16    15   ar
