@<TRIPOS>MOLECULE
2fl2_ADP_A_1.pdb
 27 29 0 0 0
SMALL
GASTEIGER

@<TRIPOS>ATOM
      1  PB        14.9110    6.6920   98.8940 P.3   601  ADP601      0.5373
      2  O1B       14.4370    7.2980   97.6060 O.2   601  ADP601     -0.2221
      3  O2B       15.4910    5.2310   98.6530 O.3   601  ADP601     -0.1143
      4  O3B       15.9350    7.5450   99.5220 O.3   601  ADP601     -0.1143
      5  PA        13.3010    7.2200  101.2520 P.3   601  ADP601      0.2231
      6  O1A       14.2390    6.7920  102.3030 O.3   601  ADP601     -0.4370
      7  O2A       13.3610    8.6830  101.1100 O.2   601  ADP601     -0.5169
      8  O3A       13.6740    6.5160   99.8730 O.3   601  ADP601     -0.2261
      9  O5'       11.8090    6.8440  101.6900 O.3   601  ADP601     -0.3111
     10  C5'       10.7950    6.0350  101.0740 C.3   601  ADP601      0.1813
     11  C4'        9.5680    6.0660  102.0840 C.3   601  ADP601      0.1821
     12  O4'        9.6150    4.8070  102.7730 O.3   601  ADP601     -0.3135
     13  C3'        9.6280    7.1410  103.2160 C.3   601  ADP601      0.2184
     14  O3'        8.3590    7.7790  103.4430 O.3   601  ADP601     -0.2174
     15  C2'       10.1310    6.4240  104.4760 C.3   601  ADP601      0.2570
     16  O2'        9.6550    7.0180  105.7040 O.3   601  ADP601     -0.2130
     17  C1'        9.7080    4.9800  104.2230 C.3   601  ADP601      0.3186
     18  N9        10.6900    3.9280  104.7380 N.pl3 601  ADP601     -0.1439
     19  C8        11.7430    3.4330  104.0270 C.3   601  ADP601      0.3377
     20  N7        12.4020    2.5400  104.7500 N.2   601  ADP601     -0.2095
     21  C5        11.8120    2.4330  105.9170 C.2   601  ADP601      0.2526
     22  C6        12.0460    1.6710  107.0900 C.2   601  ADP601      0.4393
     23  N6        13.0690    0.8080  107.1440 N.pl3 601  ADP601      0.2180
     24  N1        11.1950    1.8100  108.1920 N.2   601  ADP601      0.0021
     25  C2        10.1370    2.6790  108.1850 C.3   601  ADP601      0.5254
     26  N3         9.9020    3.4220  107.0540 N.2   601  ADP601     -0.0055
     27  C4        10.7080    3.3470  105.9310 C.2   601  ADP601      0.3518
@<TRIPOS>BOND
     1     2     1    2
     2     3     1    1
     3     1     4    1
     4     1     8    1
     5     8     5    1
     6    10     9    1
     7    10    11    1
     8     7     5    2
     9     5     9    1
    10     5     6    1
    11    11    12    1
    12    11    13    1
    13    12    17    1
    14    13    14    1
    15    13    15    1
    16    19    18    1
    17    19    20    1
    18    17    15    1
    19    17    18    1
    20    15    16    1
    21    18    27    1
    22    20    21    2
    23    21    27    1
    24    21    22    1
    25    27    26    2
    26    26    25    1
    27    22    23    1
    28    22    24    2
    29    25    24    1
