@<TRIPOS>MOLECULE
2fl5_RBF_B_1.pdb
 27 29 0 0 0
SMALL
GASTEIGER

@<TRIPOS>ATOM
      1  N1        89.6830   30.2980   77.7510 N.2   202  RBF202     -0.2890
      2  C2        88.5000   29.6730   78.1250 C.1   202  RBF202      0.3669
      3  O2        87.5820   29.7430   77.3590 O.2   202  RBF202     -0.1744
      4  N3        88.5120   29.0610   79.3330 N.2   202  RBF202     -0.2300
      5  C4        89.5620   28.9520   80.2460 C.1   202  RBF202      0.2513
      6  O4        89.4210   28.3730   81.2850 O.2   202  RBF202     -0.2057
      7  C4A       90.8340   29.6540   79.7990 C.2   202  RBF202      0.2700
      8  N5        91.8810   29.6150   80.5850 N.2   202  RBF202     -0.3878
      9  C5A       93.0660   30.2530   80.1740 C.2   202  RBF202      0.1320
     10  C6        94.1530   30.1810   81.1220 C.2   202  RBF202      0.0250
     11  C7        95.3180   30.8070   80.7330 C.2   202  RBF202     -0.0238
     12  C7M       96.5550   30.8200   81.6150 C.3   202  RBF202      0.0308
     13  C8        95.3940   31.5090   79.4480 C.2   202  RBF202     -0.0280
     14  C8M       96.7360   32.2090   79.0570 C.3   202  RBF202      0.0304
     15  C9        94.3700   31.6020   78.5060 C.2   202  RBF202     -0.0041
     16  C9A       93.1580   30.9530   78.9230 C.3   202  RBF202      0.1497
     17  N10       91.9530   30.9420   78.0710 N.pl3 202  RBF202     -0.2691
     18  C10       90.8350   30.2920   78.5230 C.2   202  RBF202      0.2416
     19  C1'       91.9960   31.6470   76.7420 C.3   202  RBF202      0.1294
     20  C2'       92.3270   30.5820   75.6610 C.3   202  RBF202      0.2044
     21  O2'       93.7070   30.1320   75.8020 O.3   202  RBF202     -0.2185
     22  C3'       92.3630   31.0600   74.2690 C.3   202  RBF202      0.2166
     23  O3'       93.3490   32.0680   74.1020 O.3   202  RBF202     -0.2175
     24  C4'       91.0640   31.5880   73.7480 C.3   202  RBF202      0.2175
     25  O4'       89.9000   30.7550   73.8390 O.3   202  RBF202     -0.2175
     26  C5'       91.4270   31.9700   72.2370 C.3   202  RBF202      0.2175
     27  O5'       91.2550   30.8060   71.3910 O.3   202  RBF202     -0.2175
@<TRIPOS>BOND
     1    27    26    1
     2    26    24    1
     3    24    25    1
     4    24    22    1
     5    23    22    1
     6    22    20    1
     7    20    21    1
     8    20    19    1
     9    19    17    1
    10     3     2    2
    11     1     2    2
    12     1    18    2
    13    17    18    1
    14    17    16    1
    15     2     4    2
    16    15    16    1
    17    15    13    2
    18    18     7    1
    19    16     9    1
    20    14    13    1
    21     4     5    2
    22    13    11    1
    23     7     5    1
    24     7     8    2
    25     9     8    2
    26     9    10    1
    27     5     6    2
    28    11    10    2
    29    11    12    1
