@<TRIPOS>MOLECULE
2fl6_ADP_A_1.pdb
 27 29 0 0 0
SMALL
GASTEIGER

@<TRIPOS>ATOM
      1  PB        14.9590    6.5080   98.8590 P.3   601  ADP601      0.5373
      2  O1B       14.4180    7.1040   97.6110 O.2   601  ADP601     -0.2221
      3  O2B       15.5970    5.0810   98.5660 O.3   601  ADP601     -0.1143
      4  O3B       15.9550    7.4200   99.4920 O.3   601  ADP601     -0.1143
      5  PA        13.4080    7.0110  101.1930 P.3   601  ADP601      0.2231
      6  O1A       14.3730    6.6990  102.2450 O.3   601  ADP601     -0.4370
      7  O2A       13.3990    8.4600  100.9500 O.2   601  ADP601     -0.5169
      8  O3A       13.7900    6.2620   99.8620 O.3   601  ADP601     -0.2261
      9  O5'       11.9340    6.6480  101.6330 O.3   601  ADP601     -0.3111
     10  C5'       10.9500    5.8290  101.0230 C.3   601  ADP601      0.1813
     11  C4'        9.7030    5.8720  102.0090 C.3   601  ADP601      0.1821
     12  O4'        9.7970    4.6410  102.7290 O.3   601  ADP601     -0.3135
     13  C3'        9.6970    6.9700  103.1220 C.3   601  ADP601      0.2184
     14  O3'        8.3700    7.4900  103.3510 O.3   601  ADP601     -0.2174
     15  C2'       10.2600    6.3030  104.3810 C.3   601  ADP601      0.2570
     16  O2'        9.8040    6.8890  105.6130 O.3   601  ADP601     -0.2130
     17  C1'        9.8670    4.8560  104.1640 C.3   601  ADP601      0.3186
     18  N9        10.8550    3.8380  104.6980 N.pl3 601  ADP601     -0.1439
     19  C8        11.9620    3.4100  104.0540 C.3   601  ADP601      0.3377
     20  N7        12.5950    2.5100  104.7900 N.2   601  ADP601     -0.2095
     21  C5        11.9230    2.3550  105.9010 C.2   601  ADP601      0.2526
     22  C6        12.0740    1.5570  107.0440 C.2   601  ADP601      0.4393
     23  N6        13.1090    0.7300  107.1470 N.pl3 601  ADP601      0.2180
     24  N1        11.1420    1.6380  108.0760 N.2   601  ADP601      0.0021
     25  C2        10.0570    2.4710  108.0230 C.3   601  ADP601      0.5254
     26  N3         9.9010    3.2420  106.9080 N.2   601  ADP601     -0.0055
     27  C4        10.7910    3.2110  105.8520 C.2   601  ADP601      0.3518
@<TRIPOS>BOND
     1     2     1    2
     2     3     1    1
     3     1     4    1
     4     1     8    1
     5     8     5    1
     6     7     5    2
     7    10     9    1
     8    10    11    1
     9     5     9    1
    10     5     6    1
    11    11    12    1
    12    11    13    1
    13    12    17    1
    14    13    14    1
    15    13    15    1
    16    19    18    1
    17    19    20    1
    18    17    15    1
    19    17    18    1
    20    15    16    1
    21    18    27    1
    22    20    21    2
    23    27    21    1
    24    27    26    2
    25    21    22    1
    26    26    25    1
    27    22    23    1
    28    22    24    2
    29    25    24    1
