@<TRIPOS>MOLECULE
2fl6_N5T_A_1.pdb
 24 26 0 0 0
SMALL
GASTEIGER

@<TRIPOS>ATOM
      1  C1        21.6820   16.3430  105.4500 C.ar  604  N5T604      0.1400
      2  C2        20.5380   16.2120  106.2720 C.ar  604  N5T604      0.0276
      3  C3        20.5230   15.0760  107.1180 C.ar  604  N5T604      0.0089
      4  C4        21.6600   14.1780  107.0750 C.ar  604  N5T604      0.1363
      5  C5        22.8030   14.2970  106.2080 C.ar  604  N5T604      0.0316
      6  C6        22.7780   15.4260  105.3670 C.ar  604  N5T604      0.0319
      7  C10       19.3570   14.9230  108.0400 C.3   604  N5T604      0.0465
      8  C11       18.5730   16.1430  108.4480 C.3   604  N5T604      0.0996
      9  N12       17.5170   15.6370  109.3240 N.am  604  N5T604     -0.2616
     10  C13       17.8590   14.2860  109.7570 C.3   604  N5T604      0.0997
     11  C14       18.8190   13.7490  108.7290 C.3   604  N5T604      0.0306
     12  C17       17.8080   13.7510  111.1360 C.ar  604  N5T604     -0.0042
     13  C19       16.8390   12.7170  111.5020 C.ar  604  N5T604     -0.0027
     14  C20       16.8290   12.2250  112.8750 C.ar  604  N5T604     -0.0003
     15  C21       17.7620   12.7970  113.8340 C.ar  604  N5T604     -0.0000
     16  C22       18.7250   13.8080  113.4710 C.ar  604  N5T604     -0.0003
     17  C23       18.7650   14.2730  112.0990 C.ar  604  N5T604     -0.0027
     18  C29       16.5500   16.5720  109.5430 C.2   604  N5T604      0.3075
     19  N30       15.3110   16.1700  109.5490 N.am  604  N5T604     -0.2605
     20  C31       14.4880   17.4000  109.5140 C.3   604  N5T604      0.1165
     21  C35       14.8410   14.7880  109.4530 C.3   604  N5T604      0.1165
     22  O39       16.7850   17.7760  109.7060 O.2   604  N5T604     -0.2523
     23  F40       21.6920   13.1900  107.9510 F     604  N5T604     -0.2045
     24  F41       21.7200   17.4120  104.7210 F     604  N5T604     -0.2042
@<TRIPOS>BOND
     1    24     1    1
     2     6     1   ar
     3     6     5   ar
     4     1     2   ar
     5     5     4   ar
     6     2     3   ar
     7     4     3   ar
     8     4    23    1
     9     3     7    1
    10     7     8    1
    11     7    11    1
    12     8     9    1
    13    11    10    1
    14     9    18   am
    15     9    10    1
    16    21    19    1
    17    20    19    1
    18    18    19   am
    19    18    22    2
    20    10    12    1
    21    12    13   ar
    22    12    17   ar
    23    13    14   ar
    24    17    16   ar
    25    14    15   ar
    26    16    15   ar
