@<TRIPOS>MOLECULE
2flb_6NH_H_1.pdb
 24 27 0 0 0
SMALL
GASTEIGER

@<TRIPOS>ATOM
      1  C1        12.7140    8.9120   47.5160 C.ar  1246  6NH1246     0.1002
      2  C2        12.4670    7.5450   47.2330 C.ar  1246  6NH1246     0.0108
      3  C3        11.6190    6.8280   48.0770 C.ar  1246  6NH1246     0.0360
      4  C4        11.0660    7.5150   49.1530 C.ar  1246  6NH1246     0.1741
      5  C5        11.2950    8.8410   49.4250 C.ar  1246  6NH1246     0.1744
      6  C6        12.1360    9.5930   48.5980 C.ar  1246  6NH1246     0.0437
      7  C7        13.6070    9.5990   46.6820 C.2   1246  6NH1246     0.4767
      8  N1        13.7670   10.9040   46.8370 N.pl3 1246  6NH1246     0.2047
      9  N2        14.3560    8.9660   45.7470 N.pl3 1246  6NH1246     0.2047
     10  N3        10.2780    6.9860   50.0590 N.2   1246  6NH1246    -0.3362
     11  N4        10.6500    9.2140   50.5380 N.2   1246  6NH1246    -0.3362
     12  C8        10.0590    8.0470   50.8570 C.1   1246  6NH1246     0.1569
     13  C5'        9.2980    7.8660   52.0400 C.2   1246  6NH1246     0.2011
     14  C4'        8.8100    6.6260   52.4320 C.3   1246  6NH1246     0.2462
     15  O4'        8.9500    5.4750   51.6810 O.3   1246  6NH1246    -0.2091
     16  C3'        8.1900    6.8730   53.6670 C.2   1246  6NH1246     0.1172
     17  N2'        8.2440    8.1670   54.0100 N.2   1246  6NH1246    -0.1489
     18  N1'        8.9580    8.8050   52.9240 N.2   1246  6NH1246    -0.1374
     19  C1B        7.4830    5.8660   54.3640 C.ar  1246  6NH1246     0.0182
     20  C2B        6.7720    4.8930   53.6540 C.ar  1246  6NH1246     0.0013
     21  C3B        6.0670    3.9200   54.3560 C.ar  1246  6NH1246     0.0000
     22  C4B        6.0730    3.9110   55.7420 C.ar  1246  6NH1246     0.0000
     23  C5B        6.7850    4.8850   56.4470 C.ar  1246  6NH1246     0.0000
     24  C6B        7.5050    5.8810   55.7580 C.ar  1246  6NH1246     0.0013
@<TRIPOS>BOND
     1     9     7    2
     2     7     8    1
     3     7     1    1
     4     2     1   ar
     5     2     3   ar
     6     1     6   ar
     7     3     4   ar
     8     6     5   ar
     9     4     5   ar
    10     4    10    2
    11     5    11    2
    12    10    12    2
    13    11    12    2
    14    12    13    1
    15    15    14    1
    16    13    14    1
    17    13    18    2
    18    14    16    1
    19    18    17    1
    20    20    21   ar
    21    20    19   ar
    22    16    17    2
    23    16    19    1
    24    21    22   ar
    25    19    24   ar
    26    22    23   ar
    27    24    23   ar
