@<TRIPOS>MOLECULE
2flh_ZEA_A_1.pdb
 16 17 0 0 0
SMALL
GASTEIGER

@<TRIPOS>ATOM
      1  O16       30.8910  -10.3990    0.7040 O.3   701  ZEA701     -0.2155
      2  C14       31.0110  -11.5720    1.6260 C.3   701  ZEA701      0.2042
      3  C13       29.6830  -12.2650    1.3600 C.2   701  ZEA701     -0.0115
      4  C15       28.4190  -11.5360    1.6340 C.3   701  ZEA701      0.0288
      5  C12       29.6840  -13.5800    0.7910 C.2   701  ZEA701      0.0226
      6  C11       28.4470  -14.3150    0.4180 C.3   701  ZEA701      0.2771
      7  N10       28.6100  -15.7310    0.5270 N.pl3 701  ZEA701     -0.0246
      8  C6        29.3610  -16.4190   -0.3910 C.2   701  ZEA701      0.3858
      9  C5        29.3790  -17.8010   -0.4270 C.2   701  ZEA701      0.2255
     10  N9        28.6880  -18.7740    0.3090 N.2   701  ZEA701     -0.2268
     11  C4        30.1310  -18.3780   -1.3870 C.1   701  ZEA701      0.0578
     12  N7        29.9680  -19.7410   -1.2860 N.2   701  ZEA701     -0.1914
     13  C8        29.1030  -19.9090   -0.2990 C.3   701  ZEA701      0.2618
     14  N3        30.9790  -17.7570   -2.2520 N.2   701  ZEA701     -0.1640
     15  C2        30.8580  -16.4220   -2.1670 C.3   701  ZEA701      0.4006
     16  N1        30.1250  -15.7450   -1.2610 N.2   701  ZEA701     -0.0304
@<TRIPOS>BOND
     1    14    15    1
     2    14    11    2
     3    15    16    1
     4    11    12    2
     5    11     9    1
     6    12    13    1
     7    16     8    2
     8     9     8    1
     9     9    10    2
    10     8     7    1
    11    13    10    1
    12     6     7    1
    13     6     5    1
    14     1     2    1
    15     5     3    2
    16     3     2    1
    17     3     4    1
