@<TRIPOS>MOLECULE
2fli_DX5_A_1.pdb
 14 13 0 0 0
SMALL
GASTEIGER

@<TRIPOS>ATOM
      1  C1        58.6530   99.4700   57.0220 C.3   1901  DX51901     0.2175
      2  C2        58.8520   97.9880   56.8160 C.3   1901  DX51901     0.2175
      3  C3        60.0020   97.6530   55.9200 C.3   1901  DX51901     0.2174
      4  C4        59.7480   97.9610   54.4750 C.3   1901  DX51901     0.2147
      5  C5        60.9990   98.2490   53.6870 C.3   1901  DX51901     0.1892
      6  O1        57.5490   99.7700   57.8840 O.3   1901  DX51901    -0.2175
      7  O2        59.0180   97.4050   58.1170 O.3   1901  DX51901    -0.2175
      8  O3        60.3920   96.2630   56.0510 O.3   1901  DX51901    -0.2175
      9  O4        59.0920   96.8830   53.8050 O.3   1901  DX51901    -0.2176
     10  O5        60.9500   99.0290   52.5130 O.3   1901  DX51901    -0.2674
     11  P         62.0400   99.7090   51.7690 P.3   1901  DX51901     0.5327
     12  O1P       63.2170   98.6740   51.6410 O.3   1901  DX51901    -0.1145
     13  O2P       62.3610  100.9640   52.6690 O.3   1901  DX51901    -0.1145
     14  O3P       61.3300  100.0590   50.3590 O.2   1901  DX51901    -0.2224
@<TRIPOS>BOND
     1    14    11    2
     2    12    11    1
     3    11    10    1
     4    11    13    1
     5    10     5    1
     6     5     4    1
     7     9     4    1
     8     4     3    1
     9     3     8    1
    10     3     2    1
    11     2     1    1
    12     2     7    1
    13     1     6    1
