@<TRIPOS>MOLECULE
2flk_CXS_A_1.pdb
 14 14 0 0 0
SMALL
GASTEIGER

@<TRIPOS>ATOM
      1  S         40.6030  -74.6500  -65.6680 S.3   143  CXS143     -0.1960
      2  O1        41.6140  -75.4820  -66.3130 O.3   143  CXS143     -0.3075
      3  O2        40.9700  -73.2700  -65.7830 O.3   143  CXS143     -0.3075
      4  O3        40.4700  -75.0780  -64.2530 O.3   143  CXS143     -0.3075
      5  C1        39.0530  -74.9110  -66.4940 C.3   143  CXS143      0.1067
      6  C2        39.0880  -74.3990  -67.9450 C.3   143  CXS143      0.0403
      7  C3        39.9180  -75.2770  -68.8640 C.3   143  CXS143      0.0903
      8  N         39.9700  -74.8260  -70.2490 N.3   143  CXS143     -0.2194
      9  C4        40.7530  -75.6110  -71.1820 C.3   143  CXS143      0.0728
     10  C5        41.2810  -74.7910  -72.3480 C.3   143  CXS143      0.0174
     11  C6        42.0790  -75.6860  -73.2850 C.3   143  CXS143      0.0014
     12  C7        41.2250  -76.8460  -73.7940 C.3   143  CXS143      0.0001
     13  C8        40.6440  -77.6540  -72.6390 C.3   143  CXS143      0.0014
     14  C9        39.8770  -76.7430  -71.7110 C.3   143  CXS143      0.0174
@<TRIPOS>BOND
     1    12    11    1
     2    12    13    1
     3    11    10    1
     4    13    14    1
     5    10     9    1
     6    14     9    1
     7     9     8    1
     8     8     7    1
     9     7     6    1
    10     6     5    1
    11     5     1    1
    12     2     1    1
    13     3     1    1
    14     1     4    1
