@<TRIPOS>MOLECULE
2fll_TTP_A_1.pdb
 29 30 0 0 0
SMALL
GASTEIGER

@<TRIPOS>ATOM
      1  PA         3.1390   22.1420   15.4890 P.3   875  TTP875      0.2189
      2  O1A        4.3020   21.4850   15.0260 O.3   875  TTP875     -0.4371
      3  O2A        2.3270   22.9140   14.4490 O.2   875  TTP875     -0.5170
      4  O3A        2.1090   21.1220   16.1380 O.3   875  TTP875     -0.2700
      5  PB         2.4470   19.5660   16.4190 P.3   875  TTP875      0.2277
      6  O1B        1.9260   19.3960   17.8080 O.3   875  TTP875     -0.4368
      7  O2B        3.9770   19.2540   16.3840 O.2   875  TTP875     -0.5168
      8  O3B        1.6370   18.5670   15.4480 O.3   875  TTP875     -0.2258
      9  PG         2.2100   17.8510   14.0630 P.3   875  TTP875      0.5373
     10  O1G        3.4980   18.5860   13.5960 O.3   875  TTP875     -0.1143
     11  O2G        1.0750   17.9670   13.0550 O.2   875  TTP875     -0.2221
     12  O3G        2.5270   16.3990   14.3820 O.3   875  TTP875     -0.1143
     13  O5'        3.5120   22.9730   16.7620 O.3   875  TTP875     -0.3112
     14  C5'        4.3720   22.4230   17.8970 C.3   875  TTP875      0.1812
     15  C4'        3.9710   22.5480   19.2530 C.3   875  TTP875      0.1773
     16  O4'        3.9160   23.8830   19.7750 O.3   875  TTP875     -0.3342
     17  C3'        2.7070   21.8620   19.5370 C.3   875  TTP875      0.1857
     18  O3'        2.9230   20.5800   20.2000 O.3   875  TTP875     -0.2203
     19  C2'        1.9230   22.8130   20.4230 C.3   875  TTP875      0.0871
     20  C1'        2.6450   24.1320   20.4220 C.3   875  TTP875      0.2052
     21  N1         1.8730   25.0940   19.6150 N.am  875  TTP875     -0.1977
     22  C2         1.1250   25.9890   20.3260 C.1   875  TTP875      0.2807
     23  O2         1.2290   26.0600   21.5710 O.2   875  TTP875     -0.1922
     24  N3         0.3970   27.0260   19.7200 N.2   875  TTP875     -0.2457
     25  C4         0.3190   27.1720   18.4300 C.1   875  TTP875      0.2138
     26  O4        -0.4740   28.0860   17.9910 O.2   875  TTP875     -0.2088
     27  C5         0.9790   26.1920   17.5850 C.2   875  TTP875      0.0940
     28  C5M        0.8690   26.2390   16.2460 C.2   875  TTP875      0.0105
     29  C6         1.7140   25.2010   18.2280 C.3   875  TTP875      0.1450
@<TRIPOS>BOND
     1    11     9    2
     2    10     9    1
     3     9    12    1
     4     9     8    1
     5     3     1    2
     6     2     1    1
     7     8     5    1
     8     1     4    1
     9     1    13    1
    10     4     5    1
    11    28    27    2
    12     7     5    2
    13     5     6    1
    14    13    14    1
    15    27    29    1
    16    27    25    1
    17    14    15    1
    18    26    25    2
    19    29    21    1
    20    25    24    2
    21    15    17    1
    22    15    16    1
    23    17    18    1
    24    17    19    1
    25    21    22   am
    26    21    20    1
    27    24    22    2
    28    16    20    1
    29    22    23    2
    30    20    19    1
