@<TRIPOS>MOLECULE
2flm_6CA_A_1.pdb
 39 42 0 0 0
SMALL
GASTEIGER

@<TRIPOS>ATOM
      1  O35       19.6080   43.7470   36.2060 O.co2 201  6CA201     -0.2405
      2  C33       20.1300   43.6130   37.4850 C.2   201  6CA201      0.3890
      3  O34       19.7250   44.3920   38.3980 O.co2 201  6CA201     -0.2405
      4  C32       21.1630   42.5060   37.6130 C.ar  201  6CA201      0.0950
      5  C36       21.5830   41.7640   36.4540 C.ar  201  6CA201      0.0079
      6  C37       22.5220   40.7520   36.5240 C.ar  201  6CA201      0.0003
      7  C38       23.0760   40.4360   37.7540 C.ar  201  6CA201      0.0013
      8  C39       22.6950   41.1300   38.8820 C.ar  201  6CA201      0.0167
      9  C31       21.7850   42.1290   38.8630 C.ar  201  6CA201      0.0768
     10  N30       21.3820   42.8860   40.0480 N.pl3 201  6CA201     -0.2123
     11  C27       21.3320   42.3620   41.3780 C.ar  201  6CA201      0.0707
     12  C28       21.5080   43.1920   42.4780 C.ar  201  6CA201      0.0196
     13  C29       21.3930   42.7170   43.7840 C.ar  201  6CA201      0.0382
     14  C26       21.0420   40.9780   41.6440 C.ar  201  6CA201      0.0196
     15  C25       20.9280   40.4890   42.9310 C.ar  201  6CA201      0.0382
     16  C24       21.1080   41.3840   44.0380 C.ar  201  6CA201      0.1386
     17  O23       20.8330   41.0160   45.2900 O.3   201  6CA201     -0.4755
     18  C22       20.6240   41.6450   46.5950 C.3   201  6CA201      0.2054
     19  C21       21.4740   42.5080   47.5490 C.3   201  6CA201      0.0473
     20  C20       22.8020   42.2790   48.3070 C.3   201  6CA201      0.0040
     21  C19       23.0330   41.2690   49.4760 C.3   201  6CA201      0.0040
     22  C18       21.9950   41.3580   50.6320 C.3   201  6CA201      0.0473
     23  C17       21.2350   42.2230   51.6860 C.3   201  6CA201      0.2054
     24  O16       21.2250   41.6610   53.0100 O.3   201  6CA201     -0.4755
     25  C11       21.3740   41.9200   54.3700 C.ar  201  6CA201      0.1386
     26  C12       21.9210   43.0830   54.9380 C.ar  201  6CA201      0.0369
     27  C13       21.9280   43.2160   56.3470 C.ar  201  6CA201      0.0031
     28  C10       20.8490   40.9300   55.2260 C.ar  201  6CA201      0.0369
     29  C9        20.8510   41.0560   56.6130 C.ar  201  6CA201      0.0031
     30  C8        21.3940   42.2090   57.1900 C.ar  201  6CA201      0.0002
     31  C5        21.4000   42.3150   58.5820 C.ar  201  6CA201      0.0000
     32  C6        20.2730   42.7580   59.2780 C.ar  201  6CA201      0.0002
     33  C7        20.2610   42.8370   60.6750 C.ar  201  6CA201      0.0066
     34  C4        22.5400   41.9450   59.3300 C.ar  201  6CA201      0.0002
     35  C3        22.5300   42.0200   60.7370 C.ar  201  6CA201      0.0066
     36  C2        21.3700   42.4170   61.4130 C.ar  201  6CA201      0.0798
     37  C1        21.2970   42.4590   62.9120 C.2   201  6CA201      0.3878
     38  O14       21.6910   41.3450   63.6080 O.co2 201  6CA201     -0.2406
     39  O15       20.9060   43.4310   63.5480 O.co2 201  6CA201     -0.2406
@<TRIPOS>BOND
     1     1     2   ar
     2     5     6   ar
     3     5     4   ar
     4     6     7   ar
     5     2     4    1
     6     2     3   ar
     7     4     9   ar
     8     7     8   ar
     9     9     8   ar
    10     9    10    1
    11    10    11    1
    12    11    14   ar
    13    11    12   ar
    14    14    15   ar
    15    12    13   ar
    16    15    16   ar
    17    13    16   ar
    18    16    17    1
    19    17    18    1
    20    18    19    1
    21    19    20    1
    22    20    21    1
    23    21    22    1
    24    22    23    1
    25    23    24    1
    26    24    25    1
    27    25    26   ar
    28    25    28   ar
    29    26    27   ar
    30    28    29   ar
    31    27    30   ar
    32    29    30   ar
    33    30    31    1
    34    31    32   ar
    35    31    34   ar
    36    32    33   ar
    37    34    35   ar
    38    33    36   ar
    39    35    36   ar
    40    36    37    1
    41    37    39   ar
    42    37    38   ar
