@<TRIPOS>MOLECULE
2flq_ARG_A_1.pdb
 12 11 0 0 0
SMALL
GASTEIGER

@<TRIPOS>ATOM
      1  N         74.1510   27.2440    7.4790 N.3   376  ARG376     -0.1208
      2  CA        75.5040   27.3330    6.8710 C.3   376  ARG376      0.1944
      3  C         75.8400   26.0420    6.1590 C.2   376  ARG376      0.3819
      4  O         75.0740   25.0670    6.2740 O.co2 376  ARG376     -0.2441
      5  CB        76.5470   27.5650    7.9550 C.3   376  ARG376      0.0343
      6  CG        76.3310   28.8090    8.7710 C.3   376  ARG376      0.0490
      7  CD        77.1950   28.7600   10.0040 C.3   376  ARG376      0.2205
      8  NE        76.8060   27.6810   10.9050 N.pl3 376  ARG376     -0.0865
      9  CZ        77.4630   27.3790   12.0220 C.cat 376  ARG376      0.5346
     10  NH1       77.0480   26.3890   12.7930 N.pl3 376  ARG376      0.1354
     11  NH2       78.5430   28.0630   12.3670 N.pl3 376  ARG376      0.1354
     12  OXT       76.8930   26.0140    5.5040 O.co2 376  ARG376     -0.2441
@<TRIPOS>BOND
     1    12     3   ar
     2     3     4   ar
     3     3     2    1
     4     2     1    1
     5     2     5    1
     6     5     6    1
     7     6     7    1
     8     7     8    1
     9     8     9    2
    10     9    11    1
    11     9    10    1
