@<TRIPOS>MOLECULE
2flq_HEM_A_1.pdb
 43 50 0 0 0
SMALL
GASTEIGER

@<TRIPOS>ATOM
      1 FE         76.5540   31.0120   14.8190 Fe    901  HEM901      0.0000
      2  CHA       74.2360   31.8040   12.3610 C.2   901  HEM901      0.0000
      3  CHB       75.0360   27.9360   15.1940 C.2   901  HEM901      0.0000
      4  CHC       79.4940   29.5930   16.1230 C.2   901  HEM901      0.0000
      5  CHD       78.3830   33.8010   13.9520 C.2   901  HEM901      0.0000
      6  NA        74.9480   30.0850   13.9740 N.2   901  HEM901      0.0000
      7  C1A       74.1030   30.5570   12.9830 C.2   901  HEM901      0.0000
      8  C2A       73.0650   29.5650   12.7080 C.2   901  HEM901      0.0000
      9  C3A       73.2800   28.5360   13.5540 C.2   901  HEM901      0.0000
     10  C4A       74.4440   28.8500   14.3340 C.2   901  HEM901      0.0000
     11  CMA       72.4800   27.2540   13.6170 C.3   901  HEM901      0.0000
     12  CAA       72.0180   29.5570   11.6050 C.3   901  HEM901      0.0000
     13  CBA       72.6910   29.0630   10.3340 C.3   901  HEM901      0.0000
     14  CGA       71.7860   29.0750    9.1180 C.2   901  HEM901      0.0000
     15  O1A       72.3300   29.1200    8.0030 O.co2 901  HEM901      0.0000
     16  O2A       70.5450   29.0310    9.2620 O.co2 901  HEM901      0.0000
     17  NB        77.1200   29.1680   15.5720 N.ar  901  HEM901      0.0000
     18  C1B       76.2820   28.0840   15.7770 C.ar  901  HEM901      0.0000
     19  C2B       76.9460   27.0270   16.5040 C.ar  901  HEM901      0.0000
     20  C3B       78.2180   27.4390   16.6940 C.ar  901  HEM901      0.0000
     21  C4B       78.3420   28.7970   16.1290 C.ar  901  HEM901      0.0000
     22  CMB       76.3110   25.7510   17.0440 C.3   901  HEM901      0.0000
     23  CAB       79.1980   26.6550   17.2500 C.2   901  HEM901      0.0000
     24  CBB       79.6590   26.9540   18.4950 C.2   901  HEM901      0.0000
     25  NC        78.5810   31.5250   14.9190 N.2   901  HEM901      0.0000
     26  C1C       79.6050   30.8520   15.5720 C.2   901  HEM901      0.0000
     27  C2C       80.7700   31.7270   15.7070 C.2   901  HEM901      0.0000
     28  C3C       80.4320   32.9460   15.1930 C.2   901  HEM901      0.0000
     29  C4C       79.0770   32.8030   14.6690 C.2   901  HEM901      0.0000
     30  CMC       82.1420   31.3840   16.2460 C.3   901  HEM901      0.0000
     31  CAC       81.1260   34.1610   15.2390 C.3   901  HEM901      0.0000
     32  CBC       82.4200   34.4280   15.6570 C.3   901  HEM901      0.0000
     33  ND        76.3300   32.5180   13.4450 N.ar  901  HEM901      0.0000
     34  C1D       77.1070   33.6650   13.3810 C.ar  901  HEM901      0.0000
     35  C2D       76.4870   34.6430   12.5160 C.ar  901  HEM901      0.0000
     36  C3D       75.3630   34.0530   11.9990 C.ar  901  HEM901      0.0000
     37  C4D       75.2570   32.7280   12.5970 C.ar  901  HEM901      0.0000
     38  CMD       76.9190   36.0860   12.2970 C.3   901  HEM901      0.0000
     39  CAD       74.4940   34.6570   10.9010 C.3   901  HEM901      0.0000
     40  CBD       74.6930   34.0110    9.5370 C.3   901  HEM901      0.0000
     41  CGD       74.0510   34.8180    8.4230 C.2   901  HEM901      0.0000
     42  O1D       74.0500   34.3500    7.2560 O.co2 901  HEM901      0.0000
     43  O2D       73.5540   35.9280    8.7280 O.co2 901  HEM901      0.0000
@<TRIPOS>BOND
     1    42    41   ar
     2    15    14   ar
     3    41    43   ar
     4    41    40    1
     5    14    16   ar
     6    14    13    1
     7    40    39    1
     8    13    12    1
     9    39    36    1
    10    12     8    1
    11    36    35   ar
    12    36    37   ar
    13    38    35    1
    14     2    37    2
    15     2     7    1
    16    35    34   ar
    17    37    33   ar
    18     8     7    1
    19     8     9    2
    20     7     6    2
    21    34    33   ar
    22    34     5    2
    23    33     1    1
    24     9    11    1
    25     9    10    1
    26     5    29    1
    27     6    10    1
    28     6     1    1
    29    10     3    2
    30    29    25    2
    31    29    28    1
    32     1    25    1
    33     1    17    1
    34    25    26    1
    35    28    31    1
    36    28    27    2
    37     3    18    1
    38    31    32    1
    39    26    27    1
    40    26     4    2
    41    17    18   ar
    42    17    21   ar
    43    27    30    1
    44    18    19   ar
    45     4    21    1
    46    21    20   ar
    47    19    20   ar
    48    19    22    1
    49    20    23    1
    50    23    24    2
