@<TRIPOS>MOLECULE
2flr_7NH_H_1.pdb
 27 30 0 0 0
SMALL
GASTEIGER

@<TRIPOS>ATOM
      1  N1        46.6130   -8.9030   12.4410 N.ar  258  7NH258     -0.2421
      2  C2        46.4130   -7.6110   12.1280 C.ar  258  7NH258      0.1015
      3  C3        47.4030   -6.9860   11.3620 C.ar  258  7NH258      0.0527
      4  C4        48.4610   -7.7440   11.0120 C.ar  258  7NH258      0.1345
      5  C5        48.6060   -9.0280   11.3540 C.ar  258  7NH258      0.0513
      6  C6        47.6490   -9.6670   12.1060 C.ar  258  7NH258      0.1015
      7  N3        49.5160   -7.4030   10.2960 N.2   258  7NH258     -0.4017
      8  CN4       49.7640   -9.4560   10.8350 C.2   258  7NH258      0.0362
      9  C8        50.3550   -8.4160   10.1490 C.2   258  7NH258      0.1346
     10  C1'       51.5120   -8.3000    9.4140 C.ar  258  7NH258      0.0685
     11  C2'       52.2930   -9.4380    9.2180 C.ar  258  7NH258      0.0057
     12  C3'       53.4650   -9.3890    8.5040 C.ar  258  7NH258      0.0003
     13  C4'       53.8780   -8.1880    7.9710 C.ar  258  7NH258      0.0032
     14  C5'       53.1330   -7.0100    8.1370 C.ar  258  7NH258      0.0390
     15  C6'       51.9530   -7.0970    8.8590 C.ar  258  7NH258      0.1980
     16  O6'       51.1820   -5.9680    9.0090 O.3   258  7NH258     -0.2865
     17  C1B       53.6040   -5.8310    7.5910 C.ar  258  7NH258      0.0028
     18  C2B       52.7560   -4.9440    6.9210 C.ar  258  7NH258      0.0001
     19  C3B       53.2370   -3.7760    6.3440 C.ar  258  7NH258     -0.0003
     20  C4B       54.5910   -3.4820    6.4350 C.ar  258  7NH258     -0.0026
     21  C5B       55.4540   -4.3460    7.0940 C.ar  258  7NH258     -0.0005
     22  C6B       54.9590   -5.5040    7.6670 C.ar  258  7NH258     -0.0025
     23  C51       56.9380   -4.0350    7.1660 C.3   258  7NH258      0.1432
     24  N52       57.5030   -4.3370    8.5110 N.am  258  7NH258     -0.1810
     25  C53       58.3490   -5.3150    8.6900 C.2   258  7NH258      0.3592
     26  O53       58.7140   -6.0480    7.7960 O.2   258  7NH258     -0.2474
     27  N54       58.8190   -5.5230    9.8900 N.am  258  7NH258     -0.0679
@<TRIPOS>BOND
     1    19    20   ar
     2    19    18   ar
     3    20    21   ar
     4    18    17   ar
     5    21    23    1
     6    21    22   ar
     7    23    24    1
     8    17    22   ar
     9    17    14    1
    10    26    25    2
    11    13    14   ar
    12    13    12   ar
    13    14    15   ar
    14    12    11   ar
    15    24    25   am
    16    25    27   am
    17    15    16    1
    18    15    10   ar
    19    11    10   ar
    20    10     9    1
    21     9     7    2
    22     9     8    1
    23     7     4    2
    24     8     5    2
    25     4     5   ar
    26     4     3   ar
    27     5     6   ar
    28     3     2   ar
    29     6     1   ar
    30     2     1   ar
