@<TRIPOS>MOLECULE
2fls_GSH_A_1.pdb
 20 19 0 0 0
SMALL
GASTEIGER

@<TRIPOS>ATOM
      1  N1       -18.6880    7.0220    2.6670 N.3   125  GSH125     -0.1208
      2  CA1      -19.6060    7.3140    3.7470 C.3   125  GSH125      0.1948
      3  C1       -19.3180    8.6540    4.3740 C.2   125  GSH125      0.3819
      4  O11      -18.2060    9.1360    4.2070 O.co2 125  GSH125     -0.2441
      5  O12      -20.2030    9.2390    5.0210 O.co2 125  GSH125     -0.2441
      6  CB1      -19.4670    6.2440    4.8060 C.3   125  GSH125      0.0402
      7  CG1      -20.6380    6.2820    5.8030 C.3   125  GSH125      0.0889
      8  CD1      -21.0480    4.8900    6.2390 C.2   125  GSH125      0.2418
      9  OE1      -20.5680    3.8970    5.7020 O.2   125  GSH125     -0.2733
     10  N2       -21.9120    4.8220    7.2560 N.am  125  GSH125     -0.1968
     11  CA2      -22.4140    3.5670    7.8110 C.3   125  GSH125      0.1843
     12  C2       -23.8100    3.2930    7.3520 C.2   125  GSH125      0.2627
     13  O2       -24.5210    4.2160    7.0700 O.2   125  GSH125     -0.2714
     14  CB2      -22.5090    3.7230    9.3340 C.3   125  GSH125      0.0997
     15  SG2      -20.8930    3.7810   10.1560 S.3   125  GSH125     -0.0797
     16  N3       -24.2400    2.0430    7.3210 N.am  125  GSH125     -0.1917
     17  CA3      -25.5630    1.6270    6.9260 C.3   125  GSH125      0.2285
     18  C3       -26.6090    2.1200    7.9130 C.2   125  GSH125      0.3865
     19  O31      -26.3360    2.3710    9.1190 O.co2 125  GSH125     -0.2437
     20  O32      -27.7580    2.2210    7.4560 O.co2 125  GSH125     -0.2437
@<TRIPOS>BOND
     1     1     2    1
     2     2     3    1
     3     2     6    1
     4     4     3   ar
     5     3     5   ar
     6     6     7    1
     7     9     8    2
     8     7     8    1
     9     8    10   am
    10    17    16    1
    11    17    18    1
    12    13    12    2
    13    10    11    1
    14    16    12   am
    15    12    11    1
    16    20    18   ar
    17    11    14    1
    18    18    19   ar
    19    14    15    1
