@<TRIPOS>MOLECULE
2flv_FMN_A_1.pdb
 31 33 0 0 0
SMALL
GASTEIGER

@<TRIPOS>ATOM
      1  N1        27.5100   14.1410   15.8560 N.2   139  FMN139     -0.2890
      2  C2        27.6000   13.8830   17.1890 C.1   139  FMN139      0.3669
      3  O2        26.6110   13.5990   17.8260 O.2   139  FMN139     -0.1744
      4  N3        28.8590   13.9460   17.7870 N.2   139  FMN139     -0.2300
      5  C4        30.0680   14.1240   17.1260 C.1   139  FMN139      0.2513
      6  O4        31.1570   14.0670   17.6960 O.2   139  FMN139     -0.2057
      7  C4A       29.9590   14.3800   15.6820 C.2   139  FMN139      0.2700
      8  N5        31.0560   14.5320   14.9310 N.2   139  FMN139     -0.3878
      9  C5A       30.8790   14.5810   13.5470 C.2   139  FMN139      0.1320
     10  C6        31.9990   14.5980   12.6770 C.2   139  FMN139      0.0250
     11  C7        31.8590   14.8040   11.3390 C.2   139  FMN139     -0.0238
     12  C7M       33.0620   14.8850   10.4300 C.3   139  FMN139      0.0308
     13  C8        30.5580   14.9340   10.7690 C.2   139  FMN139     -0.0280
     14  C8M       30.3740   15.2080    9.2910 C.3   139  FMN139      0.0304
     15  C9        29.4340   14.8410   11.5700 C.2   139  FMN139     -0.0041
     16  C9A       29.5710   14.6880   12.9500 C.3   139  FMN139      0.1497
     17  N10       28.4610   14.5320   13.7720 N.pl3 139  FMN139     -0.2691
     18  C10       28.5860   14.3670   15.1340 C.2   139  FMN139      0.2416
     19  C1'       27.1300   14.5030   13.1470 C.3   139  FMN139      0.1294
     20  C2'       26.5550   15.8890   12.8330 C.3   139  FMN139      0.2044
     21  O2'       26.6390   16.7040   14.0020 O.3   139  FMN139     -0.2185
     22  C3'       25.0790   15.7470   12.4270 C.3   139  FMN139      0.2164
     23  O3'       24.9820   14.9910   11.2170 O.3   139  FMN139     -0.2175
     24  C4'       24.2940   17.0580   12.2870 C.3   139  FMN139      0.2147
     25  O4'       22.9240   16.7600   12.0180 O.3   139  FMN139     -0.2176
     26  C5'       24.8780   17.9090   11.1600 C.3   139  FMN139      0.1892
     27  O5'       24.3310   19.2000   11.1840 O.3   139  FMN139     -0.2674
     28  P         24.6700   20.2330   10.0480 P.3   139  FMN139      0.5327
     29  O1P       24.0980   19.8430    8.7520 O.2   139  FMN139     -0.2224
     30  O2P       24.1920   21.4930   10.5970 O.3   139  FMN139     -0.1145
     31  O3P       26.2010   20.2510   10.0320 O.3   139  FMN139     -0.1145
@<TRIPOS>BOND
     1    29    28    2
     2    14    13    1
     3    31    28    1
     4    28    30    1
     5    28    27    1
     6    12    11    1
     7    13    11    1
     8    13    15    2
     9    26    27    1
    10    26    24    1
    11    23    22    1
    12    11    10    2
    13    15    16    1
    14    25    24    1
    15    24    22    1
    16    22    20    1
    17    10     9    1
    18    20    19    1
    19    20    21    1
    20    16     9    1
    21    16    17    1
    22    19    17    1
    23     9     8    2
    24    17    18    1
    25     8     7    2
    26    18     7    1
    27    18     1    2
    28     7     5    1
    29     1     2    2
    30     5     6    2
    31     5     4    2
    32     2     4    2
    33     2     3    2
