@<TRIPOS>MOLECULE
2fm0_M98_A_1.pdb
 38 41 0 0 0
SMALL
GASTEIGER

@<TRIPOS>ATOM
      1  F1        21.5960   -1.3160   35.5500 F     601  M98601     -0.1550
      2  F2        23.6900   -1.3910   34.7670 F     601  M98601     -0.1550
      3  C1        22.7180   -2.0470   35.4360 C.3   601  M98601      0.5087
      4  O1        22.4070   -3.2750   34.8120 O.3   601  M98601     -0.4205
      5  C12       23.2190   -8.2300   33.1700 C.3   601  M98601      0.0472
      6  C13       23.5020   -7.5050   31.8410 C.3   601  M98601      0.0472
      7  C8        22.7080   -6.8010   32.9550 C.3   601  M98601      0.1663
      8  O2        22.4650   -5.5730   33.6070 O.3   601  M98601     -0.4761
      9  C2        22.1430   -3.2780   33.4740 C.ar  601  M98601      0.1779
     10  C3        22.1910   -4.4920   32.8300 C.ar  601  M98601      0.1719
     11  C4        21.9270   -4.5870   31.4470 C.ar  601  M98601      0.0362
     12  C5        21.6100   -3.4340   30.7180 C.ar  601  M98601     -0.0128
     13  C6        21.5600   -2.2120   31.3880 C.ar  601  M98601     -0.0006
     14  C7        21.8260   -2.1250   32.7680 C.ar  601  M98601      0.0399
     15  C9        21.3640   -3.4670   29.2160 C.3   601  M98601      0.0733
     16  C10       21.8260   -4.7300   28.5370 C.ar  601  M98601      0.0920
     17  C11       23.1580   -6.0900   27.1430 C.ar  601  M98601      0.1041
     18  N1        22.8940   -4.7840   27.6920 N.ar  601  M98601     -0.2411
     19  S1        21.0330   -6.1940   28.5990 S.2   601  M98601     -0.0718
     20  C14       22.1540   -6.9480   27.6150 C.ar  601  M98601      0.0712
     21  C15       22.0830   -8.4150   27.2420 C.3   601  M98601      0.3239
     22  O3        20.9400   -9.0230   27.8520 O.3   601  M98601     -0.2027
     23  C16       23.3550   -9.1320   27.7800 C.3   601  M98601      0.4349
     24  F5        23.2820  -10.4490   27.5060 F     601  M98601     -0.1668
     25  F6        23.4250   -8.9540   29.1160 F     601  M98601     -0.1668
     26  F7        24.4630   -8.6180   27.2020 F     601  M98601     -0.1668
     27  C17       21.9950   -8.5520   25.6830 C.3   601  M98601      0.4349
     28  F8        20.9450   -7.8430   25.2210 F     601  M98601     -0.1668
     29  F9        21.8370   -9.8490   25.3460 F     601  M98601     -0.1668
     30  F10       23.1250   -8.0820   25.1140 F     601  M98601     -0.1668
     31  C18       19.9130   -3.1600   28.8360 C.3   601  M98601      0.0435
     32  C19       19.6990   -3.0560   27.3480 C.ar  601  M98601      0.0497
     33  C20       20.3380   -2.0550   26.6340 C.ar  601  M98601      0.0082
     34  C21       20.2090   -1.9980   25.2500 C.ar  601  M98601      0.0769
     35  C22       18.9280   -3.9910   26.6750 C.ar  601  M98601      0.2972
     36  C23       19.4460   -2.9300   24.5730 C.ar  601  M98601      0.3017
     37  O4        18.0660   -4.8340   24.6390 O.co2 601  M98601     -0.6187
     38  N2        18.8060   -3.9220   25.2850 N.ar  601  M98601     -0.1522
@<TRIPOS>UNITY_ATOM_ATTR
37 1
charge -1
38 1
charge 1
@<TRIPOS>BOND
     1    36    34   ar
     2    36    38   ar
     3    37    38    1
     4    30    27    1
     5    28    27    1
     6    34    33   ar
     7    38    35   ar
     8    29    27    1
     9    27    21    1
    10    33    32   ar
    11    35    32   ar
    12    17    20   ar
    13    17    18   ar
    14    26    23    1
    15    21    20    1
    16    21    23    1
    17    21    22    1
    18    32    31    1
    19    24    23    1
    20    20    19   ar
    21    18    16   ar
    22    23    25    1
    23    16    19   ar
    24    16    15    1
    25    31    15    1
    26    15    12    1
    27    12    13   ar
    28    12    11   ar
    29    13    14   ar
    30    11    10   ar
    31     6     7    1
    32     6     5    1
    33    14     9   ar
    34    10     9   ar
    35    10     8    1
    36     7     5    1
    37     7     8    1
    38     9     4    1
    39     2     3    1
    40     4     3    1
    41     3     1    1
