@<TRIPOS>MOLECULE
2fm3_NAD_A_1.pdb
 44 48 0 0 0
SMALL
GASTEIGER

@<TRIPOS>ATOM
      1  PA        15.5740   48.3850   66.7690 P.3   401  NAD401      0.2189
      2  O1A       14.6640   47.5670   67.4730 O.3   401  NAD401     -0.4371
      3  O2A       15.1930   48.8320   65.4470 O.2   401  NAD401     -0.5170
      4  O5B       16.0340   49.6210   67.5780 O.3   401  NAD401     -0.3112
      5  C5B       16.9210   50.6610   67.1290 C.3   401  NAD401      0.1813
      6  C4B       16.4290   51.9460   67.8900 C.3   401  NAD401      0.1821
      7  O4B       17.2490   52.9900   67.3490 O.3   401  NAD401     -0.3135
      8  C3B       14.9290   52.4410   67.5880 C.3   401  NAD401      0.2184
      9  O3B       14.0980   52.4590   68.7390 O.3   401  NAD401     -0.2174
     10  C2B       15.1680   53.7830   66.9600 C.3   401  NAD401      0.2570
     11  O2B       14.2190   54.8240   67.1110 O.3   401  NAD401     -0.2130
     12  C1B       16.4840   54.1830   67.4940 C.3   401  NAD401      0.3186
     13  N9A       17.1980   55.2140   66.7930 N.pl3 401  NAD401     -0.1439
     14  C8A       17.4000   55.6350   65.5220 C.3   401  NAD401      0.3377
     15  N7A       18.0640   56.5800   65.0410 N.2   401  NAD401     -0.2095
     16  C5A       18.4780   56.9980   66.2530 C.2   401  NAD401      0.2526
     17  C6A       19.3400   58.0930   66.6220 C.2   401  NAD401      0.4393
     18  N6A       19.8560   58.9210   65.6920 N.pl3 401  NAD401      0.2180
     19  N1A       19.5960   58.2610   67.9770 N.2   401  NAD401      0.0021
     20  C2A       19.0340   57.3920   68.8770 C.3   401  NAD401      0.5254
     21  N3A       18.2490   56.3880   68.6490 N.2   401  NAD401     -0.0055
     22  C4A       18.0040   56.2060   67.3240 C.2   401  NAD401      0.3518
     23  O3        17.0680   47.5810   66.6050 O.3   401  NAD401     -0.2703
     24  PN        17.6390   46.4410   67.5820 P.3   401  NAD401      0.2189
     25  O1N       16.9860   45.1580   67.3370 O.2   401  NAD401     -0.5170
     26  O2N       17.5740   46.9590   68.9850 O.3   401  NAD401     -0.4371
     27  O5D       19.2240   46.3990   67.1170 O.3   401  NAD401     -0.3112
     28  C5D       19.9870   47.5620   67.2690 C.3   401  NAD401      0.1813
     29  C4D       21.2860   47.4560   66.4480 C.3   401  NAD401      0.1799
     30  O4D       22.0830   46.3760   67.0400 O.3   401  NAD401     -0.3327
     31  C3D       21.1190   47.0540   64.9760 C.3   401  NAD401      0.2158
     32  O3D       22.1240   47.7420   64.2420 O.3   401  NAD401     -0.2175
     33  C2D       21.3610   45.5440   64.9960 C.3   401  NAD401      0.2309
     34  O2D       21.7800   45.0390   63.6880 O.3   401  NAD401     -0.2158
     35  C1D       22.4170   45.4270   66.0160 C.3   401  NAD401      0.2263
     36  N1N       22.6260   44.0920   66.6150 N.pl3 401  NAD401     -0.2787
     37  C2N       23.9970   43.9080   66.8920 C.3   401  NAD401      0.1244
     38  C3N       24.4260   42.6960   67.4090 C.2   401  NAD401      0.0544
     39  C7N       25.8990   42.3540   67.7640 C.2   401  NAD401      0.2818
     40  O7N       26.1910   41.2350   68.1850 O.2   401  NAD401     -0.2670
     41  N7N       26.7220   43.4050   67.7390 N.am  401  NAD401     -0.0839
     42  C4N       23.4910   41.5870   67.6730 C.2   401  NAD401      0.0033
     43  C5N       22.1000   41.8620   67.3700 C.2   401  NAD401      0.0157
     44  C6N       21.5990   43.0770   66.8380 C.2   401  NAD401      0.0633
@<TRIPOS>BOND
     1    34    33    1
     2    32    31    1
     3    31    33    1
     4    31    29    1
     5    33    35    1
     6    15    14    1
     7    15    16    2
     8     3     1    2
     9    14    13    1
    10    18    17    1
    11    35    36    1
    12    35    30    1
    13    16    17    1
    14    16    22    1
    15    29    30    1
    16    29    28    1
    17    23     1    1
    18    23    24    1
    19    36    44    1
    20    36    37    1
    21    17    19    2
    22     1     2    1
    23     1     4    1
    24    13    22    1
    25    13    12    1
    26    44    43    2
    27    37    38    1
    28    10    11    1
    29    10    12    1
    30    10     8    1
    31    27    28    1
    32    27    24    1
    33     5     4    1
    34     5     6    1
    35    22    21    2
    36    25    24    2
    37     7    12    1
    38     7     6    1
    39    43    42    1
    40    38    42    2
    41    38    39    1
    42    24    26    1
    43     8     6    1
    44     8     9    1
    45    41    39   am
    46    39    40    2
    47    19    20    1
    48    21    20    1
