@<TRIPOS>MOLECULE
2fm5_M99_A_1.pdb
 38 41 0 0 0
SMALL
GASTEIGER

@<TRIPOS>ATOM
      1  F1        21.5730   -1.2390   35.9070 F     601  M99601     -0.1550
      2  F2        23.6720   -1.2160   35.1300 F     601  M99601     -0.1550
      3  C1        22.7400   -1.9060   35.8300 C.3   601  M99601      0.5087
      4  O1        22.5080   -3.1830   35.2620 O.3   601  M99601     -0.4205
      5  C12       23.1720   -8.1430   33.5760 C.3   601  M99601      0.0472
      6  C13       23.4820   -7.3260   32.3110 C.3   601  M99601      0.0472
      7  C8        22.6460   -6.7120   33.4370 C.3   601  M99601      0.1663
      8  O2        22.3570   -5.5260   34.1430 O.3   601  M99601     -0.4761
      9  C2        22.0600   -3.2340   33.9720 C.ar  601  M99601      0.1779
     10  C3        22.0110   -4.4660   33.3780 C.ar  601  M99601      0.1719
     11  C4        21.5720   -4.6060   32.0480 C.ar  601  M99601      0.0362
     12  C5        21.1690   -3.4830   31.3130 C.ar  601  M99601     -0.0128
     13  C6        21.2190   -2.2340   31.9310 C.ar  601  M99601     -0.0006
     14  C7        21.6630   -2.1010   33.2600 C.ar  601  M99601      0.0399
     15  C9        20.6540   -3.6260   29.8770 C.3   601  M99601      0.0733
     16  C10       21.3440   -4.7560   29.1530 C.ar  601  M99601      0.0920
     17  C11       23.0300   -5.8580   27.9330 C.ar  601  M99601      0.1041
     18  N1        22.5580   -4.6480   28.5440 N.ar  601  M99601     -0.2411
     19  S1        20.7000   -6.2760   28.9500 S.2   601  M99601     -0.0718
     20  C14       22.0470   -6.8420   28.1490 C.ar  601  M99601      0.0712
     21  C15       22.1710   -8.2670   27.6610 C.3   601  M99601      0.3239
     22  O3        21.0180   -9.0110   28.0770 O.3   601  M99601     -0.2027
     23  C16       23.3970   -8.9570   28.3300 C.3   601  M99601      0.4349
     24  F5        23.4970  -10.2440   27.9010 F     601  M99601     -0.1668
     25  F6        23.2180   -8.9450   29.6730 F     601  M99601     -0.1668
     26  F7        24.5390   -8.2950   28.0210 F     601  M99601     -0.1668
     27  C17       22.2710   -8.2840   26.1000 C.3   601  M99601      0.4349
     28  F8        21.1900   -7.6660   25.5750 F     601  M99601     -0.1668
     29  F9        22.3100   -9.5600   25.6440 F     601  M99601     -0.1668
     30  F10       23.3930   -7.6370   25.7070 F     601  M99601     -0.1668
     31  C18       20.7990   -2.3170   29.0840 C.3   601  M99601      0.0435
     32  C19       20.3240   -2.4100   27.6510 C.ar  601  M99601      0.0497
     33  C20       20.9590   -1.6710   26.6680 C.ar  601  M99601      0.0082
     34  C21       20.5310   -1.7570   25.3450 C.ar  601  M99601      0.0769
     35  C22       19.2560   -3.2360   27.3060 C.ar  601  M99601      0.2972
     36  C23       19.4710   -2.5770   24.9930 C.ar  601  M99601      0.3017
     37  O4        17.8210   -4.1330   25.6520 O.co2 601  M99601     -0.6187
     38  N2        18.8330   -3.3200   25.9780 N.ar  601  M99601     -0.1522
@<TRIPOS>UNITY_ATOM_ATTR
37 1
charge -1
38 1
charge 1
@<TRIPOS>BOND
     1    36    34   ar
     2    36    38   ar
     3    34    33   ar
     4    28    27    1
     5    29    27    1
     6    37    38    1
     7    30    27    1
     8    38    35   ar
     9    27    21    1
    10    33    32   ar
    11    35    32   ar
    12    32    31    1
    13    21    22    1
    14    21    20    1
    15    21    23    1
    16    24    23    1
    17    17    20   ar
    18    17    18   ar
    19    26    23    1
    20    20    19   ar
    21    23    25    1
    22    18    16   ar
    23    19    16   ar
    24    31    15    1
    25    16    15    1
    26    15    12    1
    27    12    13   ar
    28    12    11   ar
    29    13    14   ar
    30    11    10   ar
    31     6     7    1
    32     6     5    1
    33    14     9   ar
    34    10     9   ar
    35    10     8    1
    36     7     5    1
    37     7     8    1
    38     9     4    1
    39     2     3    1
    40     4     3    1
    41     3     1    1
