@<TRIPOS>MOLECULE
2fmd_MAN_A_1.pdb
 11 11 0 0 0
SMALL
GASTEIGER

@<TRIPOS>ATOM
      1  C1        26.9090   24.9620   23.3710 C.3   241  MAN241      0.1777
      2  C2        27.1660   24.5950   21.9080 C.3   241  MAN241      0.2141
      3  C3        25.8870   24.8220   21.0910 C.3   241  MAN241      0.2173
      4  C4        24.6920   24.0770   21.7170 C.3   241  MAN241      0.2142
      5  C5        24.5750   24.3670   23.2230 C.3   241  MAN241      0.1810
      6  C6        23.5550   23.4830   23.9280 C.3   241  MAN241      0.2141
      7  O2        27.5600   23.2310   21.8250 O.3   241  MAN241     -0.2176
      8  O3        26.0850   24.3730   19.7580 O.3   241  MAN241     -0.2175
      9  O4        23.4970   24.4930   21.0720 O.3   241  MAN241     -0.2176
     10  O5        25.8460   24.1600   23.8800 O.3   241  MAN241     -0.3481
     11  O6        23.8390   22.1050   23.7340 O.3   241  MAN241     -0.2176
@<TRIPOS>BOND
     1     8     3    1
     2     9     4    1
     3     3     4    1
     4     3     2    1
     5     4     5    1
     6     7     2    1
     7     2     1    1
     8     5    10    1
     9     5     6    1
    10     1    10    1
    11    11     6    1
