@<TRIPOS>MOLECULE
2fme_3QC_A_1.pdb
 24 26 0 0 0
SMALL
GASTEIGER

@<TRIPOS>ATOM
      1  C1        22.9670   81.5930   47.9630 C.ar  370  3QC370     -0.0101
      2  C2        22.7600   82.5180   49.1080 C.3   370  3QC370      0.1211
      3  C11       24.0810   79.6240   46.8990 C.ar  370  3QC370     -0.0045
      4  C12       23.4630   79.9680   45.6570 C.ar  370  3QC370     -0.0049
      5  C13       22.5800   81.1010   45.6000 C.ar  370  3QC370     -0.0261
      6  C14       22.3320   81.9160   46.7440 C.ar  370  3QC370     -0.0284
      7  C19       26.4090   79.2240   50.5910 C.ar  370  3QC370      0.0381
      8  C20       27.8490   79.0390   50.6980 C.ar  370  3QC370      0.1954
      9  C21       28.7670   79.7170   49.7950 C.ar  370  3QC370      0.0420
     10  C22       28.3130   80.6120   48.7770 C.ar  370  3QC370      0.0030
     11  O28       28.3720   78.1980   51.6600 O.3   370  3QC370     -0.2866
     12  C33       21.4410   83.0720   46.6850 C.3   370  3QC370      0.0304
     13  N3        23.5850   82.2700   50.2630 N.am  370  3QC370     -0.2593
     14  C4        23.6520   80.8460   50.5570 C.3   370  3QC370      0.1039
     15  C5        24.4760   80.3120   49.3840 C.3   370  3QC370      0.0642
     16  C6        23.8090   80.4480   48.0500 C.ar  370  3QC370     -0.0194
     17  C17       25.9410   80.1200   49.5580 C.ar  370  3QC370     -0.0136
     18  C23       26.8880   80.8110   48.6890 C.ar  370  3QC370     -0.0037
     19  C29       21.8600   81.4320   44.3460 C.3   370  3QC370      0.0307
     20  C38       24.0240   83.2370   51.1190 C.2   370  3QC370      0.3075
     21  N39       24.3780   84.4740   50.6530 N.am  370  3QC370     -0.2605
     22  C40       24.7910   84.8580   49.2910 C.3   370  3QC370      0.1165
     23  C44       24.3540   85.5280   51.6640 C.3   370  3QC370      0.1165
     24  O48       24.1010   82.9910   52.3200 O.2   370  3QC370     -0.2523
@<TRIPOS>BOND
     1    19     5    1
     2     5     4   ar
     3     5     6   ar
     4     4     3   ar
     5    12     6    1
     6     6     1   ar
     7     3    16   ar
     8     1    16   ar
     9     1     2    1
    10    16    15    1
    11    18    10   ar
    12    18    17   ar
    13    10     9   ar
    14     2    13    1
    15    22    21    1
    16    15    17    1
    17    15    14    1
    18    17     7   ar
    19     9     8   ar
    20    13    14    1
    21    13    20   am
    22     7     8   ar
    23    21    20   am
    24    21    23    1
    25     8    11    1
    26    20    24    2
