@<TRIPOS>MOLECULE
2fme_ADP_A_1.pdb
 27 29 0 0 0
SMALL
GASTEIGER

@<TRIPOS>ATOM
      1  PB        13.6770   73.0900   51.3330 P.3   371  ADP371      0.5373
      2  O1B       12.4700   73.7760   51.8440 O.3   371  ADP371     -0.1143
      3  O2B       13.3040   71.8320   50.5990 O.3   371  ADP371     -0.1143
      4  O3B       14.4430   73.9840   50.4750 O.2   371  ADP371     -0.2221
      5  PA        15.7370   73.6260   53.1250 P.3   371  ADP371      0.2231
      6  O1A       16.8800   73.6610   52.1620 O.2   371  ADP371     -0.5169
      7  O2A       15.1850   74.9100   53.4310 O.3   371  ADP371     -0.4370
      8  O3A       14.6210   72.7580   52.5120 O.3   371  ADP371     -0.2261
      9  O5'       16.1940   72.8820   54.4170 O.3   371  ADP371     -0.3111
     10  C5'       15.3420   72.9850   55.5860 C.3   371  ADP371      0.1813
     11  C4'       15.9800   72.7160   56.9520 C.3   371  ADP371      0.1821
     12  O4'       16.5660   71.4130   56.9270 O.3   371  ADP371     -0.3135
     13  C3'       17.0980   73.7440   57.2810 C.3   371  ADP371      0.2184
     14  O3'       17.4420   73.6540   58.6450 O.3   371  ADP371     -0.2174
     15  C2'       18.1850   73.0330   56.4660 C.3   371  ADP371      0.2570
     16  O2'       19.5400   73.4230   56.8810 O.3   371  ADP371     -0.2130
     17  C1'       17.9640   71.5730   56.8880 C.3   371  ADP371      0.3186
     18  N9        18.6470   70.6980   55.9560 N.pl3 371  ADP371     -0.1439
     19  C8        18.1420   70.2800   54.7690 C.3   371  ADP371      0.3377
     20  N7        18.9280   69.3790   54.1470 N.2   371  ADP371     -0.2095
     21  C5        20.0000   69.1840   54.9690 C.2   371  ADP371      0.2526
     22  C6        21.1620   68.4090   55.0500 C.2   371  ADP371      0.4393
     23  N6        21.4300   67.4780   54.1420 N.pl3 371  ADP371      0.2180
     24  N1        22.0400   68.5030   56.1020 N.2   371  ADP371      0.0021
     25  C2        21.8630   69.3480   57.1740 C.3   371  ADP371      0.5254
     26  N3        20.7290   70.1190   57.1740 N.2   371  ADP371     -0.0055
     27  C4        19.8310   70.0440   56.1190 C.2   371  ADP371      0.3518
@<TRIPOS>BOND
     1     4     1    2
     2     3     1    1
     3     1     2    1
     4     1     8    1
     5     6     5    2
     6     8     5    1
     7     5     7    1
     8     5     9    1
     9    23    22    1
    10    20    19    1
    11    20    21    2
    12     9    10    1
    13    19    18    1
    14    21    22    1
    15    21    27    1
    16    22    24    2
    17    10    11    1
    18    18    27    1
    19    18    17    1
    20    24    25    1
    21    27    26    2
    22    15    16    1
    23    15    17    1
    24    15    13    1
    25    17    12    1
    26    12    11    1
    27    11    13    1
    28    25    26    1
    29    13    14    1
