@<TRIPOS>MOLECULE
2fmg_PHE_A_1.pdb
 12 12 0 0 0
SMALL
GASTEIGER

@<TRIPOS>ATOM
      1  N          2.0220    4.0960    9.8120 N.3   300  PHE300     -0.1205
      2  CA         0.6960    4.6920    9.6900 C.3   300  PHE300      0.1986
      3  C          0.8040    6.2160    9.6940 C.2   300  PHE300      0.3822
      4  O          1.3890    6.8130    8.7880 O.co2 300  PHE300     -0.2440
      5  CB        -0.1930    4.2280   10.8500 C.3   300  PHE300      0.0569
      6  CG        -1.6540    4.5510   10.6710 C.ar  300  PHE300     -0.0202
      7  CD1       -2.0960    5.8720   10.6260 C.ar  300  PHE300     -0.0042
      8  CD2       -2.5890    3.5290   10.5400 C.ar  300  PHE300     -0.0042
      9  CE1       -3.4470    6.1670   10.4510 C.ar  300  PHE300     -0.0003
     10  CE2       -3.9360    3.8130   10.3650 C.ar  300  PHE300     -0.0003
     11  CZ        -4.3680    5.1330   10.3200 C.ar  300  PHE300     -0.0000
     12  OXT       -0.0700    6.6700   10.2700 O.co2 300  PHE300     -0.2440
@<TRIPOS>BOND
     1     4     3   ar
     2     2     3    1
     3     2     1    1
     4     2     5    1
     5     3    12   ar
     6    11    10   ar
     7    11     9   ar
     8    10     8   ar
     9     9     7   ar
    10     8     6   ar
    11     7     6   ar
    12     6     5    1
