@<TRIPOS>MOLECULE
2fmn_4HF_A_1.pdb
 31 33 0 0 0
SMALL
GASTEIGER

@<TRIPOS>ATOM
      1  C5       -59.5180  -21.6870   22.3880 C.3   495  4HF495      0.0360
      2  C4A      -58.8290  -22.7630   21.5270 C.3   495  4HF495      0.2157
      3  C4       -59.5530  -23.6740   20.7430 C.1   495  4HF495      0.2060
      4  O4       -60.7840  -23.6140   20.7090 O.2   495  4HF495     -0.2123
      5  N3       -58.8780  -24.6570   19.9890 N.2   495  4HF495     -0.2529
      6  C2       -57.4760  -24.7200   20.0250 C.1   495  4HF495      0.2602
      7  N2       -56.8260  -25.6350   19.3060 N.pl3 495  4HF495     -0.0221
      8  N1       -56.7920  -23.8360   20.7830 N.2   495  4HF495     -0.2739
      9  C8A      -57.4200  -22.8860   21.5190 C.1   495  4HF495      0.0888
     10  N8       -56.6760  -22.0530   22.2780 N.2   495  4HF495     -0.2122
     11  C7       -57.2420  -20.9830   23.1480 C.3   495  4HF495      0.1370
     12  C6       -58.6690  -21.3490   23.6300 C.3   495  4HF495      0.0278
     13  C9       -58.6210  -22.5830   24.5630 C.3   495  4HF495      0.0073
     14  C10      -57.8770  -22.3000   25.8730 C.3   495  4HF495      0.0330
     15  C3'      -57.9010  -23.5210   26.7980 C.ar  495  4HF495      0.0074
     16  S2'      -59.3950  -24.3940   27.2110 S.2   495  4HF495     -0.0867
     17  C4'      -56.8760  -24.1130   27.4710 C.ar  495  4HF495      0.0028
     18  C5'      -57.2250  -25.1970   28.2820 C.ar  495  4HF495      0.0113
     19  C1'      -58.5440  -25.5120   28.2870 C.ar  495  4HF495      0.0842
     20  C11      -59.2010  -26.6240   29.1130 C.2   495  4HF495      0.2712
     21  O11      -58.5520  -27.2630   29.9440 O.2   495  4HF495     -0.2678
     22  N        -60.5040  -26.8200   28.8590 N.am  495  4HF495     -0.1914
     23  CA       -61.3260  -27.8430   29.5550 C.3   495  4HF495      0.1986
     24  C        -60.8870  -29.2630   29.1660 C.2   495  4HF495      0.3842
     25  OX1      -60.2400  -29.3900   28.1020 O.co2 495  4HF495     -0.2437
     26  OX2      -61.2110  -30.1880   29.9440 O.co2 495  4HF495     -0.2437
     27  CB       -62.8110  -27.6550   29.1950 C.3   495  4HF495      0.0451
     28  CG       -63.3750  -26.3180   29.7080 C.3   495  4HF495      0.1164
     29  CD       -63.4430  -26.2710   31.2460 C.2   495  4HF495      0.3649
     30  OE1      -62.3590  -26.3590   31.8690 O.co2 495  4HF495     -0.2457
     31  OE2      -64.5770  -26.1460   31.7610 O.co2 495  4HF495     -0.2457
@<TRIPOS>BOND
     1     7     6    1
     2     5     6    2
     3     5     3    2
     4     6     8    2
     5     4     3    2
     6     3     2    1
     7     8     9    2
     8     9     2    1
     9     9    10    2
    10     2     1    1
    11    10    11    1
    12     1    12    1
    13    11    12    1
    14    12    13    1
    15    13    14    1
    16    14    15    1
    17    15    16   ar
    18    15    17   ar
    19    16    19   ar
    20    17    18   ar
    21    25    24   ar
    22    18    19   ar
    23    19    20    1
    24    22    20   am
    25    22    23    1
    26    20    21    2
    27    24    23    1
    28    24    26   ar
    29    27    23    1
    30    27    28    1
    31    28    29    1
    32    29    31   ar
    33    29    30   ar
