@<TRIPOS>MOLECULE
2fmp_DCT_A_1.pdb
 27 28 0 0 0
SMALL
GASTEIGER

@<TRIPOS>ATOM
      1  N1         6.7970    7.7750   10.3900 N.am  1338  DCT1338    -0.1803
      2  C2         7.6560    8.1180    9.3480 C.1   1338  DCT1338     0.2756
      3  N3         8.9980    8.1700    9.5660 N.2   1338  DCT1338    -0.3024
      4  C4         9.4880    7.8070   10.7550 C.2   1338  DCT1338     0.2346
      5  C5         8.6380    7.4470   11.8380 C.2   1338  DCT1338     0.0687
      6  C6         7.3060    7.4440   11.6190 C.2   1338  DCT1338     0.0835
      7  O2         7.1560    8.4340    8.2770 O.2   1338  DCT1338    -0.1925
      8  N4        10.8060    7.6310   10.8690 N.pl3 1338  DCT1338    -0.0921
      9  C1'        5.3550    7.6830   10.1010 C.3   1338  DCT1338     0.2063
     10  C2'        4.9410    6.3190    9.5440 C.3   1338  DCT1338     0.0545
     11  C3'        4.4860    5.5960   10.8110 C.3   1338  DCT1338     0.0366
     12  C4'        3.8370    6.7190   11.5990 C.3   1338  DCT1338     0.1472
     13  O4'        4.6270    7.8860   11.3100 O.3   1338  DCT1338    -0.3366
     14  C5'        3.7520    6.5200   13.0960 C.3   1338  DCT1338     0.1785
     15  O5'        5.0380    6.2580   13.6400 O.3   1338  DCT1338    -0.3113
     16  PA         5.2310    5.0480   14.6540 P.3   1338  DCT1338     0.2189
     17  O1A        4.1590    5.1780   15.6900 O.3   1338  DCT1338    -0.4371
     18  O2A        6.6370    5.0660   15.0830 O.2   1338  DCT1338    -0.5170
     19  O3A        5.0540    3.7890   13.7490 O.3   1338  DCT1338    -0.2700
     20  PB         4.0510    2.6060   13.7940 P.3   1338  DCT1338     0.2277
     21  O1B        4.1130    2.0350   12.4290 O.2   1338  DCT1338    -0.5168
     22  O2B        2.7440    3.0710   14.3150 O.3   1338  DCT1338    -0.4368
     23  O3B        4.6360    1.5670   14.7080 O.3   1338  DCT1338    -0.2258
     24  PG         4.2790    1.3640   16.1450 P.3   1338  DCT1338     0.5373
     25  O1G        3.6120    2.5970   16.6390 O.3   1338  DCT1338    -0.1143
     26  O2G        5.5140    0.8860   16.8250 O.3   1338  DCT1338    -0.1143
     27  O3G        3.2850    0.2510   16.2320 O.2   1338  DCT1338    -0.2221
@<TRIPOS>BOND
     1     7     2    2
     2     2     3    2
     3     2     1   am
     4    10     9    1
     5    10    11    1
     6     3     4    2
     7     9     1    1
     8     9    13    1
     9     1     6    1
    10     4     8    1
    11     4     5    1
    12    11    12    1
    13    13    12    1
    14    12    14    1
    15     6     5    2
    16    21    20    2
    17    14    15    1
    18    15    16    1
    19    19    20    1
    20    19    16    1
    21    20    22    1
    22    20    23    1
    23    16    18    2
    24    16    17    1
    25    23    24    1
    26    24    27    2
    27    24    25    1
    28    24    26    1
