@<TRIPOS>MOLECULE
2fmq_DUP_A_1.pdb
 28 29 0 0 0
SMALL
GASTEIGER

@<TRIPOS>ATOM
      1  O4        10.8900    7.9180   10.8420 O.2   338  DUP338     -0.2085
      2  C4         9.6670    7.9440   10.7620 C.1   338  DUP338      0.2182
      3  C5         8.7610    7.5310   11.7820 C.2   338  DUP338      0.1242
      4  C6         7.4540    7.4700   11.5280 C.2   338  DUP338      0.0928
      5  N3         9.0710    8.2860    9.5650 N.2   338  DUP338     -0.2452
      6  C2         7.7270    8.2410    9.2700 C.1   338  DUP338      0.2844
      7  O2         7.2890    8.5730    8.1800 O.2   338  DUP338     -0.1918
      8  N1         6.9170    7.7930   10.3070 N.am  338  DUP338     -0.1790
      9  C1'        5.4750    7.6540   10.0450 C.3   338  DUP338      0.2090
     10  C2'        5.1030    6.2590    9.5240 C.3   338  DUP338      0.0874
     11  C3'        4.6540    5.5620   10.8030 C.3   338  DUP338      0.1857
     12  O3'        3.7460    4.5050   10.5200 O.3   338  DUP338     -0.2203
     13  O4'        4.7680    7.8520   11.2600 O.3   338  DUP338     -0.3339
     14  C4'        3.9440    6.6900   11.5300 C.3   338  DUP338      0.1774
     15  C5'        3.7290    6.5120   13.0180 C.3   338  DUP338      0.1848
     16  O5'        4.9770    6.4740   13.7220 O.3   338  DUP338     -0.2775
     17  PA         5.2780    5.3320   14.7980 P.3   338  DUP338      0.4623
     18  O1A        4.1310    5.3960   15.7440 O.3   338  DUP338     -0.1255
     19  O2A        6.6490    5.5900   15.3210 O.2   338  DUP338     -0.2354
     20  N3A        5.2500    3.9170   13.9740 N.3   338  DUP338     -0.0179
     21  PB         4.0350    2.8430   13.7650 P.3   338  DUP338      0.4700
     22  O1B        4.0490    2.3450   12.3680 O.2   338  DUP338     -0.2350
     23  O2B        2.7670    3.3910   14.3150 O.3   338  DUP338     -0.1252
     24  O3B        4.3950    1.6280   14.5890 O.3   338  DUP338     -0.1901
     25  PG         4.2490    1.4460   16.0840 P.3   338  DUP338      0.5397
     26  O2G        3.2460    0.3850   16.3320 O.2   338  DUP338     -0.2220
     27  O1G        5.6080    1.2810   16.6480 O.3   338  DUP338     -0.1143
     28  O3G        3.7340    2.7140   16.6750 O.3   338  DUP338     -0.1143
@<TRIPOS>BOND
     1     7     6    2
     2     6     5    2
     3     6     8   am
     4    10     9    1
     5    10    11    1
     6     5     2    2
     7     9     8    1
     8     9    13    1
     9     8     4    1
    10    12    11    1
    11     2     1    2
    12     2     3    1
    13    11    14    1
    14    13    14    1
    15     4     3    2
    16    14    15    1
    17    22    21    2
    18    15    16    1
    19    16    17    1
    20    21    20    1
    21    21    23    1
    22    21    24    1
    23    20    17    1
    24    24    25    1
    25    17    19    2
    26    17    18    1
    27    25    26    2
    28    25    27    1
    29    25    28    1
