@<TRIPOS>MOLECULE
2fms_DUP_A_1.pdb
 28 29 0 0 0
SMALL
GASTEIGER

@<TRIPOS>ATOM
      1  O4        10.8100    7.8100   10.8630 O.2   338  DUP338     -0.2085
      2  C4         9.5890    7.8300   10.7860 C.1   338  DUP338      0.2182
      3  C5         8.6770    7.4820   11.8290 C.2   338  DUP338      0.1242
      4  C6         7.3660    7.4270   11.5670 C.2   338  DUP338      0.0928
      5  N3         9.0000    8.1110    9.5700 N.2   338  DUP338     -0.2452
      6  C2         7.6660    8.0640    9.2680 C.1   338  DUP338      0.2844
      7  O2         7.2470    8.3260    8.1470 O.2   338  DUP338     -0.1918
      8  N1         6.8430    7.6930   10.3170 N.am  338  DUP338     -0.1790
      9  C1'        5.4030    7.5700   10.0390 C.3   338  DUP338      0.2090
     10  C2'        5.0380    6.1670    9.5350 C.3   338  DUP338      0.0874
     11  C3'        4.6140    5.4820   10.8300 C.3   338  DUP338      0.1857
     12  O3'        3.7450    4.3760   10.5870 O.3   338  DUP338     -0.2203
     13  O4'        4.6800    7.7790   11.2430 O.3   338  DUP338     -0.3339
     14  C4'        3.8660    6.6070   11.5220 C.3   338  DUP338      0.1774
     15  C5'        3.6400    6.4450   13.0090 C.3   338  DUP338      0.1848
     16  O5'        4.8800    6.4160   13.7210 O.3   338  DUP338     -0.2775
     17  PA         5.1380    5.3420   14.8790 P.3   338  DUP338      0.4623
     18  O1A        3.9640    5.5150   15.7730 O.3   338  DUP338     -0.1255
     19  O2A        6.4930    5.6200   15.4260 O.2   338  DUP338     -0.2354
     20  N3A        5.0980    3.8630   14.1770 N.3   338  DUP338     -0.0179
     21  PB         3.9490    2.7600   13.8000 P.3   338  DUP338      0.4700
     22  O1B        4.1020    2.3470   12.3770 O.2   338  DUP338     -0.2350
     23  O2B        2.6130    3.2100   14.2720 O.3   338  DUP338     -0.1252
     24  O3B        4.2700    1.5080   14.5870 O.3   338  DUP338     -0.1901
     25  PG         4.2090    1.3100   16.0870 P.3   338  DUP338      0.5397
     26  O2G        3.2150    0.2570   16.4060 O.2   338  DUP338     -0.2220
     27  O1G        5.6170    1.1180   16.5240 O.3   338  DUP338     -0.1143
     28  O3G        3.7330    2.5700   16.7150 O.3   338  DUP338     -0.1143
@<TRIPOS>BOND
     1     7     6    2
     2     6     5    2
     3     6     8   am
     4    10     9    1
     5    10    11    1
     6     5     2    2
     7     9     8    1
     8     9    13    1
     9     8     4    1
    10    12    11    1
    11     2     1    2
    12     2     3    1
    13    11    14    1
    14    13    14    1
    15    14    15    1
    16     4     3    2
    17    22    21    2
    18    15    16    1
    19    16    17    1
    20    21    20    1
    21    21    23    1
    22    21    24    1
    23    20    17    1
    24    24    25    1
    25    17    19    2
    26    17    18    1
    27    25    26    2
    28    25    27    1
    29    25    28    1
