@<TRIPOS>MOLECULE
2fmt_FME_C_1.pdb
 10 9 0 0 0
SMALL
GASTEIGER

@<TRIPOS>ATOM
      1  N         77.8910   21.2150   17.3070 N.am  585  FME585     -0.1915
      2  CN        76.5890   20.7510   17.6470 C.2   585  FME585      0.3205
      3  O1        76.4270   20.0420   18.5320 O.2   585  FME585     -0.2633
      4  CA        78.0900   22.1210   16.1870 C.3   585  FME585      0.1609
      5  CB        78.9200   21.3740   15.1360 C.3   585  FME585      0.0413
      6  CG        78.9800   19.8650   15.3390 C.3   585  FME585      0.0598
      7  SD        80.4670   19.0840   14.6480 S.3   585  FME585     -0.1393
      8  CE        79.7410   17.9110   13.5600 C.3   585  FME585      0.0692
      9  C         76.7920   22.6890   15.6010 C.2   585  FME585      0.2287
     10  O         76.2370   23.6590   16.2140 O.2   585  FME585     -0.2864
@<TRIPOS>BOND
     1     8     7    1
     2     7     6    1
     3     5     6    1
     4     5     4    1
     5     9     4    1
     6     9    10    2
     7     4     1    1
     8     1     2   am
     9     2     3    2
