@<TRIPOS>MOLECULE
2fmy_HEM_A_1.pdb
 43 50 0 0 0
SMALL
GASTEIGER

@<TRIPOS>ATOM
      1  CHA        7.8480   42.4080   41.9260 C.2   300  HEM300      0.0000
      2  CHB       11.7740   39.5700   41.7480 C.2   300  HEM300      0.0000
      3  CHC       10.0560   37.0250   45.5320 C.2   300  HEM300      0.0000
      4  CHD        5.7540   39.2390   45.0380 C.2   300  HEM300      0.0000
      5  C1A        9.0890   41.9090   41.5830 C.ar  300  HEM300      0.0000
      6  C2A       10.0350   42.5080   40.6480 C.ar  300  HEM300      0.0000
      7  C3A       11.1280   41.7230   40.5860 C.ar  300  HEM300      0.0000
      8  C4A       10.9080   40.6070   41.4950 C.ar  300  HEM300      0.0000
      9  CMA       12.4000   41.9740   39.7210 C.3   300  HEM300      0.0000
     10  CAA        9.7870   43.8080   39.8430 C.3   300  HEM300      0.0000
     11  CBA        9.1930   43.3470   38.5120 C.3   300  HEM300      0.0000
     12  CGA        9.1180   44.4470   37.4800 C.2   300  HEM300      0.0000
     13  O1A       10.1730   45.0450   37.1220 O.co2 300  HEM300      0.0000
     14  O2A        7.9910   44.7210   37.0000 O.co2 300  HEM300      0.0000
     15  C1B       11.6330   38.6050   42.7250 C.2   300  HEM300      0.0000
     16  C2B       12.5350   37.4970   42.9490 C.2   300  HEM300      0.0000
     17  C3B       12.0660   36.7890   43.9990 C.2   300  HEM300      0.0000
     18  C4B       10.8480   37.4270   44.4720 C.2   300  HEM300      0.0000
     19  CMB       13.7980   37.2310   42.0940 C.3   300  HEM300      0.0000
     20  CAB       12.6570   35.5060   44.6180 C.2   300  HEM300      0.0000
     21  CBB       13.9600   35.2340   44.5940 C.2   300  HEM300      0.0000
     22  C1C        8.7540   37.4080   45.7740 C.ar  300  HEM300      0.0000
     23  C2C        7.8760   36.9550   46.8400 C.ar  300  HEM300      0.0000
     24  C3C        6.6810   37.5640   46.6910 C.ar  300  HEM300      0.0000
     25  C4C        6.7610   38.4290   45.5300 C.ar  300  HEM300      0.0000
     26  CMC        8.2660   35.9500   47.9490 C.3   300  HEM300      0.0000
     27  CAC        5.4230   37.4140   47.5810 C.2   300  HEM300      0.0000
     28  CBC        4.7980   36.2320   47.6650 C.2   300  HEM300      0.0000
     29  C1D        5.9020   40.3280   44.1990 C.2   300  HEM300      0.0000
     30  C2D        4.8810   41.3150   43.8850 C.2   300  HEM300      0.0000
     31  C3D        5.5400   42.2920   42.9070 C.2   300  HEM300      0.0000
     32  C4D        6.8890   41.8210   42.7320 C.2   300  HEM300      0.0000
     33  CMD        3.4300   41.3620   44.4040 C.3   300  HEM300      0.0000
     34  CAD        4.8920   43.5420   42.2780 C.3   300  HEM300      0.0000
     35  CBD        5.0580   44.6210   43.3330 C.3   300  HEM300      0.0000
     36  CGD        4.3270   45.8890   42.9810 C.2   300  HEM300      0.0000
     37  O1D        4.1230   46.7240   43.8840 O.co2 300  HEM300      0.0000
     38  O2D        3.9630   46.0760   41.7960 O.co2 300  HEM300      0.0000
     39  NA         9.6620   40.7560   42.0770 N.ar  300  HEM300      0.0000
     40  NB        10.6230   38.5310   43.6720 N.2   300  HEM300      0.0000
     41  NC         8.0390   38.3070   45.0110 N.ar  300  HEM300      0.0000
     42  ND         7.0530   40.6710   43.4950 N.2   300  HEM300      0.0000
     43 FE          8.8100   39.6430   43.6100 Fe    300  HEM300      0.0000
@<TRIPOS>BOND
     1    14    12   ar
     2    13    12   ar
     3    12    11    1
     4    11    10    1
     5     9     7    1
     6    10     6    1
     7     7     6   ar
     8     7     8   ar
     9     6     5   ar
    10     8     2    2
    11     8    39   ar
    12     5     1    2
    13     5    39   ar
    14     2    15    1
    15    38    36   ar
    16     1    32    1
    17    39    43    1
    18    19    16    1
    19    34    31    1
    20    34    35    1
    21    15    16    1
    22    15    40    2
    23    32    31    1
    24    32    42    2
    25    31    30    2
    26    16    17    2
    27    36    35    1
    28    36    37   ar
    29    42    43    1
    30    42    29    1
    31    43    40    1
    32    43    41    1
    33    40    18    1
    34    30    29    1
    35    30    33    1
    36    17    18    1
    37    17    20    1
    38    29     4    2
    39    18     3    2
    40    21    20    2
    41    41    25   ar
    42    41    22   ar
    43     4    25    1
    44    25    24   ar
    45     3    22    1
    46    22    23   ar
    47    24    23   ar
    48    24    27    1
    49    23    26    1
    50    27    28    2
