@<TRIPOS>MOLECULE
2fmz_DPN_A_1.pdb
 12 12 0 0 0
SMALL
GASTEIGER

@<TRIPOS>ATOM
      1  N         -0.2700    3.1000   12.8500 N.3   300  DPN300     -0.1205
      2  CA         0.0440    4.3630   12.0430 C.3   300  DPN300      0.1986
      3  C          1.4500    4.2900   11.6200 C.2   300  DPN300      0.3822
      4  O          1.8200    3.2700   11.0600 O.co2 300  DPN300     -0.2440
      5  OXT        2.2100    5.2000   11.7100 O.co2 300  DPN300     -0.2440
      6  CB        -0.6150    4.0930   10.6850 C.3   300  DPN300      0.0569
      7  CG        -1.9660    4.7350   10.5190 C.ar  300  DPN300     -0.0202
      8  CD1       -2.1200    6.1150   10.6320 C.ar  300  DPN300     -0.0042
      9  CD2       -3.0840    3.9590   10.2290 C.ar  300  DPN300     -0.0042
     10  CE1       -3.3670    6.7110   10.4570 C.ar  300  DPN300     -0.0003
     11  CE2       -4.3330    4.5470   10.0520 C.ar  300  DPN300     -0.0003
     12  CZ        -4.4740    5.9250   10.1660 C.ar  300  DPN300     -0.0000
@<TRIPOS>BOND
     1    11    12   ar
     2    11     9   ar
     3    12    10   ar
     4     9     7   ar
     5    10     8   ar
     6     7     8   ar
     7     7     6    1
     8     6     2    1
     9     4     3   ar
    10     3     5   ar
    11     3     2    1
    12     2     1    1
