@<TRIPOS>MOLECULE
2fn3_TZD_A_1.pdb
 27 28 0 0 0
SMALL
GASTEIGER

@<TRIPOS>ATOM
      1  N1'       91.0840   45.6490  159.0710 N.2   530  TZD530     -0.1861
      2  C2'       90.3980   44.5350  158.6770 C.1   530  TZD530      0.0663
      3  C2A       88.9410   44.5940  158.4900 C.3   530  TZD530      0.1291
      4  N3'       91.0410   43.3910  158.4790 N.2   530  TZD530     -0.3368
      5  C4'       92.3540   43.3230  158.6630 C.2   530  TZD530      0.2294
      6  N4'       92.9490   42.2000  158.2880 N.pl3 530  TZD530     -0.0924
      7  C5'       93.1080   44.4380  159.1890 C.2   530  TZD530      0.0683
      8  C6'       92.3850   45.6220  159.3380 C.2   530  TZD530      0.1117
      9  C35       94.5600   44.3610  159.4810 C.3   530  TZD530      0.1415
     10  N3        94.9480   43.4310  160.5540 N.ar  530  TZD530     -0.2894
     11  C2        95.7270   42.2430  160.2680 C.ar  530  TZD530      0.2920
     12  OC2       95.5530   41.6840  159.1390 O.2   530  TZD530     -0.2594
     13  S1        96.0680   41.3920  161.7140 S.2   530  TZD530     -0.0306
     14  C5        95.6760   42.8150  162.6450 C.ar  530  TZD530      0.0259
     15  C4        95.0830   43.7900  161.9000 C.ar  530  TZD530      0.0432
     16  C4A       94.5180   45.0670  162.3520 C.3   530  TZD530      0.0503
     17  C5A       95.9360   42.8110  164.1330 C.3   530  TZD530      0.0667
     18  C5B       94.8660   42.0660  164.9090 C.3   530  TZD530      0.1544
     19  O5G       95.1930   42.1680  166.2930 O.3   530  TZD530     -0.3134
     20  P1        94.6200   41.1460  167.3540 P.3   530  TZD530      0.2230
     21  O11       95.5670   39.8790  167.2650 O.3   530  TZD530     -0.2261
     22  O12       94.7920   41.8170  168.6910 O.3   530  TZD530     -0.4370
     23  O13       93.2700   40.7070  167.0140 O.2   530  TZD530     -0.5169
     24  P2        97.1790   39.7570  167.3870 P.3   530  TZD530      0.5373
     25  O21       97.5980   40.7050  168.5060 O.3   530  TZD530     -0.1143
     26  O22       97.3630   38.3020  167.7440 O.3   530  TZD530     -0.1143
     27  O23       97.7590   40.1210  166.0380 O.2   530  TZD530     -0.2221
@<TRIPOS>BOND
     1     6     5    1
     2     4     5    2
     3     4     2    2
     4     3     2    1
     5     5     7    1
     6     2     1    2
     7     1     8    1
     8    12    11    2
     9     7     8    2
    10     7     9    1
    11     9    10    1
    12    11    10   ar
    13    11    13   ar
    14    10    15   ar
    15    13    14   ar
    16    15    16    1
    17    15    14   ar
    18    14    17    1
    19    17    18    1
    20    18    19    1
    21    27    24    2
    22    19    20    1
    23    23    20    2
    24    21    20    1
    25    21    24    1
    26    20    22    1
    27    24    26    1
    28    24    25    1
