@<TRIPOS>MOLECULE
2fn4_GDP_A_1.pdb
 28 30 0 0 0
SMALL
GASTEIGER

@<TRIPOS>ATOM
      1  PB        -3.2650   29.2090   18.6380 P.3     1  GDP1        0.5373
      2  O1B       -3.0440   30.4860   17.8690 O.2     1  GDP1       -0.2221
      3  O2B       -2.0290   28.6100   19.2320 O.3     1  GDP1       -0.1143
      4  O3B       -4.3090   29.5310   19.7360 O.3     1  GDP1       -0.1143
      5  O3A       -3.9670   28.1610   17.6630 O.3     1  GDP1       -0.2261
      6  PA        -3.9290   26.5940   17.6750 P.3     1  GDP1        0.2231
      7  O1A       -4.2510   26.1040   19.0820 O.3     1  GDP1       -0.4370
      8  O2A       -2.6090   26.0170   17.1960 O.2     1  GDP1       -0.5169
      9  O5'       -5.1280   26.3250   16.6770 O.3     1  GDP1       -0.3111
     10  C5'       -6.4530   26.7630   17.0430 C.3     1  GDP1        0.1813
     11  C4'       -7.5110   25.9460   16.3530 C.3     1  GDP1        0.1799
     12  O4'       -7.3400   26.0930   14.9370 O.3     1  GDP1       -0.3326
     13  C3'       -7.4620   24.4570   16.6510 C.3     1  GDP1        0.2158
     14  O3'       -8.8080   23.9550   16.6980 O.3     1  GDP1       -0.2175
     15  C2'       -6.7340   23.8760   15.4560 C.3     1  GDP1        0.2310
     16  O2'       -7.1030   22.5290   15.1480 O.3     1  GDP1       -0.2158
     17  C1'       -7.1840   24.8250   14.3480 C.3     1  GDP1        0.2293
     18  N9        -6.1910   24.9780   13.2490 N.pl3   1  GDP1       -0.2354
     19  C8        -4.9110   25.3710   13.4000 C.3     1  GDP1        0.2246
     20  N7        -4.2930   25.4110   12.1910 N.2     1  GDP1       -0.2322
     21  C5        -5.2180   25.0750   11.2770 C.2     1  GDP1        0.2182
     22  C6        -5.2400   24.8870    9.8370 C.1     1  GDP1        0.2372
     23  O6        -4.1970   25.1310    9.1990 O.2     1  GDP1       -0.2069
     24  N1        -6.3770   24.5250    9.2330 N.2     1  GDP1       -0.2485
     25  C2        -7.5020   24.2700    9.9500 C.1     1  GDP1        0.2531
     26  N2        -8.6020   23.9130    9.2930 N.pl3   1  GDP1       -0.0226
     27  N3        -7.5630   24.4250   11.2820 N.2     1  GDP1       -0.3074
     28  C4        -6.4660   24.7720   11.9830 C.2     1  GDP1        0.2300
@<TRIPOS>BOND
     1    23    22    2
     2    24    22    2
     3    24    25    2
     4    26    25    1
     5    22    21    1
     6    25    27    2
     7    21    28    1
     8    21    20    2
     9    27    28    2
    10    28    18    1
    11    20    19    1
    12    18    19    1
    13    18    17    1
    14    17    12    1
    15    17    15    1
    16    12    11    1
    17    16    15    1
    18    15    13    1
    19    11    13    1
    20    11    10    1
    21    13    14    1
    22     9    10    1
    23     9     6    1
    24     8     6    2
    25     5     6    1
    26     5     1    1
    27     6     7    1
    28     2     1    2
    29     1     3    1
    30     1     4    1
