@<TRIPOS>MOLECULE
2fn7_NAD_A_1.pdb
 44 48 0 0 0
SMALL
GASTEIGER

@<TRIPOS>ATOM
      1  PA        15.6190   48.1070   66.9100 P.3   401  NAD401      0.2189
      2  O1A       14.6960   47.3440   67.6390 O.3   401  NAD401     -0.4371
      3  O2A       15.2560   48.4950   65.5800 O.2   401  NAD401     -0.5170
      4  O5B       16.1310   49.3210   67.6350 O.3   401  NAD401     -0.3112
      5  C5B       17.0150   50.3590   67.1510 C.3   401  NAD401      0.1813
      6  C4B       16.5130   51.6230   67.9570 C.3   401  NAD401      0.1821
      7  O4B       17.3190   52.6440   67.4770 O.3   401  NAD401     -0.3135
      8  C3B       15.0150   52.1400   67.6210 C.3   401  NAD401      0.2184
      9  O3B       14.1930   52.1920   68.7690 O.3   401  NAD401     -0.2174
     10  C2B       15.2630   53.4720   67.0360 C.3   401  NAD401      0.2570
     11  O2B       14.3200   54.5210   67.1890 O.3   401  NAD401     -0.2130
     12  C1B       16.5220   53.8580   67.6400 C.3   401  NAD401      0.3186
     13  N9A       17.2220   54.8910   66.9610 N.pl3 401  NAD401     -0.1439
     14  C8A       17.3710   55.2780   65.6840 C.3   401  NAD401      0.3377
     15  N7A       17.9960   56.1930   65.1680 N.2   401  NAD401     -0.2095
     16  C5A       18.4640   56.6420   66.3340 C.2   401  NAD401      0.2526
     17  C6A       19.3180   57.7410   66.6060 C.2   401  NAD401      0.4393
     18  N6A       19.7820   58.5350   65.6370 N.pl3 401  NAD401      0.2180
     19  N1A       19.6620   57.9610   67.9270 N.2   401  NAD401      0.0021
     20  C2A       19.1440   57.1350   68.9010 C.3   401  NAD401      0.5254
     21  N3A       18.3410   56.1250   68.7430 N.2   401  NAD401     -0.0055
     22  C4A       18.0370   55.9060   67.4410 C.2   401  NAD401      0.3518
     23  O3        17.0870   47.2900   66.7760 O.3   401  NAD401     -0.2703
     24  PN        17.6430   46.1360   67.7540 P.3   401  NAD401      0.2189
     25  O1N       16.9850   44.9090   67.4960 O.2   401  NAD401     -0.5170
     26  O2N       17.6550   46.6280   69.1560 O.3   401  NAD401     -0.4371
     27  O5D       19.1800   46.1160   67.1810 O.3   401  NAD401     -0.3112
     28  C5D       19.9750   47.2390   67.4150 C.3   401  NAD401      0.1813
     29  C4D       21.2720   47.1280   66.5940 C.3   401  NAD401      0.1799
     30  O4D       22.0980   46.0500   67.1900 O.3   401  NAD401     -0.3327
     31  C3D       21.1310   46.7210   65.0970 C.3   401  NAD401      0.2158
     32  O3D       22.1640   47.4110   64.4250 O.3   401  NAD401     -0.2175
     33  C2D       21.3820   45.1910   65.1190 C.3   401  NAD401      0.2309
     34  O2D       21.8490   44.6930   63.8210 O.3   401  NAD401     -0.2158
     35  C1D       22.4350   45.0910   66.1450 C.3   401  NAD401      0.2263
     36  N1N       22.6410   43.8010   66.7570 N.pl3 401  NAD401     -0.2787
     37  C2N       24.0220   43.6500   67.0760 C.3   401  NAD401      0.1244
     38  C3N       24.4800   42.4630   67.6400 C.2   401  NAD401      0.0544
     39  C7N       25.9560   42.1850   68.0570 C.2   401  NAD401      0.2818
     40  O7N       26.2170   41.0710   68.5070 O.2   401  NAD401     -0.2670
     41  N7N       26.7960   43.2620   68.1010 N.am  401  NAD401     -0.0839
     42  C4N       23.6040   41.3620   67.9220 C.2   401  NAD401      0.0033
     43  C5N       22.1630   41.5890   67.5780 C.2   401  NAD401      0.0157
     44  C6N       21.6250   42.7570   67.0020 C.2   401  NAD401      0.0633
@<TRIPOS>BOND
     1    34    33    1
     2    32    31    1
     3    31    33    1
     4    31    29    1
     5    33    35    1
     6    15    14    1
     7    15    16    2
     8     3     1    2
     9    18    17    1
    10    14    13    1
    11    35    36    1
    12    35    30    1
    13    16    17    1
    14    16    22    1
    15    29    30    1
    16    29    28    1
    17    17    19    2
    18    36    44    1
    19    36    37    1
    20    23     1    1
    21    23    24    1
    22     1     4    1
    23     1     2    1
    24    13    22    1
    25    13    12    1
    26    44    43    2
    27    10    11    1
    28    10     8    1
    29    10    12    1
    30    37    38    1
    31     5     4    1
    32     5     6    1
    33    27    28    1
    34    27    24    1
    35    22    21    2
    36     7    12    1
    37     7     6    1
    38    25    24    2
    39    43    42    1
    40     8     6    1
    41     8     9    1
    42    38    42    2
    43    38    39    1
    44    24    26    1
    45    19    20    1
    46    39    41   am
    47    39    40    2
    48    21    20    1
