@<TRIPOS>MOLECULE
2fn8_RIP_A_1.pdb
 10 10 0 0 0
SMALL
GASTEIGER

@<TRIPOS>ATOM
      1  C1         8.7240  -16.7330   19.9090 C.3   303  RIP303      0.3024
      2  C2         8.3810  -15.5920   20.8970 C.3   303  RIP303      0.2434
      3  C3         9.1250  -15.7680   22.2170 C.3   303  RIP303      0.2199
      4  C4         8.8400  -17.1540   22.7820 C.3   303  RIP303      0.2143
      5  C5         9.1760  -18.2130   21.7170 C.3   303  RIP303      0.1804
      6  O1         7.9770  -16.5860   18.7050 O.3   303  RIP303     -0.1869
      7  O2         8.6290  -14.3280   20.3380 O.3   303  RIP303     -0.2148
      8  O3        10.5130  -15.6400   22.0070 O.3   303  RIP303     -0.2174
      9  O4         9.5840  -17.3820   23.9690 O.3   303  RIP303     -0.2176
     10  O5         8.4050  -17.9510   20.5670 O.3   303  RIP303     -0.3237
@<TRIPOS>BOND
     1     6     1    1
     2     1    10    1
     3     1     2    1
     4     7     2    1
     5    10     5    1
     6     2     3    1
     7     5     4    1
     8     8     3    1
     9     3     4    1
    10     4     9    1
