@<TRIPOS>MOLECULE
2fna_ADP_A_1.pdb
 27 29 0 0 0
SMALL
GASTEIGER

@<TRIPOS>ATOM
      1  PB         4.6540   50.5740   50.8100 P.3   500  ADP500      0.5373
      2  O1B        4.8350   50.2770   49.3560 O.2   500  ADP500     -0.2221
      3  O2B        4.2050   49.3410   51.5880 O.3   500  ADP500     -0.1143
      4  O3B        3.9150   51.8230   51.1560 O.3   500  ADP500     -0.1143
      5  PA         6.8250   51.8640   52.3420 P.3   500  ADP500      0.2231
      6  O1A        7.0240   53.2310   51.7710 O.2   500  ADP500     -0.5169
      7  O2A        6.0070   51.8870   53.5650 O.3   500  ADP500     -0.4370
      8  O3A        6.2290   50.7510   51.3160 O.3   500  ADP500     -0.2261
      9  O5'        8.2740   51.2320   52.4990 O.3   500  ADP500     -0.3111
     10  C5'        8.5070   49.9960   53.1960 C.3   500  ADP500      0.1813
     11  C4'        9.8260   50.0740   53.9610 C.3   500  ADP500      0.1821
     12  O4'       10.9400   49.9850   53.0930 O.3   500  ADP500     -0.3135
     13  C3'       10.0340   51.3470   54.7210 C.3   500  ADP500      0.2184
     14  O3'       10.8920   51.0380   55.8400 O.3   500  ADP500     -0.2174
     15  C2'       10.8120   52.2270   53.7680 C.3   500  ADP500      0.2570
     16  O2'       11.6130   53.1900   54.4370 O.3   500  ADP500     -0.2130
     17  C1'       11.6740   51.1960   53.0950 C.3   500  ADP500      0.3186
     18  N9        12.0050   51.4610   51.6990 N.pl3 500  ADP500     -0.1439
     19  C8        11.3040   51.0330   50.6270 C.3   500  ADP500      0.3377
     20  N7        11.9200   51.3880   49.5000 N.2   500  ADP500     -0.2095
     21  C5        13.0310   52.0800   49.8480 C.2   500  ADP500      0.2526
     22  C6        14.1530   52.7460   49.1510 C.2   500  ADP500      0.4393
     23  N6        14.1970   52.7750   47.8030 N.pl3 500  ADP500      0.2180
     24  N1        15.1370   53.3230   49.8980 N.2   500  ADP500      0.0021
     25  C2        15.1220   53.2960   51.2440 C.3   500  ADP500      0.5254
     26  N3        14.1400   52.7030   51.9440 N.2   500  ADP500     -0.0055
     27  C4        13.1040   52.0930   51.3040 C.2   500  ADP500      0.3518
@<TRIPOS>BOND
     1    23    22    1
     2    22    21    1
     3    22    24    2
     4     2     1    2
     5    20    21    2
     6    20    19    1
     7    21    27    1
     8    24    25    1
     9    19    18    1
    10     1     4    1
    11     1     8    1
    12     1     3    1
    13    25    26    1
    14    27    18    1
    15    27    26    2
    16     8     5    1
    17    18    17    1
    18     6     5    2
    19     5     9    1
    20     5     7    1
    21     9    10    1
    22    12    17    1
    23    12    11    1
    24    17    15    1
    25    10    11    1
    26    15    16    1
    27    15    13    1
    28    11    13    1
    29    13    14    1
