@<TRIPOS>MOLECULE
2fnc_MLR_A_1.pdb
 34 36 0 0 0
SMALL
GASTEIGER

@<TRIPOS>ATOM
      1  C1A       -3.8130    3.5030   19.1150 C.3   2913  MLR2913     0.3023
      2  C2A       -2.6610    2.7020   18.5220 C.3   2913  MLR2913     0.2433
      3  C3A       -1.9970    1.7990   19.5700 C.3   2913  MLR2913     0.2168
      4  C4A       -1.5750    2.6770   20.7390 C.3   2913  MLR2913     0.1804
      5  C5A       -2.7790    3.4000   21.3390 C.3   2913  MLR2913     0.1804
      6  C6A       -2.4410    4.3740   22.4780 C.3   2913  MLR2913     0.2141
      7  O1X       -4.9020    2.6150   19.2880 O.3   2913  MLR2913    -0.1869
      8  O2A       -3.1180    1.9230   17.4470 O.3   2913  MLR2913    -0.2148
      9  O3A       -0.8760    1.1210   18.9680 O.3   2913  MLR2913    -0.2175
     10  O4A       -0.9770    1.8830   21.7790 O.3   2913  MLR2913    -0.3257
     11  O5A       -3.4510    4.1780   20.3280 O.3   2913  MLR2913    -0.3237
     12  O6A       -3.6650    4.6940   23.1750 O.3   2913  MLR2913    -0.2176
     13  C1B        0.2830    2.3180   22.2330 C.3   2913  MLR2913     0.2695
     14  C2B        1.2990    1.2110   21.8960 C.3   2913  MLR2913     0.2404
     15  C3B        0.9820    0.0130   22.7690 C.3   2913  MLR2913     0.2167
     16  C4B        0.8580    0.3540   24.2510 C.3   2913  MLR2913     0.1804
     17  C5B       -0.1230    1.5100   24.4740 C.3   2913  MLR2913     0.1803
     18  C6B       -0.0740    2.0000   25.9090 C.3   2913  MLR2913     0.2141
     19  O2B        1.2550    0.8270   20.5050 O.3   2913  MLR2913    -0.2149
     20  O3B        2.0100   -1.0050   22.5990 O.3   2913  MLR2913    -0.2175
     21  O4B        0.3950   -0.8040   24.9390 O.3   2913  MLR2913    -0.3257
     22  O5B        0.2530    2.5900   23.6230 O.3   2913  MLR2913    -0.3257
     23  O6B       -1.3630    2.5120   26.2640 O.3   2913  MLR2913    -0.2176
     24  C1C        1.3560   -1.4220   25.7920 C.3   2913  MLR2913     0.2695
     25  C2C        1.2370   -2.9410   25.6090 C.3   2913  MLR2913     0.2406
     26  C3C       -0.1090   -3.4320   26.1700 C.3   2913  MLR2913     0.2198
     27  C4C       -0.3130   -2.9550   27.6060 C.3   2913  MLR2913     0.2144
     28  C5C       -0.1200   -1.4480   27.6860 C.3   2913  MLR2913     0.1835
     29  C6C       -0.2950   -0.9350   29.1140 C.3   2913  MLR2913     0.2142
     30  O2C        1.3550   -3.2590   24.2040 O.3   2913  MLR2913    -0.2149
     31  O3C       -0.1930   -4.8740   26.0940 O.3   2913  MLR2913    -0.2174
     32  O4C       -1.6430   -3.2950   28.0560 O.3   2913  MLR2913    -0.2176
     33  O5C        1.1580   -1.0780   27.1600 O.3   2913  MLR2913    -0.3256
     34  O6C       -0.5860    0.4660   29.1070 O.3   2913  MLR2913    -0.2176
@<TRIPOS>BOND
     1     8     2    1
     2     2     1    1
     3     2     3    1
     4     9     3    1
     5     1     7    1
     6     1    11    1
     7     3     4    1
     8    11     5    1
     9    19    14    1
    10     4     5    1
    11     4    10    1
    12     5     6    1
    13    10    13    1
    14    14    13    1
    15    14    15    1
    16    13    22    1
    17     6    12    1
    18    20    15    1
    19    15    16    1
    20    22    17    1
    21    30    25    1
    22    16    17    1
    23    16    21    1
    24    17    18    1
    25    21    24    1
    26    25    24    1
    27    25    26    1
    28    24    33    1
    29    18    23    1
    30    31    26    1
    31    26    27    1
    32    33    28    1
    33    27    28    1
    34    27    32    1
    35    28    29    1
    36    34    29    1
