@<TRIPOS>MOLECULE
2fni_PLP_A_1.pdb
 15 15 0 0 0
SMALL
GASTEIGER

@<TRIPOS>ATOM
      1  N1        12.3300   46.7290   13.0290 N.2   376  PLP376     -0.2505
      2  C2        12.7640   48.0300   12.8820 C.2   376  PLP376      0.0675
      3  C2A       12.0290   48.9550   11.9660 C.3   376  PLP376      0.0499
      4  C3        13.8760   48.4790   13.5830 C.3   376  PLP376      0.1913
      5  O3        14.1280   49.8200   13.6510 O.3   376  PLP376     -0.2167
      6  C4        14.5700   47.6230   14.4370 C.3   376  PLP376      0.0581
      7  C4A       15.9450   48.0170   14.9140 C.3   376  PLP376      0.0075
      8  C5        14.1290   46.3040   14.5900 C.2   376  PLP376      0.0073
      9  C6        13.0060   45.8710   13.8810 C.2   376  PLP376      0.0921
     10  C5A       15.0350   45.2820   15.2540 C.3   376  PLP376      0.1776
     11  O4P       14.6340   45.0300   16.5860 O.3   376  PLP376     -0.2656
     12  P         15.7120   44.7450   17.7390 P.3   376  PLP376      0.5329
     13  O1P       15.9720   43.2540   17.7830 O.3   376  PLP376     -0.1145
     14  O2P       15.1990   45.1690   19.0940 O.3   376  PLP376     -0.1145
     15  O3P       16.9720   45.5260   17.4080 O.2   376  PLP376     -0.2224
@<TRIPOS>BOND
     1     3     2    1
     2     2     1    2
     3     2     4    1
     4     1     9    1
     5     4     5    1
     6     4     6    1
     7     9     8    2
     8     6     8    1
     9     6     7    1
    10     8    10    1
    11    10    11    1
    12    11    12    1
    13    15    12    2
    14    12    13    1
    15    12    14    1
