@<TRIPOS>MOLECULE
2fns_III_P_1.pdb
 46 46 0 0 0
SMALL
GASTEIGER

@<TRIPOS>ATOM
      1  N         15.7580   39.0380   19.9280 N.3     2  ARG2       -0.1231
      2  CA        15.5760   39.0710   18.4450 C.3     2  ARG2        0.1694
      3  C         16.3180   37.9410   17.7200 C.2     2  ARG2        0.2592
      4  O         15.7440   37.2720   16.8610 O.2     2  ARG2       -0.2718
      5  CB        16.0010   40.4300   17.8990 C.3     2  ARG2        0.0304
      6  N         17.5880   37.7390   18.0650 N.am    3  GLN3       -0.1966
      7  CA        18.4810   36.8710   17.2930 C.3     3  GLN3        0.1728
      8  C         18.0980   35.3900   17.3390 C.2     3  GLN3        0.2616
      9  O         18.0230   34.7870   18.4130 O.2     3  GLN3       -0.2715
     10  CB        19.9210   37.0510   17.7550 C.3     3  GLN3        0.0334
     11  N         17.8560   34.8300   16.1560 N.am    4  ALA4       -0.1963
     12  CA        17.5830   33.4020   15.9730 C.3     4  ALA4        0.1728
     13  C         18.7340   32.7540   15.2060 C.2     4  ALA4        0.2616
     14  O         18.6350   32.5130   13.9990 O.2     4  ALA4       -0.2715
     15  CB        16.2690   33.2070   15.2200 C.3     4  ALA4        0.0334
     16  N         19.8090   32.4360   15.9220 N.am    5  ASN5       -0.1958
     17  CA        21.1190   32.2080   15.3060 C.3     5  ASN5        0.1819
     18  C         21.3920   30.8040   14.7520 C.2     5  ASN5        0.2621
     19  O         22.5330   30.4710   14.4290 O.2     5  ASN5       -0.2715
     20  CB        22.2120   32.5860   16.3060 C.3     5  ASN5        0.1195
     21  CG        22.2420   34.0720   16.5900 C.2     5  ASN5        0.2630
     22  OD1       22.5140   34.8780   15.7030 O.2     5  ASN5       -0.2716
     23  ND2       21.9530   34.4440   17.8310 N.am    5  ASN5       -0.0877
     24  N         20.3450   29.9940   14.6200 N.am    6  PHE6       -0.1960
     25  CA        20.4620   28.6340   14.0880 C.3     6  PHE6        0.1771
     26  C         21.1350   28.5950   12.7120 C.2     6  PHE6        0.2619
     27  O         21.0880   29.5660   11.9560 O.2     6  PHE6       -0.2715
     28  CB        19.0770   27.9840   13.9900 C.3     6  PHE6        0.0574
     29  CG        18.6260   27.7280   12.5820 C.ar    6  PHE6       -0.0200
     30  CD1       18.9750   26.5540   11.9320 C.ar    6  PHE6       -0.0042
     31  CD2       17.8680   28.6640   11.9030 C.ar    6  PHE6       -0.0042
     32  CE1       18.5810   26.3190   10.6350 C.ar    6  PHE6       -0.0003
     33  CE2       17.4620   28.4300   10.6050 C.ar    6  PHE6       -0.0003
     34  CZ        17.8250   27.2550    9.9690 C.ar    6  PHE6       -0.0000
     35  N         21.7480   27.4590   12.3910 N.am    7  LEU7       -0.1963
     36  CA        22.3660   27.2590   11.0770 C.3     7  LEU7        0.1728
     37  C         22.3370   25.7980   10.6120 C.2     7  LEU7        0.2616
     38  O         22.4890   24.8670   11.4040 O.2     7  LEU7       -0.2715
     39  CB        23.8030   27.7940   11.0800 C.3     7  LEU7        0.0311
     40  CG        24.9110   26.8630   11.5780 C.3     7  LEU7        0.0022
     41  CD1       25.5530   26.0960   10.4320 C.3     7  LEU7        0.0001
     42  CD2       25.9620   27.6680   12.3070 C.3     7  LEU7        0.0001
     43  N         22.1550   25.6110    9.3090 N.am    8  GLY8       -0.1955
     44  CA        22.1450   24.2770    8.7140 C.3     8  GLY8        0.1869
     45  C         23.5450   23.7280    8.5160 C.2     8  GLY8        0.2309
     46  O         24.3520   24.2980    7.7800 O.2     8  GLY8       -0.2863
@<TRIPOS>BOND
     1    46    45    2
     2    45    44    1
     3    44    43    1
     4    43    37   am
     5    34    33   ar
     6    34    32   ar
     7    41    40    1
     8    33    31   ar
     9    37    36    1
    10    37    38    2
    11    32    30   ar
    12    36    39    1
    13    36    35    1
    14    39    40    1
    15    40    42    1
    16    31    29   ar
    17    30    29   ar
    18    27    26    2
    19    35    26   am
    20    29    28    1
    21    26    25    1
    22    28    25    1
    23    14    13    2
    24    25    24    1
    25    19    18    2
    26    24    18   am
    27    18    17    1
    28    13    16   am
    29    13    12    1
    30    15    12    1
    31    17    16    1
    32    17    20    1
    33    22    21    2
    34    12    11    1
    35    11     8   am
    36    20    21    1
    37    21    23   am
    38     4     3    2
    39     7     8    1
    40     7    10    1
    41     7     6    1
    42     8     9    2
    43     3     6   am
    44     3     2    1
    45     5     2    1
    46     2     1    1
