@<TRIPOS>MOLECULE
2fnt_III_P_1.pdb
 48 48 0 0 0
SMALL
GASTEIGER

@<TRIPOS>ATOM
      1  N         16.6960   41.2120   16.6170 N.3     2  ARG2       -0.1231
      2  CA        16.9540   40.1440   17.6290 C.3     2  ARG2        0.1694
      3  C         17.3330   38.8550   16.9180 C.2     2  ARG2        0.2592
      4  O         17.0380   38.6880   15.7290 O.2     2  ARG2       -0.2718
      5  CB        15.7360   39.9220   18.5100 C.3     2  ARG2        0.0304
      6  N         17.9590   37.9460   17.6640 N.am    3  GLN3       -0.1966
      7  CA        18.8190   36.9260   17.0680 C.3     3  GLN3        0.1728
      8  C         18.2450   35.5220   17.1690 C.2     3  GLN3        0.2616
      9  O         18.1190   34.9620   18.2640 O.2     3  GLN3       -0.2715
     10  CB        20.1990   36.9690   17.7080 C.3     3  GLN3        0.0334
     11  N         17.9080   34.9620   16.0130 N.am    4  VAL4       -0.1963
     12  CA        17.5440   33.5580   15.9180 C.3     4  VAL4        0.1727
     13  C         18.6280   32.8620   15.1140 C.2     4  VAL4        0.2616
     14  O         18.5890   32.8130   13.8790 O.2     4  VAL4       -0.2715
     15  CB        16.1340   33.3500   15.3270 C.3     4  VAL4        0.0290
     16  CG1       15.1160   34.1380   16.1460 C.3     4  VAL4        0.0023
     17  CG2       16.0710   33.7350   13.8570 C.3     4  VAL4        0.0023
     18  N         19.5890   32.2570   15.8040 N.am    5  ASN5       -0.1958
     19  CA        20.8130   31.8060   15.1370 C.3     5  ASN5        0.1819
     20  C         20.7820   30.3700   14.6020 C.2     5  ASN5        0.2621
     21  O         21.7840   29.6500   14.6570 O.2     5  ASN5       -0.2715
     22  CB        22.0160   32.0380   16.0560 C.3     5  ASN5        0.1195
     23  CG        22.3220   33.5110   16.2390 C.2     5  ASN5        0.2630
     24  OD1       22.5950   34.2210   15.2720 O.2     5  ASN5       -0.2716
     25  ND2       22.2660   33.9810   17.4770 N.am    5  ASN5       -0.0877
     26  N         19.6370   29.9650   14.0580 N.am    6  PHE6       -0.1960
     27  CA        19.5600   28.7180   13.3070 C.3     6  PHE6        0.1771
     28  C         20.7210   28.6340   12.3230 C.2     6  PHE6        0.2619
     29  O         21.2720   29.6570   11.9150 O.2     6  PHE6       -0.2715
     30  CB        18.2430   28.6180   12.5320 C.3     6  PHE6        0.0574
     31  CG        18.2630   27.5620   11.4650 C.ar    6  PHE6       -0.0200
     32  CD1       18.2880   27.9000   10.1210 C.ar    6  PHE6       -0.0042
     33  CD2       18.3070   26.2250   11.8160 C.ar    6  PHE6       -0.0042
     34  CE1       18.3300   26.9160    9.1440 C.ar    6  PHE6       -0.0003
     35  CE2       18.3540   25.2390   10.8520 C.ar    6  PHE6       -0.0003
     36  CZ        18.3640   25.5790    9.5120 C.ar    6  PHE6       -0.0000
     37  N         21.0670   27.4160   11.9160 N.am    7  LEU7       -0.1963
     38  CA        22.2070   27.2100   11.0290 C.3     7  LEU7        0.1728
     39  C         22.2580   25.7660   10.5140 C.2     7  LEU7        0.2616
     40  O         22.4080   24.8180   11.2860 O.2     7  LEU7       -0.2715
     41  CB        23.4830   27.6130   11.7680 C.3     7  LEU7        0.0311
     42  CG        24.8480   27.3620   11.1320 C.3     7  LEU7        0.0022
     43  CD1       25.8400   28.3560   11.6900 C.3     7  LEU7        0.0001
     44  CD2       25.3230   25.9480   11.3950 C.3     7  LEU7        0.0001
     45  N         22.1160   25.6140    9.2000 N.am    8  GLY8       -0.1955
     46  CA        21.8200   24.3280    8.5800 C.3     8  GLY8        0.1869
     47  C         23.0670   23.6080    8.1170 C.2     8  GLY8        0.2309
     48  O         23.0230   22.8100    7.1740 O.2     8  GLY8       -0.2863
@<TRIPOS>BOND
     1    48    47    2
     2    47    46    1
     3    46    45    1
     4    34    36   ar
     5    34    32   ar
     6    45    39   am
     7    36    35   ar
     8    32    31   ar
     9    39    38    1
    10    39    40    2
    11    35    33   ar
    12    38    41    1
    13    38    37    1
    14    42    44    1
    15    42    43    1
    16    42    41    1
    17    31    33   ar
    18    31    30    1
    19    29    28    2
    20    37    28   am
    21    28    27    1
    22    30    27    1
    23    27    26    1
    24    17    15    1
    25    14    13    2
    26    26    20   am
    27    20    21    2
    28    20    19    1
    29    13    18   am
    30    13    12    1
    31    19    18    1
    32    19    22    1
    33    24    23    2
    34    15    12    1
    35    15    16    1
    36     4     3    2
    37    12    11    1
    38    11     8   am
    39    22    23    1
    40    23    25   am
    41     1     2    1
    42     3     2    1
    43     3     6   am
    44     7     8    1
    45     7     6    1
    46     7    10    1
    47     8     9    2
    48     2     5    1
