@<TRIPOS>MOLECULE
2fnu_UD1_A_1.pdb
 37 39 0 0 0
SMALL
GASTEIGER

@<TRIPOS>ATOM
      1  C1'       13.7640   22.3600   32.3370 C.3   902  UD1902      0.2630
      2  C2'       14.6330   21.1760   32.7750 C.3   902  UD1902      0.1819
      3  C3'       16.0830   21.5940   33.0010 C.3   902  UD1902      0.1792
      4  C4'       16.6110   22.4010   31.8160 C.3   902  UD1902      0.0645
      5  C5'       15.7030   23.5770   31.4340 C.3   902  UD1902      0.1205
      6  C6'       15.8300   24.7460   32.4130 C.3   902  UD1902      0.0322
      7  C7'       13.2520   19.5170   33.9500 C.2   902  UD1902      0.2420
      8  C8'       12.6860   19.0130   35.2490 C.3   902  UD1902      0.0964
      9  N2'       14.0510   20.5970   33.9940 N.am  902  UD1902     -0.1993
     10  O1'       13.5220   23.1640   33.4850 O.3   902  UD1902     -0.2864
     11  O3'       16.9130   20.4240   33.1220 O.3   902  UD1902     -0.2210
     12  O5'       14.3440   23.1530   31.2760 O.3   902  UD1902     -0.3314
     13  O7'       13.0020   18.9490   32.9080 O.2   902  UD1902     -0.2733
     14  N1        14.6150   28.6800   38.9130 N.am  902  UD1902     -0.1766
     15  C2        15.2720   29.8040   39.4600 C.1   902  UD1902      0.2845
     16  N3        15.4710   30.8900   38.6910 N.2   902  UD1902     -0.2452
     17  C4        15.0440   30.9430   37.4140 C.1   902  UD1902      0.2182
     18  C5        14.3830   29.8710   36.8180 C.2   902  UD1902      0.1242
     19  C6        14.1650   28.7230   37.5730 C.2   902  UD1902      0.0929
     20  O2        15.6710   29.7880   40.6570 O.2   902  UD1902     -0.1918
     21  O4        15.2400   31.9740   36.7480 O.2   902  UD1902     -0.2085
     22  C1B       14.3820   27.5040   39.7690 C.3   902  UD1902      0.2401
     23  C2B       13.1050   27.7960   40.5480 C.3   902  UD1902      0.2319
     24  O2'       13.2680   27.3760   41.9070 O.3   902  UD1902     -0.2157
     25  C3B       12.0520   26.9670   39.8420 C.3   902  UD1902      0.2158
     26  C4B       12.8420   25.7810   39.3280 C.3   902  UD1902      0.1799
     27  O4B       14.1390   26.3080   39.0120 O.3   902  UD1902     -0.3320
     28  O3B       10.9950   26.5390   40.7080 O.3   902  UD1902     -0.2175
     29  C5B       12.1750   25.2050   38.0920 C.3   902  UD1902      0.1813
     30  O5B       13.0000   24.1340   37.6510 O.3   902  UD1902     -0.3112
     31  PA        12.4830   23.0970   36.5280 P.3   902  UD1902      0.2189
     32  O1A       13.6770   22.2350   36.1560 O.2   902  UD1902     -0.5170
     33  O2A       11.2030   22.4670   37.0390 O.3   902  UD1902     -0.4371
     34  O3A       12.1610   24.1550   35.3350 O.3   902  UD1902     -0.2703
     35  PB        12.0610   23.7630   33.7710 P.3   902  UD1902      0.2208
     36  O1B       11.0210   22.6610   33.5940 O.3   902  UD1902     -0.4371
     37  O2B       11.9510   25.0610   32.9900 O.2   902  UD1902     -0.5170
@<TRIPOS>BOND
     1    12     5    1
     2    12     1    1
     3     5     4    1
     4     5     6    1
     5     4     3    1
     6     1     2    1
     7     1    10    1
     8     2     3    1
     9     2     9    1
    10    13     7    2
    11    37    35    2
    12     3    11    1
    13    10    35    1
    14    36    35    1
    15    35    34    1
    16     7     9   am
    17     7     8    1
    18    34    31    1
    19    32    31    2
    20    31    33    1
    21    31    30    1
    22    21    17    2
    23    18    17    1
    24    18    19    2
    25    17    16    2
    26    19    14    1
    27    30    29    1
    28    29    26    1
    29    16    15    2
    30    14    15   am
    31    14    22    1
    32    27    26    1
    33    27    22    1
    34    26    25    1
    35    15    20    2
    36    22    23    1
    37    25    23    1
    38    25    28    1
    39    23    24    1
