@<TRIPOS>MOLECULE
2fnu_PMP_A_1.pdb
 16 16 0 0 0
SMALL
GASTEIGER

@<TRIPOS>ATOM
      1  N1        19.6620   19.7990   27.0290 N.ar  901  PMP901     -0.2452
      2  C2        19.5300   19.4530   28.3420 C.ar  901  PMP901      0.0978
      3  C2A       20.2560   18.2080   28.7940 C.3   901  PMP901      0.0555
      4  C3        18.9350   20.3340   29.2470 C.ar  901  PMP901      0.2063
      5  O3        18.9830   20.0670   30.5900 O.3   901  PMP901     -0.2856
      6  C4        18.2700   21.4660   28.7510 C.ar  901  PMP901      0.0369
      7  C4A       17.4390   22.3660   29.6380 C.3   901  PMP901      0.1386
      8  N4A       16.9830   21.6840   30.8320 N.3   901  PMP901     -0.1261
      9  C5        18.3920   21.7820   27.4000 C.ar  901  PMP901      0.0275
     10  C6        19.0790   20.9450   26.5450 C.ar  901  PMP901      0.0965
     11  C5A       17.8260   23.0760   26.8280 C.3   901  PMP901      0.1816
     12  O4P       18.6540   24.1500   27.2580 O.3   901  PMP901     -0.2653
     13  P         18.0940   25.6610   27.2900 P.3   901  PMP901      0.5329
     14  O1P       17.1820   25.7050   28.4950 O.3   901  PMP901     -0.1145
     15  O2P       19.3160   26.5340   27.4620 O.3   901  PMP901     -0.1145
     16  O3P       17.3230   25.9210   26.0090 O.2   901  PMP901     -0.2224
@<TRIPOS>BOND
     1    16    13    2
     2    10     1   ar
     3    10     9   ar
     4    11    12    1
     5    11     9    1
     6     1     2   ar
     7    12    13    1
     8    13    15    1
     9    13    14    1
    10     9     6   ar
    11     2     3    1
    12     2     4   ar
    13     6     4   ar
    14     6     7    1
    15     4     5    1
    16     7     8    1
