@<TRIPOS>MOLECULE
2fnw_REP_A_1.pdb
 21 24 0 0 0
SMALL
GASTEIGER

@<TRIPOS>ATOM
      1 RE          6.2690   -6.7180   10.5030 Re    801  REP801      0.0000
      2  N1         8.3930   -6.9460   10.1140 N.pl3 801  REP801      0.0000
      3  N2         7.0160   -4.6800   10.4130 N.pl3 801  REP801      0.0000
      4  O1         6.4580   -6.7390   13.5960 O.3   801  REP801      0.0000
      5  O2         3.2740   -5.9920   10.8500 O.3   801  REP801      0.0000
      6  O3         5.4090   -9.6620   10.6510 O.3   801  REP801      0.0000
      7  C1         6.4470   -6.7870   12.4450 C.3   801  REP801      0.0000
      8  C2         4.3860   -6.2610   10.7210 C.3   801  REP801      0.0000
      9  C3         5.7710   -8.6020   10.6150 C.3   801  REP801      0.0000
     10  C7         9.1240   -8.0490   10.2490 C.2   801  REP801      0.0000
     11  C8        10.4980   -8.0790    9.9880 C.2   801  REP801      0.0000
     12  C9        11.1400   -6.9450    9.7010 C.2   801  REP801      0.0000
     13  C10       10.4270   -5.7380    9.5560 C.ar  801  REP801      0.0000
     14  C11        9.0500   -5.7790    9.8400 C.ar  801  REP801      0.0000
     15  C12        8.3180   -4.5640   10.0060 C.ar  801  REP801      0.0000
     16  C13        8.9460   -3.3320    9.8180 C.ar  801  REP801      0.0000
     17  C14        8.1690   -2.1930    9.9590 C.2   801  REP801      0.0000
     18  C15        6.8810   -2.2830   10.3720 C.2   801  REP801      0.0000
     19  C16        6.3340   -3.5500   10.5830 C.2   801  REP801      0.0000
     20  C17       11.0140   -4.4590    9.2640 C.ar  801  REP801      0.0000
     21  C18       10.3120   -3.3220    9.3870 C.ar  801  REP801      0.0000
@<TRIPOS>BOND
     1    20    21   ar
     2    20    13   ar
     3    21    16   ar
     4    13    12    2
     5    13    14   ar
     6    12    11    1
     7    16    17    2
     8    16    15   ar
     9    14    15   ar
    10    14     2    1
    11    17    18    1
    12    11    10    2
    13    15     3    1
    14     2    10    1
    15     2     1    1
    16    18    19    2
    17     3     1    1
    18     3    19    1
    19     1     9    1
    20     1     8    1
    21     1     7    1
    22     9     6    1
    23     8     5    1
    24     7     4    1
