@<TRIPOS>MOLECULE
2fnx_III_P_1.pdb
 29 28 0 0 0
SMALL
GASTEIGER

@<TRIPOS>ATOM
      1  N          5.4090   15.4410   -3.4830 N.3     1  VAL1       -0.1231
      2  CA         4.1870   15.6790   -4.2230 C.3     1  VAL1        0.1692
      3  C          3.9510   17.1720   -4.4490 C.2     1  VAL1        0.2592
      4  O          2.8370   17.6370   -4.2180 O.2     1  VAL1       -0.2718
      5  CB         2.9830   15.0680   -3.4930 C.3     1  VAL1        0.0266
      6  CG1        1.7440   15.1200   -4.3710 C.3     1  VAL1        0.0020
      7  CG2        3.2700   13.6300   -3.0850 C.3     1  VAL1        0.0020
      8  N          4.9520   17.9130   -4.9040 N.am    2  ILE2       -0.1966
      9  CA         4.6580   19.3310   -4.9490 C.3     2  ILE2        0.1727
     10  C          5.4410   20.2510   -5.8790 C.2     2  ILE2        0.2616
     11  O          6.6290   20.0500   -6.1750 O.2     2  ILE2       -0.2715
     12  CB         4.9100   19.9160   -3.5700 C.3     2  ILE2        0.0290
     13  CG1        5.3030   21.3800   -3.7050 C.3     2  ILE2        0.0022
     14  CG2        5.9930   19.1320   -2.8430 C.3     2  ILE2        0.0023
     15  CD1        4.5920   22.2910   -2.7320 C.3     2  ILE2        0.0001
     16  N          4.7030   21.2770   -6.3000 N.am    3  ALA3       -0.1963
     17  CA         5.1170   22.4080   -7.1130 C.3     3  ALA3        0.1728
     18  C          6.0010   22.1210   -8.3070 C.2     3  ALA3        0.2616
     19  O          6.2940   20.9820   -8.6720 O.2     3  ALA3       -0.2715
     20  CB         5.7890   23.4300   -6.2080 C.3     3  ALA3        0.0334
     21  N          6.4050   23.2500   -8.9340 N.am    4  LYS4       -0.1977
     22  CA         7.3410   23.3830  -10.0230 C.3     4  LYS4        0.1596
     23  C          7.7840   22.0400  -10.5950 C.2     4  LYS4        0.2287
     24  O          7.3670   21.6600  -11.6870 O.2     4  LYS4       -0.2864
     25  CB         8.5470   24.1650   -9.4890 C.3     4  LYS4        0.0298
     26  CG         8.4930   24.4180   -7.9890 C.3     4  LYS4        0.0038
     27  CD         9.1130   25.7540   -7.6140 C.3     4  LYS4        0.0206
     28  CE         8.1260   26.7140   -6.9640 C.3     4  LYS4        0.1093
     29  NZ         8.6890   28.0810   -6.8270 N.3     4  LYS4       -0.1314
@<TRIPOS>BOND
     1    24    23    2
     2    23    22    1
     3    22    25    1
     4    22    21    1
     5    25    26    1
     6    21    18   am
     7    19    18    2
     8    18    17    1
     9    26    27    1
    10    27    28    1
    11    17    16    1
    12    17    20    1
    13    28    29    1
    14    16    10   am
    15    11    10    2
    16    10     9    1
    17     9     8    1
    18     9    12    1
    19     8     3   am
    20     3     2    1
    21     3     4    2
    22     6     5    1
    23     2     5    1
    24     2     1    1
    25    13    12    1
    26    13    15    1
    27    12    14    1
    28     5     7    1
