@<TRIPOS>MOLECULE
2fnz_NAD_A_1.pdb
 44 48 0 0 0
SMALL
GASTEIGER

@<TRIPOS>ATOM
      1  PA        14.0270   44.9370   26.1190 P.3   400  NAD400      0.2189
      2  O1A       14.2980   46.2030   25.4680 O.2   400  NAD400     -0.5170
      3  O2A       13.6150   44.9900   27.5370 O.3   400  NAD400     -0.4371
      4  O5B       13.0240   44.0010   25.3940 O.3   400  NAD400     -0.3112
      5  C5B       12.5890   42.7230   25.8910 C.3   400  NAD400      0.1813
      6  C4B       11.2680   42.4660   25.1400 C.3   400  NAD400      0.1821
      7  O4B       10.7980   41.2280   25.6840 O.3   400  NAD400     -0.3135
      8  C3B       10.0980   43.4990   25.4320 C.3   400  NAD400      0.2184
      9  O3B        9.6870   44.1020   24.2140 O.3   400  NAD400     -0.2174
     10  C2B        9.0680   42.6330   26.1010 C.3   400  NAD400      0.2570
     11  O2B        7.6950   42.9800   26.0150 O.3   400  NAD400     -0.2130
     12  C1B        9.3770   41.2860   25.5200 C.3   400  NAD400      0.3186
     13  N9A        8.8760   40.0960   26.1710 N.pl3 400  NAD400     -0.1439
     14  C8A        8.6420   39.6250   27.4030 C.3   400  NAD400      0.3377
     15  N7A        8.1920   38.5510   27.8450 N.2   400  NAD400     -0.2095
     16  C5A        8.0330   38.0490   26.5940 C.2   400  NAD400      0.2526
     17  C6A        7.5230   36.7640   26.1850 C.2   400  NAD400      0.4393
     18  N6A        7.1210   35.8810   27.1050 N.pl3 400  NAD400      0.2180
     19  N1A        7.4670   36.4910   24.8150 N.2   400  NAD400      0.0021
     20  C2A        7.9020   37.4720   23.9030 C.3   400  NAD400      0.5254
     21  N3A        8.3780   38.6740   24.1840 N.2   400  NAD400     -0.0055
     22  C4A        8.4250   38.9190   25.5590 C.2   400  NAD400      0.3518
     23  O3        15.3640   43.9620   26.0130 O.3   400  NAD400     -0.2703
     24  PN        16.7380   44.2160   25.2670 P.3   400  NAD400      0.2189
     25  O1N       17.3430   45.4490   25.7460 O.3   400  NAD400     -0.4371
     26  O2N       16.5380   44.1070   23.8170 O.2   400  NAD400     -0.5170
     27  O5D       17.6180   42.9080   25.8360 O.3   400  NAD400     -0.3112
     28  C5D       17.2310   41.5780   25.5030 C.3   400  NAD400      0.1813
     29  C4D       17.9620   40.4870   26.3380 C.3   400  NAD400      0.1799
     30  O4D       19.3040   40.2920   25.8070 O.3   400  NAD400     -0.3327
     31  C3D       18.1840   40.8220   27.8190 C.3   400  NAD400      0.2158
     32  O3D       18.0010   39.6790   28.6390 O.3   400  NAD400     -0.2175
     33  C2D       19.5930   41.3950   27.8230 C.3   400  NAD400      0.2309
     34  O2D       20.1540   41.3950   29.1610 O.3   400  NAD400     -0.2158
     35  C1D       20.2730   40.4820   26.8630 C.3   400  NAD400      0.2263
     36  N1N       21.4540   40.9550   26.1720 N.pl3 400  NAD400     -0.2787
     37  C2N       22.3180   39.8900   25.8630 C.3   400  NAD400      0.1244
     38  C3N       23.5050   40.1380   25.2040 C.2   400  NAD400      0.0544
     39  C7N       24.5440   39.0270   24.8050 C.2   400  NAD400      0.2818
     40  O7N       25.5770   39.3280   24.2310 O.2   400  NAD400     -0.2670
     41  N7N       24.1590   37.7710   25.1030 N.am  400  NAD400     -0.0839
     42  C4N       23.9030   41.4970   24.8070 C.2   400  NAD400      0.0033
     43  C5N       22.9610   42.5400   25.1590 C.2   400  NAD400      0.0157
     44  C6N       21.7390   42.3530   25.8290 C.2   400  NAD400      0.0633
@<TRIPOS>BOND
     1    26    24    2
     2    20    21    1
     3    20    19    1
     4    21    22    2
     5     9     8    1
     6    40    39    2
     7    39    41   am
     8    39    38    1
     9    42    43    1
    10    42    38    2
    11    19    17    2
    12     6     8    1
    13     6     7    1
    14     6     5    1
    15    43    44    2
    16    38    37    1
    17    24    25    1
    18    24    27    1
    19    24    23    1
    20     4     5    1
    21     4     1    1
    22     8    10    1
    23     2     1    2
    24    28    27    1
    25    28    29    1
    26    12     7    1
    27    12    10    1
    28    12    13    1
    29    22    13    1
    30    22    16    1
    31    30    29    1
    32    30    35    1
    33    44    36    1
    34    37    36    1
    35    23     1    1
    36    11    10    1
    37     1     3    1
    38    13    14    1
    39    36    35    1
    40    17    16    1
    41    17    18    1
    42    29    31    1
    43    16    15    2
    44    35    33    1
    45    14    15    1
    46    31    33    1
    47    31    32    1
    48    33    34    1
