@<TRIPOS>MOLECULE
2fo0_P16_A_1.pdb
 29 32 0 0 0
SMALL
GASTEIGER

@<TRIPOS>ATOM
      1  O1         3.1060    8.6960   11.1860 O.3     2  P162       -0.2152
      2  C2         4.3140    8.9470   11.8650 C.3     2  P162        0.2086
      3  C3         4.1400    9.4350   13.3130 C.ar    2  P162        0.0119
      4  C4         4.5570    8.6000   14.4160 C.ar    2  P162       -0.0017
      5  C5         4.4010    9.0490   15.7570 C.ar    2  P162        0.0011
      6  C6         3.8310   10.3250   16.0440 C.ar    2  P162        0.0173
      7  C7         3.4050   11.1790   14.9610 C.ar    2  P162        0.0823
      8  N9         2.8010   12.4650   15.1300 N.pl3   2  P162       -0.1357
      9  C10        2.0890   12.9590   16.2240 C.1     2  P162        0.1711
     10  N11        1.5650   14.2520   16.0740 N.2     2  P162       -0.1682
     11  C12        0.8340   14.7480   17.1000 C.2     2  P162        0.1158
     12  C13        0.5840   14.0100   18.3100 C.ar    2  P162        0.0676
     13  C16       -0.2160   14.5010   19.4260 C.ar    2  P162        0.0105
     14  C17       -0.4040   13.7320   20.5600 C.ar    2  P162        0.0580
     15  C18        0.2160   12.3630   20.6620 C.ar    2  P162        0.2627
     16  O21        0.1140   11.6140   21.6250 O.2     2  P162       -0.2669
     17  N19        1.0110   11.9030   19.5240 N.ar    2  P162       -0.2681
     18  C14        1.1830   12.6870   18.3720 C.ar    2  P162        0.2117
     19  N15        1.9140   12.2010   17.3260 N.2     2  P162       -0.3179
     20  C20        1.6390   10.5590   19.5640 C.3     2  P162        0.1361
     21  C22       -1.2370   14.1900   21.7080 C.ar    2  P162        0.0257
     22  C27       -0.6620   14.7620   22.9050 C.ar    2  P162        0.0586
     23 CL28        1.0620   14.9590   23.0840 Cl      2  P162       -0.0822
     24  C26       -1.5020   15.1870   23.9890 C.ar    2  P162        0.0114
     25  C25       -2.9190   15.0500   23.8980 C.ar    2  P162        0.0017
     26  C24       -3.5140   14.4950   22.7380 C.ar    2  P162        0.0114
     27  C23       -2.6830   14.0730   21.6630 C.ar    2  P162        0.0586
     28 CL29       -3.5060   13.3960   20.2580 Cl      2  P162       -0.0822
     29  C8         3.5670   10.7150   13.5920 C.ar    2  P162        0.0156
@<TRIPOS>BOND
     1     1     2    1
     2     2     3    1
     3     3    29   ar
     4     3     4   ar
     5    29     7   ar
     6     4     5   ar
     7     7     8    1
     8     7     6   ar
     9     8     9    1
    10     5     6   ar
    11    10     9    2
    12    10    11    1
    13     9    19    2
    14    11    12    2
    15    19    18    2
    16    12    18   ar
    17    12    13   ar
    18    18    17   ar
    19    13    14   ar
    20    17    20    1
    21    17    15   ar
    22    28    27    1
    23    14    15   ar
    24    14    21    1
    25    15    16    2
    26    27    21   ar
    27    27    26   ar
    28    21    22   ar
    29    26    25   ar
    30    22    23    1
    31    22    24   ar
    32    25    24   ar
