@<TRIPOS>MOLECULE
2fo4_FUC_A_1.pdb
 10 10 0 0 0
SMALL
GASTEIGER

@<TRIPOS>ATOM
      1  C1        61.1650   55.3700   18.1590 C.3   953  FUC953      0.1776
      2  C2        59.8020   54.7010   17.9010 C.3   953  FUC953      0.2141
      3  C3        58.6910   55.4040   18.6790 C.3   953  FUC953      0.2172
      4  C4        58.6980   56.8910   18.3410 C.3   953  FUC953      0.2116
      5  C5        60.0660   57.4630   18.7100 C.3   953  FUC953      0.1483
      6  C6        60.1930   58.9510   18.4260 C.3   953  FUC953      0.0349
      7  O2        59.8520   53.3350   18.2850 O.3   953  FUC953     -0.2176
      8  O3        57.4400   54.8330   18.3370 O.3   953  FUC953     -0.2175
      9  O4        58.4660   57.0580   16.9470 O.3   953  FUC953     -0.2177
     10  O5        61.0960   56.7860   17.9530 O.3   953  FUC953     -0.3508
@<TRIPOS>BOND
     1     9     4    1
     2     2     1    1
     3     2     7    1
     4     2     3    1
     5    10     1    1
     6    10     5    1
     7     8     3    1
     8     4     3    1
     9     4     5    1
    10     6     5    1
