@<TRIPOS>MOLECULE
2fo5_III_E_1.pdb
 30 29 0 0 0
SMALL
GASTEIGER

@<TRIPOS>ATOM
      1  C         -9.4200  -12.3780   -9.4670 C.2   299  ACE299      0.2423
      2  O         -8.7440  -12.3650   -8.4490 O.2   299  ACE299     -0.2733
      3  CH3      -10.9380  -12.0510   -9.3450 C.3   299  ACE299      0.0964
      4  N         -8.8500  -12.6760  -10.6350 N.am  300  LEU300     -0.1978
      5  CA        -9.4360  -12.8320  -11.9780 C.3   300  LEU300      0.1727
      6  C        -10.5670  -13.8920  -12.0270 C.2   300  LEU300      0.2616
      7  O        -10.3580  -14.9850  -11.5420 O.2   300  LEU300     -0.2715
      8  CB        -8.2770  -13.2350  -12.9400 C.3   300  LEU300      0.0311
      9  CG        -7.0240  -12.3630  -12.6990 C.3   300  LEU300      0.0022
     10  CD1       -5.9220  -12.7760  -13.6870 C.3   300  LEU300      0.0001
     11  CD2       -7.3600  -10.8800  -12.8960 C.3   300  LEU300      0.0001
     12  N        -11.2420  -13.5350  -13.1180 N.am  301  LEU301     -0.1963
     13  CA       -12.2090  -14.5840  -13.3900 C.3   301  LEU301      0.1728
     14  C        -11.8300  -15.2520  -14.7090 C.2   301  LEU301      0.2616
     15  O        -11.1830  -14.6250  -15.5570 O.2   301  LEU301     -0.2715
     16  CB       -13.6080  -13.9760  -13.4790 C.3   301  LEU301      0.0311
     17  CG       -14.0780  -13.2120  -12.2370 C.3   301  LEU301      0.0022
     18  CD1      -15.3020  -12.3880  -12.5870 C.3   301  LEU301      0.0001
     19  CD2      -14.3770  -14.1900  -11.1060 C.3   301  LEU301      0.0001
     20  N        -12.5560  -16.2900  -15.1180 N.am  302  AR7302     -0.1977
     21  CA       -12.3590  -16.9850  -16.3880 C.3   302  AR7302      0.1597
     22  C        -13.6630  -17.1920  -17.1610 C.2   302  AR7302      0.2287
     23  O        -13.6460  -17.6630  -18.2960 O.2   302  AR7302     -0.2864
     24  CB       -11.6850  -18.3380  -16.1480 C.3   302  AR7302      0.0334
     25  CG       -10.2320  -18.2420  -15.6890 C.3   302  AR7302      0.0492
     26  CD        -9.6750  -19.6180  -15.3190 C.3   302  AR7302      0.2205
     27  NE        -9.7840  -20.5530  -16.4360 N.pl3 302  AR7302     -0.0865
     28  CZ        -8.9440  -20.5930  -17.4650 C.cat 302  AR7302      0.5346
     29  NH1       -9.1320  -21.4690  -18.4450 N.pl3 302  AR7302      0.1354
     30  NH2       -7.9010  -19.7740  -17.5020 N.pl3 302  AR7302      0.1354
@<TRIPOS>BOND
     1    29    28    1
     2    23    22    2
     3    30    28    1
     4    28    27    2
     5    22    21    1
     6    27    26    1
     7    21    24    1
     8    21    20    1
     9    24    25    1
    10    25    26    1
    11    15    14    2
    12    20    14   am
    13    14    13    1
    14    10     9    1
    15    16    13    1
    16    16    17    1
    17    13    12    1
    18    12     6   am
    19     8     9    1
    20     8     5    1
    21    11     9    1
    22    18    17    1
    23    17    19    1
    24     6     5    1
    25     6     7    2
    26     5     4    1
    27     4     1   am
    28     1     3    1
    29     1     2    2
