@<TRIPOS>MOLECULE
2foi_NAD_A_1.pdb
 44 48 0 0 0
SMALL
GASTEIGER

@<TRIPOS>ATOM
      1  PA        50.8390   87.9860   40.5340 P.3   450  NAD450      0.2189
      2  O1A       52.3590   87.9150   40.4350 O.2   450  NAD450     -0.5170
      3  O2A       50.1060   88.1070   41.8440 O.3   450  NAD450     -0.4371
      4  O5B       50.1540   86.6740   39.8680 O.3   450  NAD450     -0.3112
      5  C5B       50.6180   86.0590   38.6700 C.3   450  NAD450      0.1813
      6  C4B       50.9340   84.6350   39.0710 C.3   450  NAD450      0.1821
      7  O4B       51.0670   83.7730   37.9380 O.3   450  NAD450     -0.3135
      8  C3B       52.2470   84.5500   39.8500 C.3   450  NAD450      0.2184
      9  O3B       51.9750   84.1500   41.2010 O.3   450  NAD450     -0.2174
     10  C2B       53.0250   83.4620   39.1360 C.3   450  NAD450      0.2570
     11  O2B       53.6930   82.6110   40.0740 O.3   450  NAD450     -0.2130
     12  C1B       51.9220   82.7240   38.3910 C.3   450  NAD450      0.3186
     13  N9A       52.4210   81.9370   37.2460 N.pl3 450  NAD450     -0.1439
     14  C8A       53.2500   82.3890   36.2770 C.3   450  NAD450      0.3377
     15  N7A       53.5000   81.4050   35.3700 N.2   450  NAD450     -0.2095
     16  C5A       52.8210   80.2980   35.7560 C.2   450  NAD450      0.2526
     17  C6A       52.6800   79.0270   35.2520 C.2   450  NAD450      0.4393
     18  N6A       53.3340   78.6840   34.1080 N.pl3 450  NAD450      0.2180
     19  N1A       51.8960   78.1470   35.9140 N.2   450  NAD450      0.0021
     20  C2A       51.2520   78.4840   37.0470 C.3   450  NAD450      0.5254
     21  N3A       51.3370   79.7080   37.5980 N.2   450  NAD450     -0.0055
     22  C4A       52.1060   80.6500   36.9940 C.2   450  NAD450      0.3518
     23  O3        50.4080   89.2740   39.6370 O.3   450  NAD450     -0.2703
     24  PN        48.9010   89.7740   39.2780 P.3   450  NAD450      0.2189
     25  O1N       48.0170   89.7130   40.5110 O.3   450  NAD450     -0.4371
     26  O2N       49.1840   91.0710   38.5630 O.2   450  NAD450     -0.5170
     27  O5D       48.4480   88.6630   38.1990 O.3   450  NAD450     -0.3112
     28  C5D       47.2260   87.9360   38.2680 C.3   450  NAD450      0.1813
     29  C4D       46.4100   88.2230   36.9910 C.3   450  NAD450      0.1799
     30  O4D       45.9740   89.5890   36.9880 O.3   450  NAD450     -0.3327
     31  C3D       47.1910   88.0500   35.6880 C.3   450  NAD450      0.2158
     32  O3D       46.3530   87.4250   34.7060 O.3   450  NAD450     -0.2175
     33  C2D       47.4630   89.4750   35.2300 C.3   450  NAD450      0.2309
     34  O2D       47.6590   89.5290   33.8120 O.3   450  NAD450     -0.2158
     35  C1D       46.1730   90.1380   35.6770 C.3   450  NAD450      0.2263
     36  N1N       46.1560   91.6120   35.6510 N.pl3 450  NAD450     -0.2787
     37  C2N       46.9870   92.3160   36.4680 C.3   450  NAD450      0.1244
     38  C3N       47.0220   93.7190   36.4870 C.2   450  NAD450      0.0544
     39  C7N       47.9670   94.4810   37.4110 C.2   450  NAD450      0.2818
     40  O7N       48.0280   95.8110   37.3520 O.2   450  NAD450     -0.2670
     41  N7N       48.7140   93.9060   38.2630 N.am  450  NAD450     -0.0839
     42  C4N       46.1470   94.3920   35.6230 C.2   450  NAD450      0.0033
     43  C5N       45.2770   93.6450   34.8030 C.2   450  NAD450      0.0157
     44  C6N       45.2860   92.2400   34.8250 C.2   450  NAD450      0.0633
@<TRIPOS>BOND
     1    34    33    1
     2    18    17    1
     3    32    31    1
     4    43    44    2
     5    43    42    1
     6    44    36    1
     7    33    35    1
     8    33    31    1
     9    17    16    1
    10    17    19    2
    11    15    16    2
    12    15    14    1
    13    42    38    2
    14    36    35    1
    15    36    37    1
    16    35    30    1
    17    31    29    1
    18    16    22    1
    19    19    20    1
    20    14    13    1
    21    37    38    1
    22    38    39    1
    23    30    29    1
    24    29    28    1
    25    22    13    1
    26    22    21    2
    27    20    21    1
    28    13    12    1
    29    40    39    2
    30    39    41   am
    31     7    12    1
    32     7     6    1
    33    27    28    1
    34    27    24    1
    35    12    10    1
    36    26    24    2
    37     5     6    1
    38     5     4    1
    39     6     8    1
    40    10     8    1
    41    10    11    1
    42    24    23    1
    43    24    25    1
    44    23     1    1
    45     8     9    1
    46     4     1    1
    47     2     1    2
    48     1     3    1
