@<TRIPOS>MOLECULE
2foi_JPA_A_1.pdb
 23 25 0 0 0
SMALL
GASTEIGER

@<TRIPOS>ATOM
      1 CLL2       54.8800   88.4400   32.0520 Cl    500  JPA500     -0.0822
      2  C4        53.4340   89.1730   32.7990 C.ar  500  JPA500      0.0587
      3  C3        52.7400   88.4690   33.8470 C.ar  500  JPA500      0.0259
      4  C5        53.0700   90.5000   32.4690 C.ar  500  JPA500      0.0146
      5  C6        52.0310   91.1380   33.1890 C.ar  500  JPA500      0.0392
      6  C1        51.3270   90.4410   34.2420 C.ar  500  JPA500      0.1559
      7  C2        51.6850   89.1130   34.5610 C.ar  500  JPA500      0.0929
      8 CLL1       50.8010   88.3140   35.8960 Cl    500  JPA500     -0.0790
      9  O1        50.2700   91.0140   34.9850 O.3   500  JPA500     -0.4494
     10  C9        50.0000   92.3260   34.7580 C.ar  500  JPA500      0.1840
     11  C8        49.2280   92.6710   33.6160 C.ar  500  JPA500      0.2299
     12  O2        48.7320   91.7060   32.7830 O.3   500  JPA500     -0.2833
     13  C7        48.9840   94.0260   33.3660 C.ar  500  JPA500      0.0452
     14  C12       49.4960   95.0340   34.2540 C.ar  500  JPA500      0.0031
     15  C11       50.3030   94.6830   35.3800 C.ar  500  JPA500      0.0033
     16  C10       50.5520   93.3150   35.6300 C.ar  500  JPA500      0.0408
     17  C17       49.3040   96.4080   33.9500 C.ar  500  JPA500     -0.0039
     18  C18       50.1970   97.0400   33.1470 C.ar  500  JPA500     -0.0218
     19  C23       51.3990   96.2990   32.5150 C.3   500  JPA500      0.0310
     20  C19       50.0390   98.4030   32.8470 C.ar  500  JPA500     -0.0043
     21  C20       48.9530   99.0710   33.4250 C.ar  500  JPA500     -0.0003
     22  C21       48.1190   98.2930   34.2440 C.ar  500  JPA500     -0.0000
     23  C22       48.3960   96.9770   34.4410 C.ar  500  JPA500     -0.0003
@<TRIPOS>BOND
     1     1     2    1
     2     4     2   ar
     3     4     5   ar
     4    19    18    1
     5    12    11    1
     6     2     3   ar
     7    20    18   ar
     8    20    21   ar
     9    18    17   ar
    10     5     6   ar
    11    13    11   ar
    12    13    14   ar
    13    21    22   ar
    14    11    10   ar
    15     3     7   ar
    16    17    14    1
    17    17    23   ar
    18     6     7   ar
    19     6     9    1
    20    22    23   ar
    21    14    15   ar
    22     7     8    1
    23    10     9    1
    24    10    16   ar
    25    15    16   ar
