@<TRIPOS>MOLECULE
2foj_III_B_1.pdb
 48 48 0 0 0
SMALL
GASTEIGER

@<TRIPOS>ATOM
      1  N         24.4570  -17.4740   -7.5150 N.3   361  GLY361     -0.1210
      2  CA        25.2320  -16.6420   -6.5590 C.3   361  GLY361      0.1956
      3  C         25.9340  -17.4880   -5.5170 C.2   361  GLY361      0.2612
      4  O         25.3310  -17.8870   -4.5170 O.2   361  GLY361     -0.2717
      5  N         27.2110  -17.7680   -5.7530 N.am  362  ALA362     -0.1965
      6  CA        28.0070  -18.5700   -4.8330 C.3   362  ALA362      0.1728
      7  C         29.4630  -18.1190   -4.8690 C.2   362  ALA362      0.2616
      8  O         30.2860  -18.6900   -5.5880 O.2   362  ALA362     -0.2715
      9  CB        27.9030  -20.0470   -5.2000 C.3   362  ALA362      0.0334
     10  N         29.7620  -17.0810   -4.0920 N.am  363  ARG363     -0.1963
     11  CA        31.1050  -16.5180   -3.9940 C.3   363  ARG363      0.1729
     12  C         31.6090  -15.8560   -5.2810 C.2   363  ARG363      0.2616
     13  O         32.4240  -16.4250   -6.0040 O.2   363  ARG363     -0.2715
     14  CB        32.1000  -17.5980   -3.5460 C.3   363  ARG363      0.0348
     15  CG        33.5340  -17.0940   -3.4390 C.3   363  ARG363      0.0492
     16  CD        34.4840  -18.1270   -2.8480 C.3   363  ARG363      0.2205
     17  NE        35.8670  -17.6500   -2.8830 N.pl3 363  ARG363     -0.0865
     18  CZ        36.8960  -18.2730   -2.3130 C.cat 363  ARG363      0.5346
     19  NH1       36.7070  -19.4090   -1.6530 N.pl3 363  ARG363      0.1354
     20  NH2       38.1170  -17.7610   -2.4040 N.pl3 363  ARG363      0.1354
     21  N         31.1240  -14.6510   -5.5600 N.am  364  ALA364     -0.1963
     22  CA        31.5530  -13.9190   -6.7480 C.3   364  ALA364      0.1728
     23  C         32.9980  -13.4690   -6.5240 C.2   364  ALA364      0.2616
     24  O         33.4390  -13.3380   -5.3830 O.2   364  ALA364     -0.2715
     25  CB        30.6480  -12.7210   -6.9770 C.3   364  ALA364      0.0334
     26  N         33.7340  -13.2400   -7.6090 N.am  365  HIS365     -0.1959
     27  CA        35.1320  -12.8280   -7.5090 C.3   365  HIS365      0.1784
     28  C         35.6460  -12.2350   -8.8180 C.2   365  HIS365      0.2621
     29  O         34.9140  -12.1410   -9.8000 O.2   365  HIS365     -0.2715
     30  CB        36.0000  -14.0300   -7.1380 C.3   365  HIS365      0.0745
     31  CG        35.8840  -15.1670   -8.1050 C.2   365  HIS365      0.0653
     32  ND1       34.7600  -15.9610   -8.1870 N.2   365  HIS365     -0.2310
     33  CD2       36.7240  -15.6020   -9.0730 C.3   365  HIS365      0.1683
     34  CE1       34.9120  -16.8360   -9.1650 C.2   365  HIS365      0.1939
     35  NE2       36.0950  -16.6390   -9.7190 N.2   365  HIS365     -0.2440
     36  N         36.9170  -11.8440   -8.8200 N.am  366  SER366     -0.1936
     37  CA        37.5540  -11.2670   -9.9980 C.3   366  SER366      0.2055
     38  C         37.9790  -12.3650  -10.9630 C.2   366  SER366      0.2644
     39  O         38.2440  -13.4950  -10.5490 O.2   366  SER366     -0.2714
     40  CB        38.7920  -10.4610   -9.5880 C.3   366  SER366      0.2130
     41  OG        38.4610   -9.4710   -8.6280 O.3   366  SER366     -0.2179
     42  N         38.0470  -12.0260  -12.2470 N.am  367  SER367     -0.1913
     43  CA        38.4560  -12.9820  -13.2720 C.3   367  SER367      0.2304
     44  C         39.9440  -13.2980  -13.1480 C.2   367  SER367      0.3869
     45  O         40.3420  -14.4200  -13.5330 O.co2 367  SER367     -0.2437
     46  CB        38.1650  -12.4340  -14.6740 C.3   367  SER367      0.2152
     47  OG        39.0110  -11.3440  -14.9930 O.3   367  SER367     -0.2179
     48  OXT       40.6940  -12.4110  -12.6830 O.co2 367  SER367     -0.2437
@<TRIPOS>BOND
     1    47    46    1
     2    46    43    1
     3    45    44   ar
     4    43    44    1
     5    43    42    1
     6    44    48   ar
     7    42    38   am
     8    38    39    2
     9    38    37    1
    10    37    40    1
    11    37    36    1
    12    29    28    2
    13    35    34    2
    14    35    33    1
    15    40    41    1
    16    34    32    1
    17    33    31    1
    18    36    28   am
    19    28    27    1
    20    32    31    2
    21    31    30    1
    22    26    27    1
    23    26    23   am
    24     1     2    1
    25    27    30    1
    26    25    22    1
    27    22    23    1
    28    22    21    1
    29     2     3    1
    30    23    24    2
    31    13    12    2
    32     5     3   am
    33     5     6    1
    34     8     7    2
    35    21    12   am
    36     3     4    2
    37    12    11    1
    38     9     6    1
    39     7     6    1
    40     7    10   am
    41    10    11    1
    42    11    14    1
    43    14    15    1
    44    15    16    1
    45    17    16    1
    46    17    18    2
    47    20    18    1
    48    18    19    1
