@<TRIPOS>MOLECULE
2fol_GDP_A_1.pdb
 28 30 0 0 0
SMALL
GASTEIGER

@<TRIPOS>ATOM
      1  PB       -24.2640    5.8860    8.5380 P.3   201  GDP201      0.5373
      2  O1B      -25.0390    4.6040    8.2960 O.3   201  GDP201     -0.1143
      3  O2B      -23.2570    6.1500    7.4190 O.2   201  GDP201     -0.2221
      4  O3B      -25.2730    7.0180    8.5930 O.3   201  GDP201     -0.1143
      5  O3A      -23.4500    5.6370    9.9050 O.3   201  GDP201     -0.2261
      6  PA       -24.1200    5.7310   11.3380 P.3   201  GDP201      0.2231
      7  O1A      -25.4130    4.9650   11.4120 O.2   201  GDP201     -0.5169
      8  O2A      -24.3630    7.1700   11.6860 O.3   201  GDP201     -0.4370
      9  O5'      -22.9830    5.2090   12.3530 O.3   201  GDP201     -0.3111
     10  C5'      -22.2820    4.0050   12.1200 C.3   201  GDP201      0.1813
     11  C4'      -21.8540    3.3470   13.4350 C.3   201  GDP201      0.1799
     12  O4'      -20.5470    3.8270   13.7730 O.3   201  GDP201     -0.3326
     13  C3'      -22.8000    3.5900   14.6480 C.3   201  GDP201      0.2158
     14  O3'      -23.4500    2.3880   15.1410 O.3   201  GDP201     -0.2175
     15  C2'      -21.9320    4.2390   15.7260 C.3   201  GDP201      0.2310
     16  O2'      -21.9200    3.5170   16.9790 O.3   201  GDP201     -0.2158
     17  C1'      -20.5340    4.3340   15.1230 C.3   201  GDP201      0.2293
     18  N9       -20.0870    5.7490   15.0720 N.pl3 201  GDP201     -0.2354
     19  C8       -20.6700    6.7620   14.3920 C.3   201  GDP201      0.2246
     20  N7       -19.9670    7.9040   14.5630 N.2   201  GDP201     -0.2322
     21  C5       -18.9300    7.6010   15.3520 C.2   201  GDP201      0.2182
     22  C6       -17.8080    8.3250   15.9180 C.1   201  GDP201      0.2372
     23  O6       -17.7010    9.5230   15.6600 O.2   201  GDP201     -0.2069
     24  N1       -16.9240    7.6800   16.6920 N.2   201  GDP201     -0.2485
     25  C2       -17.0560    6.3670   16.9560 C.1   201  GDP201      0.2531
     26  N2       -16.1670    5.7240   17.7300 N.pl3 201  GDP201     -0.0226
     27  N3       -18.0700    5.6480   16.4590 N.2   201  GDP201     -0.3074
     28  C4       -19.0090    6.2040   15.6730 C.2   201  GDP201      0.2300
@<TRIPOS>BOND
     1     3     1    2
     2     2     1    1
     3     1     4    1
     4     1     5    1
     5     5     6    1
     6     6     7    2
     7     6     8    1
     8     6     9    1
     9    10     9    1
    10    10    11    1
    11    11    12    1
    12    11    13    1
    13    12    17    1
    14    19    20    1
    15    19    18    1
    16    20    21    2
    17    13    14    1
    18    13    15    1
    19    18    17    1
    20    18    28    1
    21    17    15    1
    22    21    28    1
    23    21    22    1
    24    23    22    2
    25    28    27    2
    26    15    16    1
    27    22    24    2
    28    27    25    2
    29    24    25    2
    30    25    26    1
