@<TRIPOS>MOLECULE
2foo_III_B_1.pdb
 42 42 0 0 0
SMALL
GASTEIGER

@<TRIPOS>ATOM
      1  N         32.1680  -18.8030   -4.7110 N.3   358  GLU358     -0.1231
      2  CA        31.6540  -17.4050   -4.5990 C.3   358  GLU358      0.1684
      3  C         32.2190  -16.5410   -5.7250 C.2   358  GLU358      0.2434
      4  O         33.2270  -16.8890   -6.3430 O.2   358  GLU358     -0.2733
      5  CB        32.0490  -16.8010   -3.2460 C.3   358  GLU358      0.0402
      6  CG        31.6610  -17.6410   -2.0320 C.3   358  GLU358      0.1161
      7  CD        32.4360  -18.9460   -1.9500 C.2   358  GLU358      0.3649
      8  OE1       33.6870  -18.8950   -1.9520 O.co2 358  GLU358     -0.2457
      9  OE2       31.7960  -20.0180   -1.8830 O.co2 358  GLU358     -0.2457
     10  N         31.5750  -15.3980   -6.0020 N.am  359  PRO359     -0.2718
     11  CA        32.0250  -14.4880   -7.0610 C.3   359  PRO359      0.1535
     12  C         33.4190  -13.9250   -6.8040 C.2   359  PRO359      0.2599
     13  O         33.9230  -13.9800   -5.6850 O.2   359  PRO359     -0.2715
     14  CB        30.9510  -13.4030   -7.0570 C.3   359  PRO359      0.0310
     15  CG        30.5370  -13.3550   -5.6210 C.3   359  PRO359      0.0237
     16  CD        30.4260  -14.8250   -5.2790 C.3   359  PRO359      0.0939
     17  N         34.0340  -13.3860   -7.8510 N.am  360  GLY360     -0.1941
     18  CA        35.3610  -12.8180   -7.7240 C.3   360  GLY360      0.2014
     19  C         35.8150  -12.2370   -9.0460 C.2   360  GLY360      0.2639
     20  O         35.0390  -12.1950  -10.0100 O.2   360  GLY360     -0.2714
     21  N         37.0630  -11.7780   -9.0930 N.am  361  GLY361     -0.1939
     22  CA        37.6050  -11.2150  -10.3180 C.3   361  GLY361      0.2014
     23  C         38.0140  -12.3160  -11.2800 C.2   361  GLY361      0.2640
     24  O         38.1980  -13.4620  -10.8700 O.2   361  GLY361     -0.2714
     25  N         38.1650  -11.9730  -12.5550 N.am  362  SER362     -0.1935
     26  CA        38.5390  -12.9550  -13.5690 C.3   362  SER362      0.2055
     27  C         39.9810  -13.4640  -13.5100 C.2   362  SER362      0.2644
     28  O         40.2410  -14.6100  -13.8740 O.2   362  SER362     -0.2714
     29  CB        38.2610  -12.4000  -14.9740 C.3   362  SER362      0.2130
     30  OG        39.0580  -11.2630  -15.2500 O.3   362  SER362     -0.2179
     31  N         40.9160  -12.6310  -13.0590 N.am  363  ARG363     -0.1941
     32  CA        42.3220  -13.0430  -12.9910 C.3   363  ARG363      0.1979
     33  C         42.6570  -13.8280  -11.7240 C.2   363  ARG363      0.3842
     34  O         43.3890  -13.2830  -10.8700 O.co2 363  ARG363     -0.2437
     35  CB        43.2460  -11.8240  -13.0870 C.3   363  ARG363      0.0370
     36  CG        43.0330  -10.9720  -14.3250 C.3   363  ARG363      0.0493
     37  CD        44.0070   -9.8070  -14.3620 C.3   363  ARG363      0.2205
     38  NE        43.6030   -8.7870  -15.3270 N.pl3 363  ARG363     -0.0865
     39  CZ        44.3310   -7.7150  -15.6330 C.cat 363  ARG363      0.5346
     40  NH1       45.5090   -7.5220  -15.0510 N.pl3 363  ARG363      0.1354
     41  NH2       43.8830   -6.8330  -16.5200 N.pl3 363  ARG363      0.1354
     42  OXT       42.1880  -14.9800  -11.5980 O.co2 363  ARG363     -0.2437
@<TRIPOS>BOND
     1    41    39    1
     2    39    38    2
     3    39    40    1
     4    38    37    1
     5    30    29    1
     6    29    26    1
     7    37    36    1
     8    36    35    1
     9    28    27    2
    10    26    27    1
    11    26    25    1
    12    27    31   am
    13    35    32    1
    14    31    32    1
    15    32    33    1
    16    25    23   am
    17    33    42   ar
    18    33    34   ar
    19    23    24    2
    20    23    22    1
    21    22    21    1
    22    20    19    2
    23    21    19   am
    24    19    18    1
    25    17    18    1
    26    17    12   am
    27    11    14    1
    28    11    12    1
    29    11    10    1
    30    14    15    1
    31    12    13    2
    32     4     3    2
    33    10     3   am
    34    10    16    1
    35     3     2    1
    36    15    16    1
    37     1     2    1
    38     2     5    1
    39     5     6    1
    40     6     7    1
    41     8     7   ar
    42     7     9   ar
