@<TRIPOS>MOLECULE
2fop_III_B_1.pdb
 44 44 0 0 0
SMALL
GASTEIGER

@<TRIPOS>ATOM
      1  N         28.5190  -21.2610   -6.1030 N.3   142  GLU142     -0.1231
      2  CA        29.6920  -20.5890   -6.7340 C.3   142  GLU142      0.1699
      3  C         30.0080  -19.2400   -6.0950 C.2   142  GLU142      0.2592
      4  O         29.1190  -18.4170   -5.8830 O.2   142  GLU142     -0.2718
      5  CB        29.4430  -20.3840   -8.2300 C.3   142  GLU142      0.0402
      6  CG        29.4660  -21.6540   -9.0590 C.3   142  GLU142      0.1161
      7  CD        30.7550  -22.4390   -8.8920 C.2   142  GLU142      0.3649
      8  OE1       31.8140  -21.8160   -8.6560 O.co2 142  GLU142     -0.2457
      9  OE2       30.7140  -23.6820   -9.0110 O.co2 142  GLU142     -0.2457
     10  N         31.2830  -19.0200   -5.7940 N.am  143  LYS143     -0.1966
     11  CA        31.7320  -17.7700   -5.1890 C.3   143  LYS143      0.1713
     12  C         32.1730  -16.8140   -6.2960 C.2   143  LYS143      0.2458
     13  O         32.9190  -17.2020   -7.1960 O.2   143  LYS143     -0.2730
     14  CB        32.9070  -18.0360   -4.2440 C.3   143  LYS143      0.0311
     15  CG        32.5420  -18.7990   -2.9750 C.3   143  LYS143      0.0038
     16  CD        32.2150  -17.8530   -1.8230 C.3   143  LYS143      0.0206
     17  CE        33.4470  -17.0390   -1.4230 C.3   143  LYS143      0.1093
     18  NZ        33.1720  -16.0650   -0.3270 N.3   143  LYS143     -0.1314
     19  N         31.7090  -15.5540   -6.2520 N.am  144  PRO144     -0.2716
     20  CA        32.0990  -14.5940   -7.2870 C.3   144  PRO144      0.1536
     21  C         33.5340  -14.1280   -7.0880 C.2   144  PRO144      0.2599
     22  O         34.0900  -14.2750   -6.0030 O.2   144  PRO144     -0.2715
     23  CB        31.0910  -13.4640   -7.1010 C.3   144  PRO144      0.0310
     24  CG        30.8920  -13.4600   -5.6320 C.3   144  PRO144      0.0237
     25  CD        30.7600  -14.9430   -5.3060 C.3   144  PRO144      0.0939
     26  N         34.1220  -13.5650   -8.1410 N.am  145  SER145     -0.1936
     27  CA        35.4900  -13.0670   -8.0950 C.3   145  SER145      0.2055
     28  C         35.7830  -12.3520   -9.4030 C.2   145  SER145      0.2644
     29  O         34.9330  -12.2990  -10.2980 O.2   145  SER145     -0.2714
     30  CB        36.4720  -14.2290   -7.9480 C.3   145  SER145      0.2130
     31  OG        36.5690  -14.9610   -9.1610 O.3   145  SER145     -0.2179
     32  N         36.9880  -11.8060   -9.5160 N.am  146  SER146     -0.1935
     33  CA        37.3930  -11.1350  -10.7420 C.3   146  SER146      0.2055
     34  C         37.9050  -12.2400  -11.6640 C.2   146  SER146      0.2644
     35  O         38.1770  -13.3540  -11.2080 O.2   146  SER146     -0.2714
     36  CB        38.5060  -10.1250  -10.4600 C.3   146  SER146      0.2130
     37  OG        39.6720  -10.7840  -10.0120 O.3   146  SER146     -0.2179
     38  N         38.0280  -11.9400  -12.9530 N.am  147  SER147     -0.1913
     39  CA        38.4960  -12.9230  -13.9250 C.3   147  SER147      0.2304
     40  C         39.9380  -13.3600  -13.6690 C.2   147  SER147      0.3869
     41  O         40.2080  -14.5740  -13.7870 O.co2 147  SER147     -0.2437
     42  CB        38.3680  -12.3650  -15.3470 C.3   147  SER147      0.2152
     43  OG        39.0890  -11.1570  -15.4950 O.3   147  SER147     -0.2179
     44  OXT       40.7830  -12.4900  -13.3680 O.co2 147  SER147     -0.2437
@<TRIPOS>BOND
     1    43    42    1
     2    42    39    1
     3    39    40    1
     4    39    38    1
     5    41    40   ar
     6    40    44   ar
     7    38    34   am
     8    34    35    2
     9    34    33    1
    10    33    36    1
    11    33    32    1
    12    36    37    1
    13    29    28    2
    14    32    28   am
    15    28    27    1
    16    31    30    1
    17     6     7    1
    18     6     5    1
    19     9     7   ar
    20     7     8   ar
    21     5     2    1
    22    26    27    1
    23    26    21   am
    24    27    30    1
    25    20    23    1
    26    20    21    1
    27    20    19    1
    28    13    12    2
    29    23    24    1
    30    21    22    2
    31     2     1    1
    32     2     3    1
    33    12    19   am
    34    12    11    1
    35    19    25    1
    36     3     4    2
    37     3    10   am
    38    10    11    1
    39    24    25    1
    40    11    14    1
    41    14    15    1
    42    15    16    1
    43    16    17    1
    44    17    18    1
