@<TRIPOS>MOLECULE
2foq_B15_A_1.pdb
 15 15 0 0 0
SMALL
GASTEIGER

@<TRIPOS>ATOM
      1  C1        -4.0890    4.5740   14.4550 C.ar  301  B15301     -0.0203
      2  C2        -3.2700    3.5050   14.8440 C.ar  301  B15301     -0.0028
      3  C3        -3.7910    2.4360   15.5740 C.ar  301  B15301      0.0197
      4  C4        -5.1490    2.4150   15.8990 C.ar  301  B15301      0.1250
      5  C5        -5.9450    3.4750   15.5000 C.ar  301  B15301      0.0197
      6  C6        -5.4160    4.5580   14.8130 C.ar  301  B15301     -0.0028
      7  C7        -3.5160    5.6930   13.5920 C.3   301  B15301      0.0498
      8  C8        -2.6230    6.5310   14.4900 C.3   301  B15301      0.1203
      9  C10       -1.3860    8.4560   13.8750 C.2   301  B15301      0.3201
     10  N1        -5.2960   -0.2740   16.2630 N.3   301  B15301      0.0392
     11  N9        -1.8570    7.2830   13.4650 N.am  301  B15301     -0.1974
     12  O1        -5.2800    1.2460   18.1630 O.2   301  B15301     -0.1503
     13  O2        -7.2510    1.2170   16.7310 O.2   301  B15301     -0.1503
     14  O10       -1.3770    8.7450   15.0980 O.2   301  B15301     -0.2633
     15  S         -5.8390    1.0750   16.8630 S.O2  301  B15301      0.0935
@<TRIPOS>BOND
     1    11     9   am
     2    11     8    1
     3     7     1    1
     4     7     8    1
     5     9    14    2
     6     1     6   ar
     7     1     2   ar
     8     6     5   ar
     9     2     3   ar
    10     5     4   ar
    11     3     4   ar
    12     4    15    1
    13    10    15    1
    14    13    15    2
    15    15    12    2
