@<TRIPOS>MOLECULE
2for_IPR_A_1.pdb
 14 13 0 0 0
SMALL
GASTEIGER

@<TRIPOS>ATOM
      1  P11      -17.9700   41.3880   -6.1420 P.3   305  IPR305      0.5373
      2  O14      -17.9300   40.6270   -7.4460 O.2   305  IPR305     -0.2221
      3  O12      -18.3260   42.8480   -6.3000 O.3   305  IPR305     -0.1143
      4  O13      -18.7300   40.6930   -5.0480 O.3   305  IPR305     -0.1143
      5  O10      -16.4520   41.3880   -5.5930 O.3   305  IPR305     -0.2261
      6  P7       -15.2190   41.9790   -6.4530 P.3   305  IPR305      0.2230
      7  O8       -13.9790   41.9380   -5.5880 O.3   305  IPR305     -0.4370
      8  O9       -15.1930   41.2800   -7.7930 O.2   305  IPR305     -0.5169
      9  O6       -15.6260   43.5220   -6.7070 O.3   305  IPR305     -0.3135
     10  C5       -15.4390   44.5400   -5.7240 C.3   305  IPR305      0.1535
     11  C4       -15.8770   45.8840   -6.2980 C.3   305  IPR305      0.0545
     12  C2       -16.9350   46.5320   -5.4310 C.2   305  IPR305     -0.0414
     13  C1       -16.5860   47.3750   -4.4760 C.2   305  IPR305     -0.0090
     14  C3       -18.3860   46.2280   -5.6550 C.3   305  IPR305      0.0264
@<TRIPOS>BOND
     1     8     6    2
     2     2     1    2
     3     9     6    1
     4     9    10    1
     5     6     5    1
     6     6     7    1
     7     3     1    1
     8    11    10    1
     9    11    12    1
    10     1     5    1
    11     1     4    1
    12    14    12    1
    13    12    13    2
