@<TRIPOS>MOLECULE
2fos_B17_A_1.pdb
 20 20 0 0 0
SMALL
GASTEIGER

@<TRIPOS>ATOM
      1  S         -5.9450    0.9640   16.9170 S.O2  301  B17301      0.0935
      2  N         -5.4070   -0.3390   16.2250 N.3   301  B17301      0.0392
      3  O1        -5.3750    1.0830   18.2620 O.2   301  B17301     -0.1503
      4  O2        -7.3760    1.0580   16.7680 O.2   301  B17301     -0.1503
      5  C1        -4.2540    4.5190   14.6300 C.ar  301  B17301      0.0551
      6  C2        -5.5780    4.4550   14.9170 C.ar  301  B17301      0.0059
      7  C3        -6.1190    3.3770   15.6140 C.ar  301  B17301      0.0202
      8  C4        -5.2860    2.3510   16.0180 C.ar  301  B17301      0.1251
      9  C5        -3.9360    2.4130   15.7300 C.ar  301  B17301      0.0202
     10  C6        -3.4240    3.4700   15.0440 C.ar  301  B17301      0.0059
     11  C7        -3.7570    5.7190   13.8750 C.2   301  B17301      0.2649
     12  O7        -4.4520    6.7090   13.7080 O.2   301  B17301     -0.2684
     13  N8        -2.4680    5.7550   13.5180 N.am  301  B17301     -0.1990
     14  C9        -1.8450    6.9670   12.9190 C.3   301  B17301      0.1474
     15  C10       -1.4660    7.9540   14.0610 C.3   301  B17301      0.1656
     16  O11       -0.8720    9.1560   13.6320 O.3   301  B17301     -0.3492
     17  C12       -0.7210   10.0730   14.7030 C.3   301  B17301      0.1742
     18  C13        0.6700   10.5790   14.9510 C.3   301  B17301      0.1742
     19  O14        1.3990   11.2540   13.9600 O.3   301  B17301     -0.3484
     20  C15        0.5660   11.5840   12.8430 C.3   301  B17301      0.1742
@<TRIPOS>BOND
     1    20    19    1
     2    14    13    1
     3    14    15    1
     4    13    11   am
     5    16    15    1
     6    16    17    1
     7    12    11    2
     8    11     5    1
     9    19    18    1
    10     5     6   ar
    11     5    10   ar
    12    17    18    1
    13     6     7   ar
    14    10     9   ar
    15     7     8   ar
    16     9     8   ar
    17     8     1    1
    18     2     1    1
    19     4     1    2
    20     1     3    2
