@<TRIPOS>MOLECULE
2fou_B22_A_1.pdb
 22 23 0 0 0
SMALL
GASTEIGER

@<TRIPOS>ATOM
      1  S         -5.9210    0.9840   17.0420 S.O2  301  B22301      0.0935
      2  O1        -5.3280    1.1450   18.3760 O.2   301  B22301     -0.1503
      3  O2        -7.3630    1.0860   16.9300 O.2   301  B22301     -0.1503
      4  N1        -5.4290   -0.3580   16.3720 N.3   301  B22301      0.0392
      5  C1        -4.3100    4.5400   14.6890 C.ar  301  B22301     -0.0203
      6  C2        -3.4910    3.4770   14.9530 C.ar  301  B22301     -0.0028
      7  C3        -3.9610    2.3500   15.6650 C.ar  301  B22301      0.0197
      8  C4        -5.2820    2.3400   16.0720 C.ar  301  B22301      0.1250
      9  C5        -6.1090    3.4170   15.7760 C.ar  301  B22301      0.0197
     10  C6        -5.6160    4.4900   15.0720 C.ar  301  B22301     -0.0028
     11  C7        -3.8500    5.7640   13.9310 C.3   301  B22301      0.0498
     12  C8        -2.5620    6.3970   14.4230 C.3   301  B22301      0.1201
     13  N9        -2.4060    7.6790   13.6980 N.am  301  B22301     -0.2013
     14  C10       -1.5700    8.5770   14.2750 C.2   301  B22301      0.2648
     15  O10       -1.1230    8.1960   15.4010 O.2   301  B22301     -0.2684
     16  C11       -1.4910   10.0560   14.1170 C.ar  301  B22301      0.0564
     17  C12       -2.3630   10.8340   13.3870 C.ar  301  B22301      0.0047
     18  C13       -2.1650   12.1940   13.3370 C.ar  301  B22301      0.0015
     19  C14       -1.0980   12.7910   13.9890 C.ar  301  B22301      0.0181
     20  C15       -0.2290   12.0060   14.7240 C.ar  301  B22301      0.0892
     21  C16       -0.4430   10.6420   14.8170 C.ar  301  B22301      0.0226
     22  N17        0.8370   12.5610   15.3950 N.pl3 301  B22301     -0.1281
@<TRIPOS>BOND
     1    18    17   ar
     2    18    19   ar
     3    17    16   ar
     4    13    14   am
     5    13    12    1
     6    11    12    1
     7    11     5    1
     8    19    20   ar
     9    16    14    1
    10    16    21   ar
    11    14    15    2
    12     5     6   ar
    13     5    10   ar
    14    20    21   ar
    15    20    22    1
    16     6     7   ar
    17    10     9   ar
    18     7     8   ar
    19     9     8   ar
    20     8     1    1
    21     4     1    1
    22     3     1    2
    23     1     2    2
