@<TRIPOS>MOLECULE
2fov_B30_A_1.pdb
 25 27 0 0 0
SMALL
GASTEIGER

@<TRIPOS>ATOM
      1  S         -5.9240    1.0070   16.8970 S.O2  301  B30301      0.0000
      2  O1        -5.3560    1.1510   18.2080 O.2   301  B30301      0.0000
      3  O2        -7.3580    1.1080   16.7330 O.2   301  B30301      0.0000
      4  N1        -5.4020   -0.3530   16.2130 N.3   301  B30301      0.0000
      5  C1        -4.1630    4.5280   14.5650 C.ar  301  B30301      0.0000
      6  C2        -3.3580    3.4720   14.9930 C.ar  301  B30301      0.0000
      7  C3        -3.9010    2.4130   15.6930 C.ar  301  B30301      0.0000
      8  C4        -5.2540    2.3560   15.9480 C.ar  301  B30301      0.0000
      9  C5        -6.0430    3.4210   15.5440 C.ar  301  B30301      0.0000
     10  C6        -5.5120    4.4820   14.8360 C.ar  301  B30301      0.0000
     11  C7        -3.6020    5.6860   13.8060 C.2   301  B30301      0.0000
     12  O7        -4.3320    6.6850   13.6490 O.2   301  B30301      0.0000
     13  N8        -2.3660    5.5760   13.3430 N.am  301  B30301      0.0000
     14  C9        -1.7640    6.4580   12.2910 C.3   301  B30301      0.0000
     15  C10       -0.8150    5.6500   11.3520 C.3   301  B30301      0.0000
     16  N11       -1.3150    5.2210   10.0830 N.4   301  B30301      0.0000
     17  C12       -2.6970    5.3020    9.6580 C.3   301  B30301      0.0000
     18  C13       -3.6350    4.4450   10.4730 C.2   301  B30301      0.0000
     19  OXA       -4.8210    4.7490   10.5300 O.2   301  B30301      0.0000
     20  OXB       -3.1060    3.4730   11.0350 O.3   301  B30301      0.0000
     21  C14       -0.4260    4.7120    9.0440 C.3   301  B30301      0.0000
     22  C15        0.7970    4.0460    9.6330 C.2   301  B30301      0.0000
     23  OXC        0.6540    2.9120   10.1210 O.3   301  B30301      0.0000
     24  OXD        1.8850    4.6500    9.6080 O.2   301  B30301      0.0000
     25 CU         -1.2410    3.2140   10.4440 Cu    301  B30301      0.0000
@<TRIPOS>BOND
     1    21    22    1
     2    21    16    1
     3    24    22    2
     4    22    23    1
     5    17    16    1
     6    17    18    1
     7    16    25    1
     8    16    15    1
     9    23    25    1
    10    25    20    1
    11    18    19    2
    12    18    20    1
    13    15    14    1
    14    14    13    1
    15    13    11   am
    16    12    11    2
    17    11     5    1
    18     5    10   ar
    19     5     6   ar
    20    10     9   ar
    21     6     7   ar
    22     9     8   ar
    23     7     8   ar
    24     8     1    1
    25     4     1    1
    26     3     1    2
    27     1     2    2
