@<TRIPOS>MOLECULE
2fox_FMN_A_1.pdb
 31 33 0 0 0
SMALL
GASTEIGER

@<TRIPOS>ATOM
      1  N1        27.8330   14.2190   15.9570 N.2   139  FMN139     -0.2887
      2  C2        27.9710   13.9840   17.2670 C.1   139  FMN139      0.3669
      3  O2        27.0300   13.7270   17.9360 O.2   139  FMN139     -0.1744
      4  N3        29.2420   14.0450   17.8770 N.2   139  FMN139     -0.2300
      5  C4        30.4330   14.2350   17.1970 C.1   139  FMN139      0.2513
      6  O4        31.5400   14.2090   17.7520 O.2   139  FMN139     -0.2057
      7  C4A       30.2710   14.4620   15.7660 C.2   139  FMN139      0.2706
      8  N5        31.3330   14.6170   15.0360 N.2   139  FMN139     -0.3841
      9  C5A       31.1930   14.6840   13.6970 C.2   139  FMN139      0.1452
     10  C6        32.3510   14.7410   12.8860 C.2   139  FMN139      0.0252
     11  C7        32.2200   14.9780   11.5580 C.2   139  FMN139     -0.0375
     12  C7M       33.4210   15.1730   10.6770 C.3   139  FMN139      0.0268
     13  C8        30.9210   15.0470   10.9530 C.3   139  FMN139      0.0417
     14  C8M       30.7350   15.2790    9.4660 C.3   139  FMN139      0.0091
     15  C9        29.7930   14.9130   11.7310 C.2   139  FMN139     -0.0049
     16  C9A       29.9040   14.7520   13.0960 C.2   139  FMN139      0.0795
     17  N10       28.7970   14.5740   13.9050 N.pl3 139  FMN139     -0.2545
     18  C10       28.9050   14.4370   15.2360 C.2   139  FMN139      0.2449
     19  C1'       27.4710   14.5210   13.3090 C.3   139  FMN139      0.1336
     20  C2'       26.8440   15.9040   13.0780 C.3   139  FMN139      0.2048
     21  O2'       26.8760   16.7350   14.2380 O.3   139  FMN139     -0.2185
     22  C3'       25.3870   15.7300   12.6420 C.3   139  FMN139      0.2165
     23  O3'       25.3430   14.9840   11.4240 O.3   139  FMN139     -0.2175
     24  C4'       24.5780   17.0430   12.4930 C.3   139  FMN139      0.2147
     25  O4'       23.2250   16.7310   12.1660 O.3   139  FMN139     -0.2176
     26  C5'       25.1290   17.8890   11.3460 C.3   139  FMN139      0.1892
     27  O5'       24.5050   19.1700   11.2830 O.3   139  FMN139     -0.2674
     28  P         24.9040   20.1430   10.1230 P.3   139  FMN139      0.5327
     29  O1P       26.3410   20.2970   10.0910 O.3   139  FMN139     -0.1145
     30  O2P       24.2510   19.7960    8.8550 O.2   139  FMN139     -0.2224
     31  O3P       24.2990   21.4180   10.6730 O.3   139  FMN139     -0.1145
@<TRIPOS>BOND
     1    30    28    2
     2    14    13    1
     3    29    28    1
     4    28    31    1
     5    28    27    1
     6    12    11    1
     7    13    11    1
     8    13    15    1
     9    27    26    1
    10    26    24    1
    11    23    22    1
    12    11    10    2
    13    15    16    2
    14    25    24    1
    15    24    22    1
    16    22    20    1
    17    10     9    1
    18    20    19    1
    19    20    21    1
    20    16     9    1
    21    16    17    1
    22    19    17    1
    23     9     8    2
    24    17    18    1
    25     8     7    2
    26    18     7    1
    27    18     1    2
    28     7     5    1
    29     1     2    2
    30     5     6    2
    31     5     4    2
    32     2     4    2
    33     2     3    2
