@<TRIPOS>MOLECULE
2foy_B30_A_1.pdb
 25 27 0 0 0
SMALL
GASTEIGER

@<TRIPOS>ATOM
      1  S        -16.5550   -1.0480  -20.3290 S.O2  311  B30311      0.0000
      2  O1       -17.3230   -2.0080  -21.0810 O.2   311  B30311      0.0000
      3  O2       -16.3250    0.2510  -20.9150 O.2   311  B30311      0.0000
      4  N1       -15.1600   -1.7030  -19.8890 N.3   311  B30311      0.0000
      5  C1       -19.0180   -0.3910  -16.4290 C.ar  311  B30311      0.0000
      6  C2       -18.3790   -1.6310  -16.7190 C.ar  311  B30311      0.0000
      7  C3       -17.6310   -1.8080  -17.9040 C.ar  311  B30311      0.0000
      8  C4       -17.4960   -0.7670  -18.8320 C.ar  311  B30311      0.0000
      9  C5       -18.1280    0.4660  -18.5390 C.ar  311  B30311      0.0000
     10  C6       -18.8790    0.6570  -17.3570 C.ar  311  B30311      0.0000
     11  C7       -19.8390   -0.2230  -15.1610 C.2   311  B30311      0.0000
     12  O7       -20.7770    0.6140  -15.2110 O.2   311  B30311      0.0000
     13  N8       -19.5370   -0.9790  -14.1000 N.am  311  B30311      0.0000
     14  C9       -20.2760   -0.9660  -12.7750 C.3   311  B30311      0.0000
     15  C10      -19.9160    0.2470  -11.8240 C.3   311  B30311      0.0000
     16  N11      -18.5810    0.4710  -11.2790 N.4   311  B30311      0.0000
     17  C12      -17.7600    1.5830  -11.6930 C.3   311  B30311      0.0000
     18  C13      -17.2960    1.5220  -13.1150 C.2   311  B30311      0.0000
     19  OXA      -17.2780    2.5660  -13.7590 O.2   311  B30311      0.0000
     20  OXB      -16.9540    0.4080  -13.5460 O.3   311  B30311      0.0000
     21  C14      -17.9850   -0.2620  -10.1470 C.3   311  B30311      0.0000
     22  C15      -18.3790   -1.7140  -10.1300 C.2   311  B30311      0.0000
     23  OXC      -18.0640   -2.4040  -11.1050 O.3   311  B30311      0.0000
     24  OXD      -19.0010   -2.1630   -9.1580 O.2   311  B30311      0.0000
     25 CU        -17.1040   -1.0600  -12.2630 Cu    311  B30311      0.0000
@<TRIPOS>BOND
     1     2     1    2
     2     3     1    2
     3     1     4    1
     4     1     8    1
     5     8     9   ar
     6     8     7   ar
     7     9    10   ar
     8     7     6   ar
     9    10     5   ar
    10     6     5   ar
    11     5    11    1
    12    12    11    2
    13    11    13   am
    14    13    14    1
    15    19    18    2
    16    20    18    1
    17    20    25    1
    18    18    17    1
    19    14    15    1
    20    25    16    1
    21    25    23    1
    22    15    16    1
    23    17    16    1
    24    16    21    1
    25    23    22    1
    26    21    22    1
    27    22    24    2
