@<TRIPOS>MOLECULE
2fp2_TSA_B_1.pdb
 16 17 0 0 0
SMALL
GASTEIGER

@<TRIPOS>ATOM
      1  C1        -4.7960    5.6510   29.6330 C.3   500  TSA500      0.1173
      2  C2        -5.6520    4.4330   29.9820 C.2   500  TSA500     -0.0179
      3  C3        -5.5370    3.7740   31.1410 C.2   500  TSA500      0.0045
      4  C4        -4.5840    4.1880   32.2470 C.3   500  TSA500      0.2006
      5  O5        -3.6930    3.1280   32.5380 O.3   500  TSA500     -0.2157
      6  C5        -3.8250    5.4700   31.8970 C.3   500  TSA500      0.1511
      7  C6        -3.4750    5.5850   30.4160 C.3   500  TSA500      0.0474
      8  O7        -4.6160    6.6060   32.2820 O.3   500  TSA500     -0.3445
      9  C8        -5.7520    7.0850   31.5120 C.3   500  TSA500      0.2185
     10  C9        -5.5010    6.9400   30.0040 C.3   500  TSA500      0.0562
     11  C10       -4.5890    5.7860   28.1350 C.2   500  TSA500      0.3677
     12  O1        -3.4960    6.2590   27.7240 O.co2 500  TSA500     -0.2453
     13  O2        -5.5460    5.4720   27.3810 O.co2 500  TSA500     -0.2453
     14  C11       -7.0630    6.4500   31.9170 C.2   500  TSA500      0.3913
     15  O3        -8.0060    6.4600   31.0610 O.co2 500  TSA500     -0.2430
     16  O4        -7.1770    5.9200   33.0650 O.co2 500  TSA500     -0.2430
@<TRIPOS>BOND
     1    13    11   ar
     2    12    11   ar
     3    11     1    1
     4     1     2    1
     5     1    10    1
     6     1     7    1
     7     2     3    2
     8    10     9    1
     9     7     6    1
    10    15    14   ar
    11     3     4    1
    12     9    14    1
    13     9     8    1
    14     6     4    1
    15     6     8    1
    16    14    16   ar
    17     4     5    1
