@<TRIPOS>MOLECULE
2fp4_GTP_B_1.pdb
 32 34 0 0 0
SMALL
GASTEIGER

@<TRIPOS>ATOM
      1  PG        92.6550   49.2650   -2.2590 P.3   403  GTP403      0.5373
      2  O1G       92.0130   49.3540   -3.6090 O.2   403  GTP403     -0.2221
      3  O2G       91.9080   48.4090   -1.2330 O.3   403  GTP403     -0.1143
      4  O3G       92.8630   50.7170   -1.7400 O.3   403  GTP403     -0.1143
      5  O3B       94.0890   48.5980   -2.4490 O.3   403  GTP403     -0.2258
      6  PB        95.4160   48.9140   -1.5980 P.3   403  GTP403      0.2277
      7  O1B       95.1670   48.7300   -0.1570 O.3   403  GTP403     -0.4368
      8  O2B       95.9480   50.2830   -1.9180 O.2   403  GTP403     -0.5168
      9  O3A       96.4110   47.8230   -2.1180 O.3   403  GTP403     -0.2700
     10  PA        97.3430   47.7660   -3.4480 P.3   403  GTP403      0.2189
     11  O1A       98.4280   48.8050   -3.2300 O.3   403  GTP403     -0.4371
     12  O2A       96.4600   48.0060   -4.6430 O.2   403  GTP403     -0.5170
     13  O5'       97.8740   46.2470   -3.3540 O.3   403  GTP403     -0.3112
     14  C5'       98.7840   45.7840   -2.3460 C.3   403  GTP403      0.1813
     15  C4'      100.1100   45.4880   -3.0300 C.3   403  GTP403      0.1799
     16  O4'       99.8710   44.6670   -4.2420 O.3   403  GTP403     -0.3326
     17  C3'      100.8610   46.7680   -3.5330 C.3   403  GTP403      0.2158
     18  O3'      102.2740   46.7130   -3.2140 O.3   403  GTP403     -0.2175
     19  C2'      100.5420   46.7560   -5.0200 C.3   403  GTP403      0.2310
     20  O2'      101.5470   47.4600   -5.7490 O.3   403  GTP403     -0.2158
     21  C1'      100.5620   45.3050   -5.3400 C.3   403  GTP403      0.2293
     22  N9        99.9330   44.8840   -6.6310 N.pl3 403  GTP403     -0.2354
     23  C8        98.5970   44.8870   -6.9980 C.3   403  GTP403      0.2246
     24  N7        98.3980   44.4510   -8.2290 N.2   403  GTP403     -0.2322
     25  C5        99.6540   44.1480   -8.6940 C.2   403  GTP403      0.2182
     26  C6       100.1280   43.6330   -9.9620 C.1   403  GTP403      0.2372
     27  O6        99.5220   43.3220  -10.9890 O.2   403  GTP403     -0.2069
     28  N1       101.5180   43.4790   -9.9950 N.2   403  GTP403     -0.2485
     29  C2       102.3600   43.7720   -8.9670 C.1   403  GTP403      0.2531
     30  N2       103.6560   43.5510   -9.2230 N.pl3 403  GTP403     -0.0226
     31  N3       101.9520   44.2520   -7.7820 N.2   403  GTP403     -0.3074
     32  C4       100.5990   44.4150   -7.7100 C.2   403  GTP403      0.2300
@<TRIPOS>BOND
     1    27    26    2
     2    28    26    2
     3    28    29    2
     4    26    25    1
     5    30    29    1
     6    29    31    2
     7    25    24    2
     8    25    32    1
     9    24    23    1
    10    31    32    2
    11    32    22    1
    12    23    22    1
    13    22    21    1
    14    20    19    1
    15    21    19    1
    16    21    16    1
    17    19    17    1
    18    12    10    2
    19    16    15    1
    20     2     1    2
    21    17    18    1
    22    17    15    1
    23    10    13    1
    24    10    11    1
    25    10     9    1
    26    13    14    1
    27    15    14    1
    28     5     1    1
    29     5     6    1
    30     1     4    1
    31     1     3    1
    32     9     6    1
    33     8     6    2
    34     6     7    1
