@<TRIPOS>MOLECULE
2fp7_III_C_1.pdb
 47 47 0 0 0
SMALL
GASTEIGER

@<TRIPOS>ATOM
      1  C         22.1620   42.3760   -5.8570 C.2     1  BEZ1        0.2652
      2  O1        22.2720   41.4650   -5.0570 O.2     1  BEZ1       -0.2684
      3  C1        23.2670   42.7100   -6.8170 C.ar    1  BEZ1        0.0551
      4  C2        22.9790   43.3660   -8.0220 C.ar    1  BEZ1        0.0046
      5  C3        24.0070   43.7080   -8.9050 C.ar    1  BEZ1        0.0001
      6  C4        25.3400   43.4090   -8.5810 C.ar    1  BEZ1        0.0000
      7  C5        25.6320   42.7610   -7.3760 C.ar    1  BEZ1        0.0001
      8  C6        24.6020   42.4190   -6.4860 C.ar    1  BEZ1        0.0046
      9  N         21.1490   43.1270   -5.9280 N.am    2  LEU2       -0.1940
     10  CA        19.9130   43.1640   -5.1470 C.3     2  LEU2        0.1730
     11  C         19.9380   44.1850   -4.0330 C.2     2  LEU2        0.2616
     12  O         20.2980   45.2820   -4.3920 O.2     2  LEU2       -0.2715
     13  CB        19.3820   41.7760   -4.8140 C.3     2  LEU2        0.0311
     14  CG        18.4850   41.4300   -6.0020 C.3     2  LEU2        0.0023
     15  CD        17.7030   40.1550   -5.7450 C.3     2  LEU2        0.0001
     16  CE        16.4060   40.4690   -5.0470 C.3     2  LEU2        0.0000
     17  N         19.5510   43.9290   -2.8550 N.am    3  LYS3       -0.1963
     18  CA        19.5290   45.0010   -1.8600 C.3     3  LYS3        0.1728
     19  C         20.8420   45.2540   -1.1790 C.2     3  LYS3        0.2616
     20  O         21.0030   46.3260   -0.5910 O.2     3  LYS3       -0.2715
     21  CB        18.4560   44.7010   -0.8180 C.3     3  LYS3        0.0311
     22  CG        17.0360   44.7750   -1.3860 C.3     3  LYS3        0.0038
     23  CD        16.0710   44.8270   -0.2070 C.3     3  LYS3        0.0206
     24  CE        14.6210   44.6630   -0.6420 C.3     3  LYS3        0.1093
     25  NZ        13.8120   44.5850    0.5580 N.3     3  LYS3       -0.1314
     26  N         21.7610   44.2930   -1.2390 N.am    4  ARG4       -0.1963
     27  CA        23.0460   44.5040   -0.5670 C.3     4  ARG4        0.1729
     28  C         24.2140   44.2920   -1.4940 C.2     4  ARG4        0.2616
     29  O         24.0740   43.7230   -2.5810 O.2     4  ARG4       -0.2715
     30  CB        23.0810   43.5170    0.5950 C.3     4  ARG4        0.0348
     31  CG        22.2710   43.9690    1.8070 C.3     4  ARG4        0.0492
     32  CD        22.0330   42.7900    2.7320 C.3     4  ARG4        0.2205
     33  NE        21.5190   43.3420    3.9750 N.pl3   4  ARG4       -0.0865
     34  CZ        21.4190   42.7330    5.1470 C.cat   4  ARG4        0.5346
     35  NH1       21.7990   41.4540    5.2800 N.pl3   4  ARG4        0.1354
     36  NH2       20.9490   43.3850    6.1900 N.pl3   4  ARG4        0.1354
     37  OH1       27.3940   43.1310   -0.1970 O.2     5  OAR5       -0.2864
     38  N1        25.3720   44.8050   -1.0510 N.am    5  OAR5       -0.1977
     39  N2        25.2020   46.0250   -5.8450 N.pl3   5  OAR5       -0.0865
     40  N3        23.1680   45.5350   -4.9260 N.pl3   5  OAR5        0.1354
     41  N4        23.3010   46.5840   -6.9900 N.pl3   5  OAR5        0.1354
     42  C1        26.6260   44.6880   -1.8100 C.3     5  OAR5        0.1597
     43  C2        26.9910   46.0230   -2.4910 C.3     5  OAR5        0.0334
     44  C3        26.0100   46.4660   -3.5800 C.3     5  OAR5        0.0492
     45  C4        25.9300   45.4390   -4.7210 C.3     5  OAR5        0.2205
     46  C5        23.8770   46.0440   -5.9260 C.cat   5  OAR5        0.5346
     47  C6        27.6440   44.2110   -0.7870 C.2     5  OAR5        0.2287
@<TRIPOS>BOND
     1     5     6   ar
     2     5     4   ar
     3     6     7   ar
     4     4     3   ar
     5     7     8   ar
     6    41    46    1
     7     3     8   ar
     8     3     1    1
     9    14    15    1
    10    14    13    1
    11     9     1   am
    12     9    10    1
    13    46    39    2
    14    46    40    1
    15     1     2    2
    16    39    45    1
    17    15    16    1
    18    10    13    1
    19    10    11    1
    20    45    44    1
    21    12    11    2
    22    11    17   am
    23    44    43    1
    24    17    18    1
    25    29    28    2
    26    43    42    1
    27    18    19    1
    28    18    21    1
    29    42    38    1
    30    42    47    1
    31    28    38   am
    32    28    27    1
    33    22    21    1
    34    22    23    1
    35    26    19   am
    36    26    27    1
    37    19    20    2
    38    47    37    2
    39    24    23    1
    40    24    25    1
    41    27    30    1
    42    30    31    1
    43    31    32    1
    44    32    33    1
    45    33    34    2
    46    34    35    1
    47    34    36    1
