@<TRIPOS>MOLECULE
2fpb_TSS_A_1.pdb
 12 13 0 0 0
SMALL
GASTEIGER

@<TRIPOS>ATOM
      1  N1       100.0240    5.3860    0.9080 N.3   1001  TSS1001    -0.1310
      2  CA       100.2120    4.8620    2.2650 C.3   1001  TSS1001     0.1140
      3  CB       100.2980    3.3380    2.2160 C.3   1001  TSS1001     0.0485
      4  CG        99.5960    2.8110    0.9720 C.2   1001  TSS1001    -0.0004
      5  CD1       98.9000    3.5370    0.1130 C.2   1001  TSS1001     0.0946
      6  NE1       98.4310    2.7580   -0.8530 N.2   1001  TSS1001    -0.2442
      7  CE2       98.8210    1.5140   -0.6320 C.2   1001  TSS1001     0.0804
      8  CD2       99.5640    1.5100    0.5260 C.2   1001  TSS1001     0.0113
      9  CZ2       98.6020    0.3430   -1.3280 C.2   1001  TSS1001     0.0148
     10  CH2       99.1410   -0.8360   -0.8520 C.2   1001  TSS1001    -0.0199
     11  CZ3       99.8900   -0.8380    0.3130 C.3   1001  TSS1001     0.0521
     12  CE3      100.1050    0.3380    1.0090 C.2   1001  TSS1001    -0.0202
@<TRIPOS>BOND
     1     9    10    2
     2     9     7    1
     3     6     7    2
     4     6     5    1
     5    10    11    1
     6     7     8    1
     7     5     4    2
     8    11    12    1
     9     8     4    1
    10     8    12    2
    11     1     2    1
    12     4     3    1
    13     3     2    1
