@<TRIPOS>MOLECULE
2fpd_TRE_C_1.pdb
 23 24 0 0 0
SMALL
GASTEIGER

@<TRIPOS>ATOM
      1  C1        44.2090    1.8150   24.0870 C.3   1001  TRE1001     0.2713
      2  C2        42.8330    2.3840   24.5300 C.3   1001  TRE1001     0.2406
      3  C3        41.7620    1.2820   24.3160 C.3   1001  TRE1001     0.2198
      4  C4        41.7420    0.9910   22.7890 C.3   1001  TRE1001     0.2144
      5  C5        43.1360    0.4380   22.3480 C.3   1001  TRE1001     0.1835
      6  C6        43.2680    0.1230   20.8850 C.3   1001  TRE1001     0.2142
      7  O1        44.5540    0.7660   24.9430 O.3   1001  TRE1001    -0.3016
      8  O2        42.9270    2.7250   25.8690 O.3   1001  TRE1001    -0.2149
      9  O3        40.5240    1.7800   24.7090 O.3   1001  TRE1001    -0.2174
     10  O4        40.8210    0.0110   22.4650 O.3   1001  TRE1001    -0.2176
     11  O5        44.1850    1.3890   22.6620 O.3   1001  TRE1001    -0.3256
     12  O6        44.5770   -0.3660   20.6520 O.3   1001  TRE1001    -0.2176
     13  C1P       45.7900    0.0590   24.7400 C.3   1001  TRE1001     0.2713
     14  C2P       46.4840   -1.2630   25.1040 C.3   1001  TRE1001     0.2406
     15  C3P       46.7430   -1.2190   26.6730 C.3   1001  TRE1001     0.2198
     16  C4P       47.7510   -0.0710   26.9030 C.3   1001  TRE1001     0.2144
     17  C5P       47.0910    1.3040   26.4410 C.3   1001  TRE1001     0.1835
     18  C6P       48.0620    2.4760   26.6260 C.3   1001  TRE1001     0.2142
     19  O2P       45.5830   -2.2670   24.8310 O.3   1001  TRE1001    -0.2149
     20  O3P       47.3600   -2.3930   27.0820 O.3   1001  TRE1001    -0.2174
     21  O4P       48.0670    0.0450   28.2770 O.3   1001  TRE1001    -0.2176
     22  O5P       46.7460    1.1570   25.0350 O.3   1001  TRE1001    -0.3256
     23  O6P       47.6610    3.5640   25.8190 O.3   1001  TRE1001    -0.2176
@<TRIPOS>BOND
     1    12     6    1
     2     6     5    1
     3     5    11    1
     4     5     4    1
     5    10     4    1
     6    11     1    1
     7     4     3    1
     8     1     2    1
     9     1     7    1
    10     3     2    1
    11     3     9    1
    12     2     8    1
    13    13     7    1
    14    13    22    1
    15    13    14    1
    16    19    14    1
    17    22    17    1
    18    14    15    1
    19    23    18    1
    20    17    18    1
    21    17    16    1
    22    15    16    1
    23    15    20    1
    24    16    21    1
