@<TRIPOS>MOLECULE
2fpg_GDP_B_1.pdb
 28 30 0 0 0
SMALL
GASTEIGER

@<TRIPOS>ATOM
      1  PB        94.3480   48.7350   -1.9790 P.3   397  GDP397      0.5373
      2  O1B       92.9500   48.4190   -1.6090 O.3   397  GDP397     -0.1143
      3  O2B       95.3640   48.1440   -0.8760 O.3   397  GDP397     -0.1143
      4  O3B       94.5190   50.3240   -2.0770 O.2   397  GDP397     -0.2221
      5  O3A       94.6750   48.0680   -3.4250 O.3   397  GDP397     -0.2261
      6  PA        96.2710   48.1900   -3.7540 P.3   397  GDP397      0.2231
      7  O1A       96.4160   48.6890   -5.1520 O.2   397  GDP397     -0.5169
      8  O2A       96.9860   49.2320   -2.7220 O.3   397  GDP397     -0.4370
      9  O5'       96.9750   46.7100   -3.6710 O.3   397  GDP397     -0.3111
     10  C5'       98.1040   46.7480   -2.7650 C.3   397  GDP397      0.1813
     11  C4'       99.4310   46.6670   -3.5430 C.3   397  GDP397      0.1799
     12  O4'       99.4050   45.5740   -4.4940 O.3   397  GDP397     -0.3326
     13  C3'       99.6890   47.9460   -4.3650 C.3   397  GDP397      0.2158
     14  O3'      100.4860   48.8880   -3.6310 O.3   397  GDP397     -0.2175
     15  C2'      100.3730   47.4480   -5.6470 C.3   397  GDP397      0.2310
     16  O2'      101.6910   47.9780   -5.7940 O.3   397  GDP397     -0.2158
     17  C1'      100.3650   45.9020   -5.5400 C.3   397  GDP397      0.2293
     18  N9        99.9550   45.3280   -6.8380 N.pl3 397  GDP397     -0.2354
     19  C8        98.6900   45.3420   -7.3870 C.3   397  GDP397      0.2246
     20  N7        98.6970   44.7540   -8.5460 N.2   397  GDP397     -0.2322
     21  C5        99.9540   44.3300   -8.8230 C.2   397  GDP397      0.2182
     22  C6       100.5690   43.6350   -9.9200 C.1   397  GDP397      0.2372
     23  O6        99.9200   43.3030  -10.8930 O.2   397  GDP397     -0.2069
     24  N1       101.9070   43.3610   -9.8590 N.2   397  GDP397     -0.2485
     25  C2       102.6520   43.7340   -8.7660 C.1   397  GDP397      0.2531
     26  N2       103.9850   43.4390   -8.7380 N.pl3 397  GDP397     -0.0226
     27  N3       102.0980   44.3770   -7.7380 N.2   397  GDP397     -0.3074
     28  C4       100.7740   44.6890   -7.7260 C.2   397  GDP397      0.2300
@<TRIPOS>BOND
     1    23    22    2
     2    22    24    2
     3    22    21    1
     4    24    25    2
     5    21    20    2
     6    21    28    1
     7    25    26    1
     8    25    27    2
     9    20    19    1
    10    27    28    2
    11    28    18    1
    12    19    18    1
    13    18    17    1
    14    16    15    1
    15    15    17    1
    16    15    13    1
    17    17    12    1
    18     7     6    2
    19    12    11    1
    20    13    14    1
    21    13    11    1
    22     6     9    1
    23     6     5    1
    24     6     8    1
    25     9    10    1
    26    11    10    1
    27     5     1    1
    28     4     1    2
    29     1     2    1
    30     1     3    1
