@<TRIPOS>MOLECULE
2fpk_ADP_A_1.pdb
 27 29 0 0 0
SMALL
GASTEIGER

@<TRIPOS>ATOM
      1  PB        28.5240   57.4660  -10.5280 P.3   401  ADP401      0.5373
      2  O1B       27.5810   57.0600   -9.4510 O.3   401  ADP401     -0.1143
      3  O2B       29.8960   57.1070  -10.1490 O.3   401  ADP401     -0.1143
      4  O3B       28.4130   59.0440  -10.7720 O.2   401  ADP401     -0.2221
      5  PA        27.0350   55.5610  -11.9640 P.3   401  ADP401      0.2231
      6  O1A       27.3480   54.4720  -10.9350 O.3   401  ADP401     -0.4370
      7  O2A       25.7080   56.1390  -11.6720 O.2   401  ADP401     -0.5169
      8  O3A       28.1740   56.7130  -11.9000 O.3   401  ADP401     -0.2261
      9  O5'       27.0930   54.8950  -13.4760 O.3   401  ADP401     -0.3111
     10  C5'       26.4920   55.5660  -14.6980 C.3   401  ADP401      0.1813
     11  C4'       26.8030   54.8350  -15.7740 C.3   401  ADP401      0.1821
     12  O4'       26.2340   53.4920  -15.6210 O.3   401  ADP401     -0.3135
     13  C3'       26.0550   55.3670  -17.0360 C.3   401  ADP401      0.2184
     14  O3'       26.4250   56.6130  -17.4820 O.3   401  ADP401     -0.2174
     15  C2'       25.8380   54.1130  -17.9330 C.3   401  ADP401      0.2570
     16  O2'       27.0280   54.0070  -18.8920 O.3   401  ADP401     -0.2130
     17  C1'       25.9230   52.9540  -16.9440 C.3   401  ADP401      0.3186
     18  N9        24.6990   52.3760  -16.9200 N.pl3 401  ADP401     -0.1439
     19  C8        23.6590   52.6400  -16.0060 C.3   401  ADP401      0.3377
     20  N7        22.6360   51.9090  -16.2950 N.2   401  ADP401     -0.2095
     21  C5        22.9250   51.1500  -17.3690 C.2   401  ADP401      0.2526
     22  C6        22.2090   50.2110  -18.0870 C.2   401  ADP401      0.4393
     23  N6        20.9310   49.9070  -17.7290 N.pl3 401  ADP401      0.2180
     24  N1        22.8210   49.5790  -19.1910 N.2   401  ADP401      0.0021
     25  C2        24.1640   49.8990  -19.5760 C.3   401  ADP401      0.5254
     26  N3        24.8930   50.8270  -18.8860 N.2   401  ADP401     -0.0055
     27  C4        24.2210   51.4300  -17.7760 C.2   401  ADP401      0.3518
@<TRIPOS>BOND
     1    25    24    1
     2    25    26    1
     3    24    22    2
     4    16    15    1
     5    26    27    2
     6    22    23    1
     7    22    21    1
     8    15    13    1
     9    15    17    1
    10    27    21    1
    11    27    18    1
    12    14    13    1
    13    21    20    2
    14    13    11    1
    15    17    18    1
    16    17    12    1
    17    18    19    1
    18    20    19    1
    19    11    12    1
    20    11    10    1
    21    10     9    1
    22     9     5    1
    23     5     8    1
    24     5     7    2
    25     5     6    1
    26     8     1    1
    27     4     1    2
    28     1     3    1
    29     1     2    1
