@<TRIPOS>MOLECULE
2fpl_ANP_A_1.pdb
 31 33 0 0 0
SMALL
GASTEIGER

@<TRIPOS>ATOM
      1  PG        27.4310   59.3080  -10.2650 P.3   401  ANP401      0.4884
      2  O1G       28.7100   59.8240   -9.9140 O.3   401  ANP401     -0.1240
      3  O2G       26.7080   58.8350   -9.0350 O.3   401  ANP401     -0.1240
      4  O3G       26.6620   60.3590  -10.8930 O.2   401  ANP401     -0.2331
      5  PB        28.0870   56.5960  -10.9340 P.3   401  ANP401      0.4669
      6  O1B       27.3620   56.0990   -9.7350 O.3   401  ANP401     -0.1253
      7  O2B       29.5220   56.5950  -10.6860 O.2   401  ANP401     -0.2351
      8  N3B       27.6020   58.0430  -11.3460 N.3   401  ANP401     -0.0163
      9  PA        26.4900   54.7180  -12.2960 P.3   401  ANP401      0.2220
     10  O1A       26.4890   53.6490  -11.1960 O.3   401  ANP401     -0.4370
     11  O2A       25.2870   55.5650  -12.1810 O.2   401  ANP401     -0.5170
     12  O3A       27.8190   55.6250  -12.1840 O.3   401  ANP401     -0.2360
     13  O5'       26.5160   53.9580  -13.7550 O.3   401  ANP401     -0.3111
     14  C5'       25.8310   54.5540  -14.9650 C.3   401  ANP401      0.1813
     15  C4'       26.1140   53.7960  -16.0120 C.3   401  ANP401      0.1821
     16  O4'       25.6120   52.4280  -15.7630 O.3   401  ANP401     -0.3135
     17  C3'       25.2870   54.2410  -17.2480 C.3   401  ANP401      0.2184
     18  O3'       25.5410   55.4890  -17.7750 O.3   401  ANP401     -0.2174
     19  C2'       25.0750   52.9410  -18.0660 C.3   401  ANP401      0.2570
     20  O2'       26.2550   52.8340  -19.0370 O.3   401  ANP401     -0.2130
     21  C1'       25.2300   51.8250  -17.0230 C.3   401  ANP401      0.3186
     22  N9        23.9770   51.3110  -16.8780 N.pl3 401  ANP401     -0.1439
     23  C8        23.0220   51.6620  -15.8980 C.3   401  ANP401      0.3377
     24  N7        21.9460   50.9850  -16.0780 N.2   401  ANP401     -0.2095
     25  C5        22.1140   50.1770  -17.1460 C.2   401  ANP401      0.2526
     26  C6        21.3070   49.2600  -17.7830 C.2   401  ANP401      0.4393
     27  N6        20.0500   49.0290  -17.3370 N.pl3 401  ANP401      0.2180
     28  N1        21.8090   48.5680  -18.9020 N.2   401  ANP401      0.0021
     29  C2        23.1250   48.8010  -19.3840 C.3   401  ANP401      0.5254
     30  N3        23.9440   49.6980  -18.7840 N.2   401  ANP401     -0.0055
     31  C4        23.3890   50.3710  -17.6540 C.2   401  ANP401      0.3518
@<TRIPOS>BOND
     1    29    28    1
     2    29    30    1
     3    20    19    1
     4    28    26    2
     5    30    31    2
     6    19    17    1
     7    19    21    1
     8    26    27    1
     9    26    25    1
    10    18    17    1
    11    31    25    1
    12    31    22    1
    13    17    15    1
    14    25    24    2
    15    21    22    1
    16    21    16    1
    17    22    23    1
    18    24    23    1
    19    15    16    1
    20    15    14    1
    21    14    13    1
    22    13     9    1
    23     9    12    1
    24     9    11    2
    25     9    10    1
    26    12     5    1
    27     8     5    1
    28     8     1    1
    29     5     7    2
    30     5     6    1
    31     4     1    2
    32     1     2    1
    33     1     3    1
