@<TRIPOS>MOLECULE
2fpm_ANP_A_1.pdb
 31 33 0 0 0
SMALL
GASTEIGER

@<TRIPOS>ATOM
      1  PG        27.9730   59.1350   -9.4520 P.3   401  ANP401      0.4884
      2  O1G       27.2130   58.7280   -8.2980 O.3   401  ANP401     -0.1240
      3  O2G       27.2800   60.2740  -10.1200 O.2   401  ANP401     -0.2331
      4  O3G       29.3020   59.5690   -9.0580 O.3   401  ANP401     -0.1240
      5  PB        28.4730   56.3960  -10.1610 P.3   401  ANP401      0.4669
      6  O1B       27.7140   55.9550   -8.9700 O.3   401  ANP401     -0.1253
      7  O2B       29.9060   56.2830   -9.9340 O.2   401  ANP401     -0.2351
      8  N3B       28.0990   57.8840  -10.5480 N.3   401  ANP401     -0.0163
      9  PA        26.7730   54.6220  -11.5580 P.3   401  ANP401      0.2220
     10  O1A       26.7470   53.5010  -10.5190 O.3   401  ANP401     -0.4370
     11  O2A       25.5920   55.4990  -11.3920 O.2   401  ANP401     -0.5170
     12  O3A       28.1370   55.4690  -11.4170 O.3   401  ANP401     -0.2360
     13  O5'       26.7840   53.9440  -13.0710 O.3   401  ANP401     -0.3111
     14  C5'       26.3930   54.7300  -14.3090 C.3   401  ANP401      0.1813
     15  C4'       26.6080   53.9690  -15.3880 C.3   401  ANP401      0.1821
     16  O4'       26.0700   52.6090  -15.1530 O.3   401  ANP401     -0.3135
     17  C3'       25.7310   54.4610  -16.5770 C.3   401  ANP401      0.2184
     18  O3'       26.0240   55.7070  -17.0820 O.3   401  ANP401     -0.2174
     19  C2'       25.5030   53.1870  -17.4310 C.3   401  ANP401      0.2570
     20  O2'       26.6360   53.0960  -18.4620 O.3   401  ANP401     -0.2130
     21  C1'       25.6850   52.0420  -16.4320 C.3   401  ANP401      0.3186
     22  N9        24.4630   51.4700  -16.3330 N.pl3 401  ANP401     -0.1439
     23  C8        23.4640   51.7420  -15.3820 C.3   401  ANP401      0.3377
     24  N7        22.4280   51.0060  -15.6260 N.2   401  ANP401     -0.2095
     25  C5        22.6800   50.2410  -16.7110 C.2   401  ANP401      0.2526
     26  C6        21.9470   49.2970  -17.4090 C.2   401  ANP401      0.4393
     27  N6        20.6890   48.9870  -17.0210 N.pl3 401  ANP401      0.2180
     28  N1        22.5290   48.6700  -18.5330 N.2   401  ANP401      0.0021
     29  C2        23.8510   48.9920  -18.9550 C.3   401  ANP401      0.5254
     30  N3        24.5990   49.9190  -18.2880 N.2   401  ANP401     -0.0055
     31  C4        23.9590   50.5210  -17.1600 C.2   401  ANP401      0.3518
@<TRIPOS>BOND
     1    29    28    1
     2    29    30    1
     3    28    26    2
     4    20    19    1
     5    30    31    2
     6    19    17    1
     7    19    21    1
     8    26    27    1
     9    26    25    1
    10    31    25    1
    11    31    22    1
    12    18    17    1
    13    25    24    2
    14    17    15    1
    15    21    22    1
    16    21    16    1
    17    22    23    1
    18    24    23    1
    19    15    16    1
    20    15    14    1
    21    14    13    1
    22    13     9    1
    23     9    12    1
    24     9    11    2
    25     9    10    1
    26    12     5    1
    27     8     5    1
    28     8     1    1
    29     5     7    2
    30     5     6    1
    31     3     1    2
    32     1     4    1
    33     1     2    1
