@<TRIPOS>MOLECULE
2fpt_FMN_A_1.pdb
 31 33 0 0 0
SMALL
GASTEIGER

@<TRIPOS>ATOM
      1  N1        41.7720   36.1350    8.6490 N.2   398  FMN398     -0.2890
      2  C2        42.1670   35.4880    9.7800 C.1   398  FMN398      0.3669
      3  O2        41.5700   35.5880   10.8310 O.2   398  FMN398     -0.1744
      4  N3        43.3410   34.6550    9.7160 N.2   398  FMN398     -0.2300
      5  C4        44.0880   34.4620    8.6190 C.1   398  FMN398      0.2513
      6  O4        45.0820   33.7250    8.6640 O.2   398  FMN398     -0.2057
      7  C4A       43.6640   35.1600    7.3940 C.2   398  FMN398      0.2700
      8  N5        44.3510   35.0260    6.2490 N.2   398  FMN398     -0.3878
      9  C5A       43.9310   35.7060    5.1220 C.2   398  FMN398      0.1320
     10  C6        44.6680   35.5880    3.8690 C.2   398  FMN398      0.0250
     11  C7        44.2910   36.2670    2.7170 C.2   398  FMN398     -0.0238
     12  C7M       45.1100   36.1140    1.4180 C.3   398  FMN398      0.0308
     13  C8        43.1210   37.1300    2.7370 C.2   398  FMN398     -0.0280
     14  C8M       42.6550   37.9130    1.5140 C.3   398  FMN398      0.0304
     15  C9        42.3980   37.2490    3.9220 C.2   398  FMN398     -0.0041
     16  C9A       42.7660   36.5650    5.1190 C.3   398  FMN398      0.1497
     17  N10       42.0480   36.6700    6.3720 N.pl3 398  FMN398     -0.2691
     18  C10       42.4510   36.0050    7.5120 C.2   398  FMN398      0.2416
     19  C1'       40.8460   37.5170    6.4540 C.3   398  FMN398      0.1294
     20  C2'       41.1080   39.0130    6.6300 C.3   398  FMN398      0.2044
     21  O2'       41.7630   39.2040    7.9190 O.3   398  FMN398     -0.2185
     22  C3'       39.7780   39.8170    6.6680 C.3   398  FMN398      0.2164
     23  O3'       38.9080   39.3040    7.7410 O.3   398  FMN398     -0.2175
     24  C4'       38.9580   39.7020    5.3560 C.3   398  FMN398      0.2147
     25  O4'       39.8210   39.4670    4.2140 O.3   398  FMN398     -0.2176
     26  C5'       38.1220   40.9540    5.0900 C.3   398  FMN398      0.1892
     27  O5'       38.9240   42.1290    4.9390 O.3   398  FMN398     -0.2674
     28  P         39.3710   42.7310    3.5140 P.3   398  FMN398      0.5327
     29  O1P       40.4310   41.8150    2.9320 O.3   398  FMN398     -0.1145
     30  O2P       39.8850   44.1140    3.8400 O.3   398  FMN398     -0.1145
     31  O3P       38.1220   42.7940    2.6240 O.2   398  FMN398     -0.2224
@<TRIPOS>BOND
     1    12    11    1
     2    14    13    1
     3    31    28    2
     4    11    13    1
     5    11    10    2
     6    13    15    2
     7    29    28    1
     8    28    30    1
     9    28    27    1
    10    10     9    1
    11    15    16    1
    12    25    24    1
    13    27    26    1
    14    26    24    1
    15    16     9    1
    16    16    17    1
    17     9     8    2
    18    24    22    1
    19     8     7    2
    20    17    19    1
    21    17    18    1
    22    19    20    1
    23    20    22    1
    24    20    21    1
    25    22    23    1
    26     7    18    1
    27     7     5    1
    28    18     1    2
    29     5     6    2
    30     5     4    2
    31     1     2    2
    32     4     2    2
    33     2     3    2
