@<TRIPOS>MOLECULE
2fpt_ILB_A_1.pdb
 30 32 0 0 0
SMALL
GASTEIGER

@<TRIPOS>ATOM
      1  C1        55.1640   47.2410    0.3520 C.ar  405  ILB405      0.0031
      2  C2        55.6740   48.1950   -0.6000 C.ar  405  ILB405      0.0372
      3  C3        55.1860   48.2030   -2.0000 C.ar  405  ILB405      0.1468
      4  C7        54.1760   46.2880   -0.0580 C.ar  405  ILB405      0.0002
      5  C8        51.5230   45.0240   -0.7590 C.ar  405  ILB405      0.0311
      6  C9        50.5730   43.9570   -0.9740 C.ar  405  ILB405      0.1575
      7  C11       50.7180   43.0290   -2.1200 C.ar  405  ILB405      0.1283
      8  C13       51.8350   43.2160   -3.0530 C.ar  405  ILB405      0.1575
      9  C15       52.7990   44.2840   -2.8510 C.ar  405  ILB405      0.0311
     10  C16       49.4950   40.8350   -1.5020 C.2   405  ILB405      0.2650
     11  C19       47.9130   39.5690   -3.0910 C.2   405  ILB405      0.0580
     12  C20       46.9270   38.4610   -2.9460 C.3   405  ILB405      0.0332
     13  C21       47.3180   37.7770   -1.6310 C.3   405  ILB405      0.0097
     14  C22       47.9100   38.9350   -0.8210 C.3   405  ILB405      0.0313
     15  C27       56.9950   48.7590   -3.5450 C.3   405  ILB405      0.5753
     16  C4        54.1580   47.2220   -2.4410 C.ar  405  ILB405      0.0372
     17  C5        53.6380   46.2430   -1.4540 C.ar  405  ILB405      0.0032
     18  C6        52.6670   45.2120   -1.6910 C.ar  405  ILB405      0.0047
     19  F10       49.5750   43.8000   -0.1360 F     405  ILB405     -0.2027
     20  N12       49.7950   41.9830   -2.2760 N.am  405  ILB405     -0.1711
     21  F14       52.0020   42.4190   -4.0840 F     405  ILB405     -0.2027
     22  C17       48.4740   39.8370   -1.8650 C.2   405  ILB405      0.0355
     23  O18       50.1430   40.6520   -0.4430 O.2   405  ILB405     -0.2684
     24  C23       48.1310   40.1780   -4.4400 C.2   405  ILB405      0.3837
     25  O24       48.9310   41.1100   -4.6720 O.co2 405  ILB405     -0.2409
     26  O25       47.4370   39.7200   -5.4990 O.co2 405  ILB405     -0.2409
     27  O26       55.7190   49.1450   -2.8750 O.3   405  ILB405     -0.4045
     28  F28       56.9180   47.6370   -4.2450 F     405  ILB405     -0.1328
     29  F29       57.3370   49.7580   -4.3360 F     405  ILB405     -0.1328
     30  F30       57.9400   48.6010   -2.6310 F     405  ILB405     -0.1328
@<TRIPOS>BOND
     1    26    24   ar
     2    25    24   ar
     3    24    11    1
     4    29    15    1
     5    28    15    1
     6    21     8    1
     7    15    27    1
     8    15    30    1
     9    11    12    1
    10    11    22    2
    11     8     9   ar
    12     8     7   ar
    13    12    13    1
    14    27     3    1
    15     9    18   ar
    16    16     3   ar
    17    16    17   ar
    18    20     7    1
    19    20    10   am
    20     7     6   ar
    21     3     2   ar
    22    22    10    1
    23    22    14    1
    24    18    17    1
    25    18     5   ar
    26    13    14    1
    27    10    23    2
    28    17     4   ar
    29     6     5   ar
    30     6    19    1
    31     2     1   ar
    32     4     1   ar
