@<TRIPOS>MOLECULE
2fpu_HSO_B_1.pdb
 10 10 0 0 0
SMALL
GASTEIGER

@<TRIPOS>ATOM
      1  N         30.1630    0.3510  -11.6510 N.3   509  HSO509     -0.1241
      2  CA        31.1830    0.0270  -12.6480 C.3   509  HSO509      0.1618
      3  CB        30.6070   -0.1160  -14.0580 C.3   509  HSO509      0.0704
      4  CG        29.5540   -1.1920  -14.1950 C.2   509  HSO509      0.0649
      5  ND1       29.7040   -2.5090  -13.9320 N.2   509  HSO509     -0.2310
      6  CD2       28.2500   -0.9950  -14.6380 C.3   509  HSO509      0.1683
      7  CE1       28.5270   -3.1200  -14.1910 C.2   509  HSO509      0.1939
      8  NE2       27.6360   -2.2040  -14.6500 N.2   509  HSO509     -0.2440
      9  C         32.1780    1.1780  -12.6790 C.2   509  HSO509      0.2264
     10  O         31.7780    2.3350  -12.6790 O.2   509  HSO509     -0.2867
@<TRIPOS>BOND
     1     8     6    1
     2     8     7    2
     3     6     4    1
     4     4     3    1
     5     4     5    2
     6     7     5    1
     7     3     2    1
     8     9    10    2
     9     9     2    1
    10     2     1    1
