@<TRIPOS>MOLECULE
2fpv_ILC_A_1.pdb
 26 28 0 0 0
SMALL
GASTEIGER

@<TRIPOS>ATOM
      1  C1        31.4740    6.0770   61.8530 C.ar  405  ILC405      0.0369
      2  C2        31.2550    6.4520   63.2790 C.ar  405  ILC405      0.1387
      3  C8        31.5780    7.8650   63.6720 C.ar  405  ILC405      0.0369
      4  C9        32.0900    8.8390   62.6930 C.ar  405  ILC405      0.0031
      5  C10       32.4490   10.2180   62.9960 C.ar  405  ILC405      0.0024
      6  C11       32.2820    8.3830   61.2920 C.ar  405  ILC405      0.0002
      7  C12       31.9750    7.0250   60.8910 C.ar  405  ILC405      0.0031
      8  C13       33.2440   10.5610   64.2180 C.ar  405  ILC405      0.0015
      9  C14       33.6280   11.9150   64.4960 C.ar  405  ILC405      0.0189
     10  C16       33.2440   13.0060   63.5690 C.ar  405  ILC405      0.1010
     11  C20       32.0640   11.3280   62.0820 C.ar  405  ILC405      0.0310
     12  C21       34.4820   15.1470   62.9920 C.2   405  ILC405      0.2698
     13  C22       34.8850   16.4910   63.2930 C.ar  405  ILC405      0.0683
     14  C24       35.3800   17.3410   62.2400 C.ar  405  ILC405      0.0123
     15  C27       34.8640   17.1490   64.5670 C.ar  405  ILC405      0.1137
     16  O3        30.7770    5.6250   64.2970 O.3   405  ILC405     -0.4714
     17  C4        31.4540    4.3350   64.3950 C.3   405  ILC405      0.2525
     18  N17       33.6420   14.3280   63.8390 N.am  405  ILC405     -0.1732
     19  C18       32.4570   12.6970   62.3690 C.ar  405  ILC405      0.1553
     20  F19       32.0950   13.6400   61.5170 F     405  ILC405     -0.2028
     21  O23       34.8940   14.6300   61.8950 O.2   405  ILC405     -0.2680
     22  C25       35.7410   18.6180   62.6330 C.ar  405  ILC405      0.0358
     23  S26       35.4440   18.6950   64.2970 S.2   405  ILC405     -0.0798
     24  C28       34.4720   16.7420   65.8780 C.2   405  ILC405      0.3938
     25  O29       34.2910   15.5600   66.2160 O.co2 405  ILC405     -0.2400
     26  O30       34.2850   17.6890   66.8230 O.co2 405  ILC405     -0.2400
@<TRIPOS>BOND
     1     7     6   ar
     2     7     1   ar
     3     6     4   ar
     4    20    19    1
     5     1     2   ar
     6    21    12    2
     7    11    19   ar
     8    11     5   ar
     9    14    22   ar
    10    14    13   ar
    11    19    10   ar
    12    22    23   ar
    13     4     5    1
    14     4     3   ar
    15    12    13    1
    16    12    18   am
    17     5     8   ar
    18     2     3   ar
    19     2    16    1
    20    13    15   ar
    21    10    18    1
    22    10     9   ar
    23     8     9   ar
    24    16    17    1
    25    23    15   ar
    26    15    24    1
    27    24    25   ar
    28    24    26   ar
