@<TRIPOS>MOLECULE
2fpv_FMN_A_1.pdb
 31 33 0 0 0
SMALL
GASTEIGER

@<TRIPOS>ATOM
      1  N1        34.9150   24.2480   52.7640 N.2   398  FMN398     -0.2890
      2  C2        35.6670   24.2430   51.6290 C.1   398  FMN398      0.3669
      3  O2        35.3110   24.6970   50.5730 O.2   398  FMN398     -0.1744
      4  N3        36.9780   23.6520   51.7040 N.2   398  FMN398     -0.2300
      5  C4        37.5150   23.0990   52.8330 C.1   398  FMN398      0.2513
      6  O4        38.6670   22.6020   52.8090 O.2   398  FMN398     -0.2057
      7  C4A       36.7040   23.1080   54.0460 C.2   398  FMN398      0.2700
      8  N5        37.1490   22.5870   55.1940 N.2   398  FMN398     -0.3878
      9  C5A       36.3390   22.6050   56.3070 C.2   398  FMN398      0.1320
     10  C6        36.7730   22.0370   57.5730 C.2   398  FMN398      0.0250
     11  C7        36.0000   22.0160   58.7090 C.2   398  FMN398     -0.0238
     12  C7M       36.4870   21.3970   60.0270 C.3   398  FMN398      0.0308
     13  C8        34.6590   22.5980   58.6630 C.2   398  FMN398     -0.0280
     14  C8M       33.7320   22.6150   59.8520 C.3   398  FMN398      0.0304
     15  C9        34.2250   23.1540   57.4640 C.2   398  FMN398     -0.0041
     16  C9A       35.0020   23.1840   56.2800 C.3   398  FMN398      0.1497
     17  N10       34.5730   23.7380   55.0410 N.pl3 398  FMN398     -0.2691
     18  C10       35.3490   23.7320   53.9120 C.2   398  FMN398      0.2416
     19  C1'       33.2200   24.3470   54.9660 C.3   398  FMN398      0.1294
     20  C2'       32.0940   23.3730   54.7050 C.3   398  FMN398      0.2044
     21  O2'       32.2540   22.7490   53.4100 O.3   398  FMN398     -0.2185
     22  C3'       30.7190   24.0870   54.6980 C.3   398  FMN398      0.2164
     23  O3'       30.6930   25.0930   53.6360 O.3   398  FMN398     -0.2175
     24  C4'       30.3800   24.8110   56.0060 C.3   398  FMN398      0.2147
     25  O4'       30.9920   24.1490   57.1440 O.3   398  FMN398     -0.2176
     26  C5'       28.9020   24.9130   56.2750 C.3   398  FMN398      0.1892
     27  O5'       28.2890   23.6280   56.4350 O.3   398  FMN398     -0.2674
     28  P         27.9600   22.9380   57.8370 P.3   398  FMN398      0.5327
     29  O1P       29.3060   22.4680   58.3820 O.3   398  FMN398     -0.1145
     30  O2P       27.0590   21.7930   57.5100 O.2   398  FMN398     -0.2224
     31  O3P       27.3230   24.0310   58.7090 O.3   398  FMN398     -0.1145
@<TRIPOS>BOND
     1     3     2    2
     2     2     4    2
     3     2     1    2
     4     4     5    2
     5     1    18    2
     6     6     5    2
     7     5     7    1
     8    21    20    1
     9    23    22    1
    10    18     7    1
    11    18    17    1
    12     7     8    2
    13    22    20    1
    14    22    24    1
    15    20    19    1
    16    19    17    1
    17    17    16    1
    18     8     9    2
    19    24    26    1
    20    24    25    1
    21    26    27    1
    22    16     9    1
    23    16    15    1
    24     9    10    1
    25    27    28    1
    26    15    13    2
    27    30    28    2
    28    10    11    2
    29    28    29    1
    30    28    31    1
    31    13    11    1
    32    13    14    1
    33    11    12    1
