@<TRIPOS>MOLECULE
2fpy_FMN_A_1.pdb
 31 33 0 0 0
SMALL
GASTEIGER

@<TRIPOS>ATOM
      1  N1        41.6980   36.0890    8.6600 N.2   398  FMN398     -0.2890
      2  C2        42.0760   35.4340    9.7950 C.1   398  FMN398      0.3669
      3  O2        41.5140   35.5200   10.8560 O.2   398  FMN398     -0.1744
      4  N3        43.2280   34.5810    9.7140 N.2   398  FMN398     -0.2300
      5  C4        43.9650   34.3840    8.5830 C.1   398  FMN398      0.2513
      6  O4        44.9510   33.6240    8.6070 O.2   398  FMN398     -0.2057
      7  C4A       43.5610   35.0900    7.3700 C.2   398  FMN398      0.2700
      8  N5        44.2320   34.9590    6.2180 N.2   398  FMN398     -0.3878
      9  C5A       43.8200   35.6620    5.1000 C.2   398  FMN398      0.1320
     10  C6        44.5280   35.5700    3.8260 C.2   398  FMN398      0.0250
     11  C7        44.1590   36.2660    2.6940 C.2   398  FMN398     -0.0238
     12  C7M       44.9210   36.1650    1.3650 C.3   398  FMN398      0.0308
     13  C8        42.9920   37.1460    2.7570 C.2   398  FMN398     -0.0280
     14  C8M       42.5080   37.9580    1.5840 C.3   398  FMN398      0.0304
     15  C9        42.3050   37.2390    3.9580 C.2   398  FMN398     -0.0041
     16  C9A       42.6600   36.5440    5.1330 C.3   398  FMN398      0.1497
     17  N10       41.9650   36.6440    6.3760 N.pl3 398  FMN398     -0.2691
     18  C10       42.3550   35.9660    7.5070 C.2   398  FMN398      0.2416
     19  C1'       40.7710   37.5230    6.4550 C.3   398  FMN398      0.1294
     20  C2'       41.0540   38.9850    6.7150 C.3   398  FMN398      0.2044
     21  O2'       41.6860   39.1490    8.0060 O.3   398  FMN398     -0.2185
     22  C3'       39.7430   39.8170    6.7280 C.3   398  FMN398      0.2164
     23  O3'       38.8570   39.3130    7.7870 O.3   398  FMN398     -0.2175
     24  C4'       38.9420   39.7570    5.4180 C.3   398  FMN398      0.2147
     25  O4'       39.8180   39.5430    4.2800 O.3   398  FMN398     -0.2176
     26  C5'       38.1230   40.9940    5.1430 C.3   398  FMN398      0.1892
     27  O5'       38.9250   42.1670    4.9750 O.3   398  FMN398     -0.2674
     28  P         39.3790   42.7790    3.5690 P.3   398  FMN398      0.5327
     29  O1P       40.4620   41.8360    3.0620 O.3   398  FMN398     -0.1145
     30  O2P       39.9210   44.1330    3.8870 O.3   398  FMN398     -0.1145
     31  O3P       38.1280   42.7660    2.6790 O.2   398  FMN398     -0.2224
@<TRIPOS>BOND
     1    12    11    1
     2    14    13    1
     3    31    28    2
     4    11    13    1
     5    11    10    2
     6    13    15    2
     7    29    28    1
     8    28    30    1
     9    28    27    1
    10    10     9    1
    11    15    16    1
    12    25    24    1
    13    27    26    1
    14     9    16    1
    15     9     8    2
    16    16    17    1
    17    26    24    1
    18    24    22    1
    19     8     7    2
    20    17    19    1
    21    17    18    1
    22    19    20    1
    23    20    22    1
    24    20    21    1
    25    22    23    1
    26     7    18    1
    27     7     5    1
    28    18     1    2
    29     5     6    2
    30     5     4    2
    31     1     2    2
    32     4     2    2
    33     2     3    2
