@<TRIPOS>MOLECULE
2fpy_ILF_A_1.pdb
 30 32 0 0 0
SMALL
GASTEIGER

@<TRIPOS>ATOM
      1  C1        55.8200   48.0740   -0.5210 C.ar  407  ILF407      0.0372
      2  C2        55.2880   48.1270   -1.8870 C.ar  407  ILF407      0.1468
      3  C8        54.2150   47.1660   -2.2320 C.ar  407  ILF407      0.0372
      4  C9        53.7050   46.2060   -1.2680 C.ar  407  ILF407      0.0032
      5  C10       52.6670   45.2380   -1.5630 C.ar  407  ILF407      0.0047
      6  C11       54.2830   46.2080    0.0760 C.ar  407  ILF407      0.0002
      7  C12       55.3250   47.1330    0.4330 C.ar  407  ILF407      0.0031
      8  C13       51.5060   45.0340   -0.6660 C.ar  407  ILF407      0.0311
      9  C14       50.5190   44.0510   -0.9620 C.ar  407  ILF407      0.1575
     10  C16       50.6400   43.2190   -2.1670 C.ar  407  ILF407      0.1283
     11  C20       52.7610   44.4050   -2.7600 C.ar  407  ILF407      0.0311
     12  C21       49.4690   41.0570   -1.6800 C.2   407  ILF407      0.2698
     13  C22       48.5050   40.0300   -1.9520 C.ar  407  ILF407      0.0683
     14  C24       48.0520   39.1930   -0.8780 C.ar  407  ILF407      0.0123
     15  C27       47.8890   39.6950   -3.2020 C.ar  407  ILF407      0.1137
     16  O3        55.6890   48.9950   -2.8940 O.3   407  ILF407     -0.4045
     17  C4        56.8620   48.5320   -3.6160 C.3   407  ILF407      0.5753
     18  F5        57.9420   48.3950   -2.8050 F     407  ILF407     -0.1328
     19  F6        56.6270   47.3350   -4.2380 F     407  ILF407     -0.1328
     20  F7        57.1580   49.4520   -4.5620 F     407  ILF407     -0.1328
     21  F15       49.4900   43.9050   -0.1060 F     407  ILF407     -0.2027
     22  N17       49.6870   42.2320   -2.4650 N.am  407  ILF407     -0.1709
     23  C18       51.7620   43.4140   -3.0560 C.ar  407  ILF407      0.1575
     24  F19       51.9050   42.6890   -4.1520 F     407  ILF407     -0.2027
     25  O23       50.1970   40.9250   -0.6440 O.2   407  ILF407     -0.2680
     26  C25       47.1190   38.2260   -1.2280 C.ar  407  ILF407      0.0358
     27  S26       46.8480   38.4090   -2.8880 S.2   407  ILF407     -0.0798
     28  C28       48.0140   40.2290   -4.5090 C.2   407  ILF407      0.3938
     29  O29       48.9270   40.9900   -4.8570 O.co2 407  ILF407     -0.2400
     30  O30       47.0860   39.8990   -5.4360 O.co2 407  ILF407     -0.2400
@<TRIPOS>BOND
     1    30    28   ar
     2    29    28   ar
     3    20    17    1
     4    28    15    1
     5    19    17    1
     6    24    23    1
     7    17    16    1
     8    17    18    1
     9    15    27   ar
    10    15    13   ar
    11    23    11   ar
    12    23    10   ar
    13    16     2    1
    14    27    26   ar
    15    11     5   ar
    16    22    10    1
    17    22    12   am
    18     3     2   ar
    19     3     4   ar
    20    10     9   ar
    21    13    12    1
    22    13    14   ar
    23     2     1   ar
    24    12    25    2
    25     5     4    1
    26     5     8   ar
    27     4     6   ar
    28    26    14   ar
    29     9     8   ar
    30     9    21    1
    31     1     7   ar
    32     6     7   ar
