@<TRIPOS>MOLECULE
2fpz_270_A_1.pdb
 10 11 0 0 0
SMALL
GASTEIGER

@<TRIPOS>ATOM
      1  N1        32.0420   20.7960   83.2330 N.2   1000  2701000    -0.3232
      2  C1        32.8570   21.5580   84.0050 C.1   1000  2701000     0.2416
      3  C2        30.8320   20.7930   83.7940 C.ar  1000  2701000     0.1754
      4  C3        29.6060   20.1670   83.4160 C.ar  1000  2701000     0.0357
      5  C4        28.4470   20.3620   84.2480 C.ar  1000  2701000     0.0028
      6  C5        28.5370   21.1730   85.4340 C.ar  1000  2701000     0.0028
      7  C6        29.7790   21.7960   85.8000 C.ar  1000  2701000     0.0357
      8  C7        30.9210   21.5940   84.9610 C.ar  1000  2701000     0.1754
      9  N3        32.1820   22.0510   85.0650 N.2   1000  2701000    -0.3232
     10  N2        34.1580   21.7870   83.7450 N.pl3 1000  2701000    -0.0232
@<TRIPOS>BOND
     1     1     3    2
     2     1     2    2
     3     4     3   ar
     4     4     5   ar
     5    10     2    1
     6     3     8   ar
     7     2     9    2
     8     5     6   ar
     9     8     9    2
    10     8     7   ar
    11     6     7   ar
