@<TRIPOS>MOLECULE
2fq0_PNS_A_1.pdb
 42 41 0 0 0
SMALL
GASTEIGER

@<TRIPOS>ATOM
      1  P24        2.2940   -3.5980  -31.7080 P.3   137  PNS137      0.3935
      2  O25        1.6350   -2.4200  -32.5910 O.3   137  PNS137     -0.1425
      3  O26        3.6960   -3.8790  -32.0870 O.3   137  PNS137     -0.1425
      4  O27        1.3100   -4.8640  -31.8690 O.3   137  PNS137     -0.3080
      5  C28        1.7740   -6.2100  -31.7250 C.3   137  PNS137      0.0644
      6  C29        0.6400   -7.2520  -31.6350 C.3   137  PNS137      0.0234
      7  C30       -0.3050   -7.0670  -32.8380 C.3   137  PNS137     -0.0549
      8  C31       -0.1370   -6.9870  -30.3290 C.3   137  PNS137     -0.0549
      9  C32        1.3000   -8.6520  -31.6090 C.3   137  PNS137      0.1380
     10  O33        2.0020   -8.9120  -32.8300 O.3   137  PNS137     -0.3820
     11  C34        0.3460   -9.8490  -31.3680 C.2   137  PNS137      0.2423
     12  O35       -0.8570   -9.7880  -31.6390 O.2   137  PNS137     -0.2730
     13  N36        0.8480  -10.9860  -30.8670 N.am  137  PNS137     -0.3127
     14  C37        2.2620  -11.2440  -30.5310 C.3   137  PNS137      0.0199
     15  C38        2.4580  -12.7520  -30.3480 C.3   137  PNS137      0.0395
     16  C39        3.9550  -13.1200  -30.2540 C.2   137  PNS137      0.2145
     17  O40        4.6470  -13.0390  -31.2690 O.2   137  PNS137     -0.2758
     18  N41        4.4660  -13.5090  -29.0780 N.am  137  PNS137     -0.3145
     19  C42        3.7510  -13.6620  -27.7940 C.3   137  PNS137      0.0204
     20  C43        4.7340  -14.0680  -26.6960 C.3   137  PNS137      0.0063
     21  S44        5.5290  -15.6940  -26.9820 S.3   137  PNS137     -0.1767
     22 H282        2.3450   -6.4330  -32.5150 H     137  PNS137      0.0571
     23 H281        2.3220   -6.2670  -30.8910 H     137  PNS137      0.0571
     24 H303       -1.0340   -7.7500  -32.7980 H     137  PNS137      0.0237
     25 H302        0.2110   -7.1800  -33.6880 H     137  PNS137      0.0237
     26 H301       -0.7050   -6.1510  -32.8110 H     137  PNS137      0.0237
     27 H313        0.4910   -7.0320  -29.5520 H     137  PNS137      0.0237
     28 H312       -0.8520   -7.6780  -30.2190 H     137  PNS137      0.0237
     29 H311       -0.5550   -6.0790  -30.3660 H     137  PNS137      0.0237
     30  H32        1.9100   -8.5960  -30.8190 H     137  PNS137      0.0696
     31  H33        2.4700   -9.7890  -32.7710 H     137  PNS137      0.2105
     32  H36        0.2580  -11.7620  -30.6710 H     137  PNS137      0.1488
     33 H372        2.8490  -10.9160  -31.2720 H     137  PNS137      0.0467
     34 H371        2.4990  -10.7700  -29.6830 H     137  PNS137      0.0467
     35 H382        1.9980  -13.0400  -29.5080 H     137  PNS137      0.0374
     36 H381        2.0540  -13.2300  -31.1290 H     137  PNS137      0.0374
     37  H41        5.4390  -13.7450  -29.0080 H     137  PNS137      0.1487
     38 H422        3.3210  -12.7930  -27.5490 H     137  PNS137      0.0470
     39 H421        3.0490  -14.3670  -27.8880 H     137  PNS137      0.0470
     40 H431        4.2390  -14.1080  -25.8280 H     137  PNS137      0.0389
     41 H432        5.4500  -13.3720  -26.6390 H     137  PNS137      0.0389
     42  H44        6.2900  -15.6660  -25.8870 H     137  PNS137      0.1017
@<TRIPOS>BOND
     1    25     7    1
     2     7    26    1
     3     7    24    1
     4     7     6    1
     5    10    31    1
     6    10     9    1
     7     2     1    1
     8    22     5    1
     9     3     1    1
    10     4     5    1
    11     4     1    1
    12     5     6    1
    13     5    23    1
    14    12    11    2
    15     6     9    1
    16     6     8    1
    17     9    11    1
    18     9    30    1
    19    11    13   am
    20    33    14    1
    21    17    16    2
    22    36    15    1
    23    13    32    1
    24    13    14    1
    25    14    15    1
    26    14    34    1
    27    29     8    1
    28    15    16    1
    29    15    35    1
    30     8    28    1
    31     8    27    1
    32    16    18   am
    33    18    37    1
    34    18    19    1
    35    39    19    1
    36    19    38    1
    37    19    20    1
    38    21    20    1
    39    21    42    1
    40    20    41    1
    41    20    40    1
