@<TRIPOS>MOLECULE
2fq2_PNS_A_1.pdb
 42 41 0 0 0
SMALL
GASTEIGER

@<TRIPOS>ATOM
      1  P24      -18.9940   10.0040   19.8940 P.3   137  PNS137      0.3935
      2  O25      -19.7480    8.8560   20.7400 O.3   137  PNS137     -0.1425
      3  O26      -18.1710   10.8920   20.7440 O.3   137  PNS137     -0.1425
      4  O27      -20.1520   10.7730   19.0800 O.3   137  PNS137     -0.3080
      5  C28      -20.0130   12.1370   18.6680 C.3   137  PNS137      0.0644
      6  C29      -21.0940   12.5970   17.6680 C.3   137  PNS137      0.0234
      7  C30      -22.4840   12.2860   18.2570 C.3   137  PNS137     -0.0549
      8  C31      -20.8990   11.7950   16.3640 C.3   137  PNS137     -0.0549
      9  C32      -20.8810   14.1100   17.4210 C.3   137  PNS137      0.1380
     10  O33      -21.0850   14.8610   18.6230 O.3   137  PNS137     -0.3820
     11  C34      -21.7700   14.7530   16.3250 C.2   137  PNS137      0.2423
     12  O35      -22.8580   14.2680   16.0030 O.2   137  PNS137     -0.2730
     13  N36      -21.3480   15.8750   15.7260 N.am  137  PNS137     -0.3127
     14  C37      -20.1010   16.6080   16.0200 C.3   137  PNS137      0.0199
     15  C38      -20.1890   18.0010   15.3890 C.3   137  PNS137      0.0395
     16  C39      -19.0400   18.9130   15.8730 C.2   137  PNS137      0.2145
     17  O40      -19.0560   19.3140   17.0370 O.2   137  PNS137     -0.2758
     18  N41      -18.0550   19.2380   15.0260 N.am  137  PNS137     -0.3145
     19  C42      -17.9180   18.8390   13.6090 C.3   137  PNS137      0.0204
     20  C43      -16.6100   19.3840   13.0370 C.3   137  PNS137      0.0063
     21  S44      -16.5200   21.2150   13.0160 S.3   137  PNS137     -0.1767
     22 H282      -20.0650   12.7190   19.4790 H     137  PNS137      0.0571
     23 H281      -19.1170   12.2460   18.2360 H     137  PNS137      0.0571
     24 H303      -23.1920   12.5970   17.6230 H     137  PNS137      0.0237
     25 H302      -22.5890   12.7580   19.1310 H     137  PNS137      0.0237
     26 H301      -22.5730   11.3000   18.3980 H     137  PNS137      0.0237
     27 H313      -19.9710   11.9370   16.0210 H     137  PNS137      0.0237
     28 H312      -21.5580   12.1050   15.6790 H     137  PNS137      0.0237
     29 H311      -21.0410   10.8220   16.5460 H     137  PNS137      0.0237
     30  H32      -19.9350   14.1520   17.0960 H     137  PNS137      0.0696
     31  H33      -20.8830   15.8220   18.4590 H     137  PNS137      0.2105
     32  H36      -21.8800   16.2950   14.9980 H     137  PNS137      0.1488
     33 H372      -19.9870   16.6940   17.0100 H     137  PNS137      0.0467
     34 H371      -19.3210   16.1140   15.6350 H     137  PNS137      0.0467
     35 H382      -20.1360   17.9120   14.3950 H     137  PNS137      0.0374
     36 H381      -21.0620   18.4180   15.6420 H     137  PNS137      0.0374
     37  H41      -17.3020   19.8260   15.3340 H     137  PNS137      0.1487
     38 H422      -17.9180   17.8410   13.5450 H     137  PNS137      0.0470
     39 H421      -18.6870   19.2070   13.0870 H     137  PNS137      0.0470
     40 H431      -16.5140   19.0530   12.0990 H     137  PNS137      0.0389
     41 H432      -15.8540   19.0380   13.5930 H     137  PNS137      0.0389
     42  H44      -15.2880   21.2830   12.5090 H     137  PNS137      0.1017
@<TRIPOS>BOND
     1    40    20    1
     2    42    21    1
     3    21    20    1
     4    20    41    1
     5    20    19    1
     6    39    19    1
     7    38    19    1
     8    19    18    1
     9    35    15    1
    10    32    13    1
    11    18    37    1
    12    18    16   am
    13    15    36    1
    14    15    16    1
    15    15    14    1
    16    34    14    1
    17    28     8    1
    18    13    14    1
    19    13    11   am
    20    16    17    2
    21    12    11    2
    22    14    33    1
    23    27     8    1
    24    11     9    1
    25     8    29    1
    26     8     6    1
    27    30     9    1
    28     9     6    1
    29     9    10    1
    30    24     7    1
    31     6     7    1
    32     6     5    1
    33    23     5    1
    34     7    26    1
    35     7    25    1
    36    31    10    1
    37     5     4    1
    38     5    22    1
    39     4     1    1
    40     1     2    1
    41     1     3    1
