@<TRIPOS>MOLECULE
2fq6_P3F_A_1.pdb
 33 34 0 0 0
SMALL
GASTEIGER

@<TRIPOS>ATOM
      1  O4        -5.1270   10.4150   46.5930 O.2   700  P3F700     -0.2224
      2  P1        -5.2470   11.4470   47.6890 P.3   700  P3F700      0.5329
      3  O2        -6.6710   11.8790   47.9980 O.3   700  P3F700     -0.1145
      4  O3        -4.2250   12.5780   47.6870 O.3   700  P3F700     -0.1145
      5  O1        -4.7970   10.5940   48.9950 O.3   700  P3F700     -0.2653
      6  C5        -5.5640    9.4520   49.4030 C.3   700  P3F700      0.1816
      7  C4        -5.3940    9.1750   50.8900 C.ar  700  P3F700      0.0275
      8  C3        -4.2730    8.4320   51.2680 C.ar  700  P3F700      0.0965
      9  N1        -4.0510    8.1090   52.5490 N.ar  700  P3F700     -0.2452
     10  C2        -4.8720    8.5140   53.5410 C.ar  700  P3F700      0.0978
     11  C1        -4.5600    8.1210   54.9800 C.3   700  P3F700      0.0555
     12  C17       -6.0120    9.2590   53.1900 C.ar  700  P3F700      0.2063
     13  O9        -6.8400    9.6580   54.1850 O.3   700  P3F700     -0.2856
     14  C6        -6.2680    9.6620   51.8630 C.ar  700  P3F700      0.0372
     15  C7        -7.5940   10.3710   51.5890 C.3   700  P3F700      0.1428
     16  N2        -8.2890   11.4700   51.5470 N.3   700  P3F700     -0.1035
     17  N3        -9.6830   11.0410   51.3780 N.am  700  P3F700     -0.1097
     18  C8       -10.7860   10.9270   52.2940 C.2   700  P3F700      0.2797
     19  O5       -11.0030   11.2870   53.4730 O.2   700  P3F700     -0.2700
     20  C9       -11.9590   10.2640   51.6270 C.3   700  P3F700      0.2031
     21  N4       -11.8030    9.5710   50.3610 N.am  700  P3F700     -0.1916
     22  C10      -12.5160    8.4250   50.0390 C.2   700  P3F700      0.2652
     23  O6       -13.3070    7.8160   50.8070 O.2   700  P3F700     -0.2684
     24  C11      -12.3430    7.8480   48.6860 C.ar  700  P3F700      0.0589
     25  C16      -12.6630    8.6460   47.5870 C.ar  700  P3F700      0.0758
     26  C18      -13.2370    9.9650   47.7660 C.3   700  P3F700      0.4187
     27  F2       -14.4590    9.8380   48.3210 F     700  P3F700     -0.1659
     28  F1       -13.3320   10.6030   46.5930 F     700  P3F700     -0.1659
     29  F3       -12.6000   10.7310   48.5900 F     700  P3F700     -0.1659
     30  C12      -11.8080    6.5840   48.4780 C.ar  700  P3F700      0.0045
     31  C13      -11.6570    6.1290   47.1500 C.ar  700  P3F700      0.0001
     32  C14      -11.9850    6.9320   46.0780 C.ar  700  P3F700     -0.0001
     33  C15      -12.5230    8.2000   46.2760 C.ar  700  P3F700      0.0040
@<TRIPOS>BOND
     1    32    33   ar
     2    32    31   ar
     3    33    25   ar
     4     1     2    2
     5    28    26    1
     6    31    30   ar
     7    25    26    1
     8    25    24   ar
     9     4     2    1
    10     2     3    1
    11     2     5    1
    12    26    27    1
    13    26    29    1
    14    30    24   ar
    15    24    22    1
    16     5     6    1
    17     6     7    1
    18    22    21   am
    19    22    23    2
    20    21    20    1
    21     7     8   ar
    22     7    14   ar
    23     8     9   ar
    24    17    16    1
    25    17    18   am
    26    16    15    1
    27    15    14    1
    28    20    18    1
    29    14    12   ar
    30    18    19    2
    31     9    10   ar
    32    12    10   ar
    33    12    13    1
    34    10    11    1
