@<TRIPOS>MOLECULE
2fq9_CRJ_A_1.pdb
 33 35 0 0 0
SMALL
GASTEIGER

@<TRIPOS>ATOM
      1  C2        14.8820    9.7350  102.9190 C.ar  999  CRJ999      0.1401
      2  C4        14.7970   10.1060  100.5110 C.ar  999  CRJ999     -0.0003
      3  C5        13.8110    9.0700  100.3710 C.ar  999  CRJ999      0.0020
      4  C6        13.3720    8.3730  101.5460 C.ar  999  CRJ999     -0.0003
      5  C1        13.9070    8.7060  102.8240 C.ar  999  CRJ999      0.0294
      6  C3        15.3240   10.4320  101.7810 C.ar  999  CRJ999      0.0294
      7  C8        13.2370    8.6880   99.0110 C.3   999  CRJ999      0.1906
      8  F7        15.4070   10.0650  104.1050 F     999  CRJ999     -0.2042
      9  N9        14.3540    8.4820   98.0470 N.3   999  CRJ999     -0.1973
     10  C10       12.2520    9.7700   98.4670 C.3   999  CRJ999      0.4157
     11  C11       14.2530    7.2900   97.1980 C.3   999  CRJ999      0.1745
     12  C12       14.7670    6.0550   97.9710 C.2   999  CRJ999      0.2592
     13  C13       14.9990    7.3970   95.8740 C.3   999  CRJ999      0.1775
     14  S14       14.2490    8.4380   94.6400 S.O2  999  CRJ999     -0.0061
     15  C15       14.6570   10.0820   95.1200 C.3   999  CRJ999      0.1759
     16  N16       13.9380    4.9560   97.7550 N.am  999  CRJ999     -0.2018
     17  O17       15.7840    6.0690   98.6560 O.2   999  CRJ999     -0.2718
     18  C18       13.7140   11.1200   94.5430 C.3   999  CRJ999      0.1391
     19  C19       14.1540   12.5620   94.7050 C.3   999  CRJ999      0.0446
     20  C20       12.8530   13.3510   94.7190 C.3   999  CRJ999      0.1237
     21  C21       11.8570   12.3630   95.2480 C.1   999  CRJ999      0.1260
     22  N22       12.3950   11.1120   95.1210 N.2   999  CRJ999     -0.2065
     23  O23       10.7620   12.6310   95.7070 O.2   999  CRJ999     -0.2270
     24  C24       14.0090    3.5550   98.2340 C.3   999  CRJ999      0.1166
     25  C25       14.1280    3.4550   99.7820 C.3   999  CRJ999      0.0279
     26  C26       13.0410    2.7430   99.0080 C.3   999  CRJ999      0.0279
     27  O27       12.8030    8.3050   94.7360 O.2   999  CRJ999     -0.1729
     28  O28       14.9420    8.1920   93.3910 O.2   999  CRJ999     -0.1729
     29  F29       12.8800   10.9310   98.1400 F     999  CRJ999     -0.1681
     30  F30       11.2990   10.0800   99.3810 F     999  CRJ999     -0.1681
     31  F31       11.6100    9.3230   97.3540 F     999  CRJ999     -0.1681
     32  N33       15.4050    1.5330   97.8020 N.2   999  CRJ999     -0.1496
     33  C32       15.0200    2.7050   97.4750 C.2   999  CRJ999      0.1150
@<TRIPOS>BOND
     1    28    14    2
     2    18    19    1
     3    18    15    1
     4    18    22    1
     5    14    27    2
     6    14    15    1
     7    14    13    1
     8    19    20    1
     9    20    21    1
    10    22    21    2
    11    21    23    2
    12    13    11    1
    13    11    12    1
    14    11     9    1
    15    31    10    1
    16    33    32    2
    17    33    24    1
    18    16    12   am
    19    16    24    1
    20    12    17    2
    21     9     7    1
    22    29    10    1
    23    24    26    1
    24    24    25    1
    25    10     7    1
    26    10    30    1
    27    26    25    1
    28     7     3    1
    29     3     2   ar
    30     3     4   ar
    31     2     6   ar
    32     4     5   ar
    33     6     1   ar
    34     5     1   ar
    35     1     8    1
