@<TRIPOS>MOLECULE
2fqi_FMN_A_1.pdb
 31 33 0 0 0
SMALL
GASTEIGER

@<TRIPOS>ATOM
      1  N1        41.6690   36.0110    8.6760 N.2   698  FMN698     -0.2890
      2  C2        42.0330   35.3750    9.8200 C.1   698  FMN698      0.3669
      3  O2        41.4500   35.4720   10.8690 O.2   698  FMN698     -0.1744
      4  N3        43.1950   34.5300    9.7630 N.2   698  FMN698     -0.2300
      5  C4        43.9530   34.3260    8.6410 C.1   698  FMN698      0.2513
      6  O4        44.9480   33.5720    8.6840 O.2   698  FMN698     -0.2057
      7  C4A       43.5560   35.0140    7.4160 C.2   698  FMN698      0.2700
      8  N5        44.2390   34.8790    6.2710 N.2   698  FMN698     -0.3878
      9  C5A       43.8280   35.5670    5.1470 C.2   698  FMN698      0.1320
     10  C6        44.5450   35.4720    3.8800 C.2   698  FMN698      0.0250
     11  C7        44.1800   36.1530    2.7400 C.2   698  FMN698     -0.0238
     12  C7M       44.9600   36.0440    1.4190 C.3   698  FMN698      0.0308
     13  C8        43.0030   37.0250    2.7850 C.2   698  FMN698     -0.0280
     14  C8M       42.5210   37.8230    1.6030 C.3   698  FMN698      0.0304
     15  C9        42.3060   37.1200    3.9810 C.2   698  FMN698     -0.0041
     16  C9A       42.6610   36.4360    5.1630 C.3   698  FMN698      0.1497
     17  N10       41.9590   36.5390    6.3980 N.pl3 698  FMN698     -0.2691
     18  C10       42.3420   35.8790    7.5340 C.2   698  FMN698      0.2416
     19  C1'       40.7560   37.4100    6.4630 C.3   698  FMN698      0.1294
     20  C2'       41.0210   38.8670    6.7510 C.3   698  FMN698      0.2044
     21  O2'       41.6230   39.0240    8.0540 O.3   698  FMN698     -0.2185
     22  C3'       39.7030   39.6920    6.7470 C.3   698  FMN698      0.2164
     23  O3'       38.8080   39.1870    7.7980 O.3   698  FMN698     -0.2175
     24  C4'       38.9280   39.6240    5.4180 C.3   698  FMN698      0.2147
     25  O4'       39.8310   39.4530    4.2960 O.3   698  FMN698     -0.2176
     26  C5'       38.0810   40.8420    5.1400 C.3   698  FMN698      0.1892
     27  O5'       38.8640   42.0300    4.9900 O.3   698  FMN698     -0.2674
     28  P         39.3220   42.6610    3.5960 P.3   698  FMN698      0.5327
     29  O1P       40.4040   41.7270    3.0740 O.3   698  FMN698     -0.1145
     30  O2P       39.8620   44.0140    3.9410 O.3   698  FMN698     -0.1145
     31  O3P       38.0690   42.6690    2.7090 O.2   698  FMN698     -0.2224
@<TRIPOS>BOND
     1    12    11    1
     2    14    13    1
     3    31    28    2
     4    11    13    1
     5    11    10    2
     6    13    15    2
     7    29    28    1
     8    28    30    1
     9    28    27    1
    10    10     9    1
    11    15    16    1
    12    25    24    1
    13    27    26    1
    14    26    24    1
    15     9    16    1
    16     9     8    2
    17    16    17    1
    18    24    22    1
    19     8     7    2
    20    17    19    1
    21    17    18    1
    22    19    20    1
    23    22    20    1
    24    22    23    1
    25    20    21    1
    26     7    18    1
    27     7     5    1
    28    18     1    2
    29     5     6    2
    30     5     4    2
    31     1     2    2
    32     4     2    2
    33     2     3    2
