@<TRIPOS>MOLECULE
2fqi_ILH_A_1.pdb
 32 34 0 0 0
SMALL
GASTEIGER

@<TRIPOS>ATOM
      1  O1        48.0130   39.6240   -5.5310 O.co2 600  ILH600     -0.2409
      2  C1        48.3360   40.1970   -4.5000 C.2   600  ILH600      0.3846
      3  O2        48.9980   41.3910   -4.6240 O.co2 600  ILH600     -0.2409
      4  C2        48.0180   39.6160   -3.1880 C.2   600  ILH600      0.0700
      5  C3        48.4920   39.9210   -1.9790 C.3   600  ILH600      0.1290
      6  C4        47.8800   39.0580   -0.9250 C.2   600  ILH600     -0.0127
      7  C5        46.9190   38.1360   -1.6440 C.2   600  ILH600     -0.0039
      8  C6        47.0220   38.5090   -3.1080 C.2   600  ILH600      0.0028
      9  C7        49.4750   40.9270   -1.5780 C.2   600  ILH600      0.2537
     10  O3        50.0480   40.7890   -0.4960 O.2   600  ILH600     -0.2723
     11  N1        49.7810   42.0520   -2.3930 N.am  600  ILH600     -0.1739
     12  C8        50.7070   43.0740   -2.1090 C.ar  600  ILH600      0.1325
     13  C9        51.8650   43.2200   -2.9470 C.ar  600  ILH600      0.1849
     14  F1        52.0550   42.4200   -3.9830 F     600  ILH600     -0.2003
     15  C10       52.8480   44.2240   -2.6720 C.ar  600  ILH600      0.1709
     16  F2        53.9060   44.3000   -3.4770 F     600  ILH600     -0.2017
     17  C11       52.6950   45.1190   -1.5390 C.ar  600  ILH600      0.0596
     18  C12       51.5090   44.9740   -0.7080 C.ar  600  ILH600      0.1709
     19  F3        51.3000   45.7590    0.3410 F     600  ILH600     -0.2017
     20  C13       50.5390   43.9660   -0.9920 C.ar  600  ILH600      0.1849
     21  F4        49.4890   43.8630   -0.1940 F     600  ILH600     -0.2003
     22  C14       53.7080   46.1090   -1.2440 C.ar  600  ILH600      0.0075
     23  C15       54.1430   47.0980   -2.1920 C.ar  600  ILH600      0.0373
     24  C16       55.1780   48.0370   -1.8360 C.ar  600  ILH600      0.1468
     25  O4        55.6010   48.9880   -2.7570 O.3   600  ILH600     -0.4045
     26  C17       56.7770   48.5590   -3.5120 C.3   600  ILH600      0.5753
     27  F5        56.5410   47.4160   -4.2260 F     600  ILH600     -0.1328
     28  F6        57.1030   49.5460   -4.3780 F     600  ILH600     -0.1328
     29  F7        57.8570   48.3640   -2.7020 F     600  ILH600     -0.1328
     30  C18       55.7730   47.9860   -0.5270 C.ar  600  ILH600      0.0372
     31  C19       55.3480   47.0110    0.4160 C.ar  600  ILH600      0.0031
     32  C20       54.3340   46.0830    0.0640 C.ar  600  ILH600      0.0003
@<TRIPOS>BOND
     1     1     2   ar
     2     3     2   ar
     3     2     4    1
     4    28    26    1
     5    27    26    1
     6    14    13    1
     7    26    25    1
     8    26    29    1
     9    16    15    1
    10     4     8    2
    11     4     5    1
    12     8     7    1
    13    13    15   ar
    14    13    12   ar
    15    25    24    1
    16    15    17   ar
    17    11    12    1
    18    11     9   am
    19    23    24   ar
    20    23    22   ar
    21    12    20   ar
    22     5     9    1
    23     5     6    1
    24    24    30   ar
    25     7     6    2
    26     9    10    2
    27    17    22    1
    28    17    18   ar
    29    22    32   ar
    30    20    18   ar
    31    20    21    1
    32    18    19    1
    33    30    31   ar
    34    32    31   ar
