@<TRIPOS>MOLECULE
2fqq_F1G_B_1.pdb
 19 20 0 0 0
SMALL
GASTEIGER

@<TRIPOS>ATOM
      1  F18       54.9700   30.5180   42.0270 F       1  F1G1       -0.1643
      2  C15       56.2270   30.1220   41.9580 C.3     1  F1G1        0.4366
      3  F16       56.8670   30.4920   43.0510 F       1  F1G1       -0.1643
      4  F17       56.8040   30.6760   40.9070 F       1  F1G1       -0.1643
      5  C12       56.2690   28.6270   41.8240 C.ar    1  F1G1        0.1740
      6  C9        55.3870   27.6670   41.3600 C.ar    1  F1G1        0.0475
      7  C10       55.9980   26.4820   41.4940 C.ar    1  F1G1        0.1088
      8  N14       57.2130   26.6080   42.0100 N.ar    1  F1G1       -0.2428
      9  C19       58.3180   25.6840   42.3740 C.3     1  F1G1        0.1543
     10  N13       57.4090   27.9970   42.2320 N.ar    1  F1G1       -0.1648
     11  S11       55.0000   25.1700   40.9460 S.2     1  F1G1       -0.0637
     12  C8        54.0320   27.5820   40.7900 C.ar    1  F1G1        0.0146
     13  C6        53.7810   26.2690   40.5550 C.ar    1  F1G1        0.0859
     14  C5        52.5170   25.8110   39.9810 C.2     1  F1G1        0.2709
     15  O7        52.5590   25.1220   38.9730 O.2     1  F1G1       -0.2678
     16  N4        51.3670   26.1530   40.5670 N.am    1  F1G1       -0.2003
     17  C3        50.1250   25.4330   40.3400 C.3     1  F1G1        0.1280
     18  C2        48.8890   26.2690   40.6500 C.3     1  F1G1        0.0921
     19  S1        47.8220   26.3510   39.1900 S.3     1  F1G1       -0.0802
@<TRIPOS>BOND
     1    15    14    2
     2    19    18    1
     3    14    13    1
     4    14    16   am
     5    17    16    1
     6    17    18    1
     7    13    12   ar
     8    13    11   ar
     9    12     6   ar
    10     4     2    1
    11    11     7   ar
    12     6     7   ar
    13     6     5   ar
    14     7     8   ar
    15     5     2    1
    16     5    10   ar
    17     2     1    1
    18     2     3    1
    19     8    10   ar
    20     8     9    1
