@<TRIPOS>MOLECULE
2fqw_NOS_A_1.pdb
 19 21 0 0 0
SMALL
GASTEIGER

@<TRIPOS>ATOM
      1  N9        33.9770   61.4890   10.3450 N.pl3 400  NOS400     -0.1435
      2  C4        34.7280   61.5340    9.2430 C.2   400  NOS400      0.3528
      3  N3        35.3520   60.5580    8.5640 N.2   400  NOS400     -0.0334
      4  C2        36.0580   60.8160    7.4740 C.3   400  NOS400      0.4017
      5  N1        36.1660   62.1330    7.0050 N.2   400  NOS400     -0.1458
      6  C6        35.5300   63.1760    7.6970 C.1   400  NOS400      0.1792
      7  O6        35.6300   64.3380    7.3000 O.2   400  NOS400     -0.2203
      8  C5        34.7970   62.8630    8.8390 C.2   400  NOS400      0.2446
      9  N7        34.0850   63.5740    9.7130 N.2   400  NOS400     -0.2054
     10  C8        33.5960   62.7350   10.6260 C.3   400  NOS400      0.3382
     11  C5'       31.3410   61.3630   13.6360 C.3   400  NOS400      0.2143
     12  O5'       31.6380   62.7050   13.2340 O.3   400  NOS400     -0.2176
     13  C4'       32.3370   60.3630   13.0370 C.3   400  NOS400      0.1851
     14  O4'       32.2640   60.4650   11.6030 O.3   400  NOS400     -0.3134
     15  C1'       33.5810   60.2460   11.0590 C.3   400  NOS400      0.3186
     16  C2'       34.5090   59.9530   12.2430 C.3   400  NOS400      0.2570
     17  O2'       34.5300   58.5400   12.4790 O.3   400  NOS400     -0.2130
     18  C3'       33.7930   60.6990   13.3670 C.3   400  NOS400      0.2186
     19  O3'       34.1720   60.0970   14.6080 O.3   400  NOS400     -0.2174
@<TRIPOS>BOND
     1     5     4    1
     2     5     6    2
     3     7     6    2
     4     4     3    1
     5     6     8    1
     6     3     2    2
     7     8     2    1
     8     8     9    2
     9     2     1    1
    10     9    10    1
    11     1    10    1
    12     1    15    1
    13    15    14    1
    14    15    16    1
    15    14    13    1
    16    16    17    1
    17    16    18    1
    18    13    18    1
    19    13    11    1
    20    12    11    1
    21    18    19    1
