@<TRIPOS>MOLECULE
2fqx_GMP_A_1.pdb
 20 22 0 0 0
SMALL
GASTEIGER

@<TRIPOS>ATOM
      1  O5'       31.4040   62.4540   13.3650 O.3   400  GMP400     -0.2176
      2  C5'       31.1240   61.0890   13.6970 C.3   400  GMP400      0.2142
      3  C4'       32.1240   60.1230   13.0500 C.3   400  GMP400      0.1828
      4  O4'       32.0410   60.2400   11.6200 O.3   400  GMP400     -0.3325
      5  C3'       33.5730   60.4900   13.3730 C.3   400  GMP400      0.2159
      6  O3'       33.9590   59.9160   14.6270 O.3   400  GMP400     -0.2175
      7  C2'       34.2890   59.7510   12.2450 C.3   400  GMP400      0.2310
      8  O2'       34.2830   58.3390   12.4800 O.3   400  GMP400     -0.2158
      9  C1'       33.3580   60.0540   11.0680 C.3   400  GMP400      0.2293
     10  N9        33.7210   61.3090   10.3680 N.pl3 400  GMP400     -0.2354
     11  C8        33.3780   62.5540   10.6980 C.3   400  GMP400      0.2246
     12  N7        33.8610   63.3990    9.7900 N.2   400  GMP400     -0.2322
     13  C5        34.5170   62.6940    8.8710 C.2   400  GMP400      0.2182
     14  C6        35.1930   63.0090    7.6970 C.1   400  GMP400      0.2372
     15  O6        35.3470   64.1750    7.3280 O.2   400  GMP400     -0.2069
     16  N1        35.7360   61.9720    6.9340 N.2   400  GMP400     -0.2485
     17  C2        35.6030   60.6420    7.3580 C.1   400  GMP400      0.2531
     18  N2        36.1220   59.6570    6.6330 N.pl3 400  GMP400     -0.0226
     19  N3        34.9520   60.3760    8.4970 N.2   400  GMP400     -0.3074
     20  C4        34.4200   61.3580    9.2410 C.2   400  GMP400      0.2300
@<TRIPOS>BOND
     1    18    17    1
     2    16    17    2
     3    16    14    2
     4    15    14    2
     5    17    19    2
     6    14    13    1
     7    19    20    2
     8    13    20    1
     9    13    12    2
    10    20    10    1
    11    12    11    1
    12    10    11    1
    13    10     9    1
    14     9     4    1
    15     9     7    1
    16     4     3    1
    17     7     8    1
    18     7     5    1
    19     3     5    1
    20     3     2    1
    21     1     2    1
    22     5     6    1
