@<TRIPOS>MOLECULE
2fqy_ADN_A_1.pdb
 19 21 0 0 0
SMALL
GASTEIGER

@<TRIPOS>ATOM
      1  O5'       31.3630   62.3670   13.1940 O.3   400  ADN400     -0.2176
      2  C5'       31.0520   61.0970   13.7430 C.3   400  ADN400      0.2143
      3  C4'       31.9130   60.0250   13.0660 C.3   400  ADN400      0.1851
      4  O4'       31.7390   60.0320   11.6080 O.3   400  ADN400     -0.3134
      5  C3'       33.4420   60.2370   13.3240 C.3   400  ADN400      0.2186
      6  O3'       33.8650   59.7290   14.6100 O.3   400  ADN400     -0.2174
      7  C2'       34.0280   59.4720   12.1150 C.3   400  ADN400      0.2570
      8  O2'       34.0090   58.0480   12.3610 O.3   400  ADN400     -0.2130
      9  C1'       33.0530   59.8380   10.9880 C.3   400  ADN400      0.3186
     10  N9        33.4930   61.0720   10.2890 N.pl3 400  ADN400     -0.1439
     11  C8        33.1090   62.3770   10.5520 C.3   400  ADN400      0.3377
     12  N7        33.6560   63.2010    9.7010 N.2   400  ADN400     -0.2095
     13  C5        34.4050   62.4900    8.8310 C.2   400  ADN400      0.2526
     14  C6        35.1950   62.8230    7.7190 C.2   400  ADN400      0.4393
     15  N6        35.3940   64.1540    7.3880 N.pl3 400  ADN400      0.2180
     16  N1        35.7570   61.8260    7.0110 N.2   400  ADN400      0.0021
     17  C2        35.6690   60.5280    7.4000 C.3   400  ADN400      0.5254
     18  N3        34.9810   60.1740    8.4660 N.2   400  ADN400     -0.0055
     19  C4        34.3200   61.1130    9.1930 C.2   400  ADN400      0.3518
@<TRIPOS>BOND
     1    16    17    1
     2    16    14    2
     3    15    14    1
     4    17    18    1
     5    14    13    1
     6    18    19    2
     7    13    19    1
     8    13    12    2
     9    19    10    1
    10    12    11    1
    11    10    11    1
    12    10     9    1
    13     9     4    1
    14     9     7    1
    15     4     3    1
    16     7     8    1
    17     7     5    1
    18     3     5    1
    19     3     2    1
    20     1     2    1
    21     5     6    1
