@<TRIPOS>MOLECULE
2fr0_NDP_A_1.pdb
 48 52 0 0 0
SMALL
GASTEIGER

@<TRIPOS>ATOM
      1  PA       -20.7780   -3.7130  -28.7160 P.3   201  NDP201      0.2189
      2  O1A      -21.1690   -3.9380  -27.3070 O.3   201  NDP201     -0.4371
      3  O2A      -21.4300   -2.5760  -29.5020 O.2   201  NDP201     -0.5170
      4  O5B      -21.1540   -5.1940  -28.9720 O.3   201  NDP201     -0.3112
      5  C5B      -21.1880   -6.1110  -29.9690 C.3   201  NDP201      0.1813
      6  C4B      -22.2560   -7.0850  -29.1600 C.3   201  NDP201      0.1820
      7  O4B      -21.3470   -8.2760  -29.4500 O.3   201  NDP201     -0.3136
      8  C3B      -23.4380   -7.9410  -28.5260 C.3   201  NDP201      0.2157
      9  O3B      -24.7580   -7.5190  -28.5460 O.3   201  NDP201     -0.2175
     10  C2B      -23.4300   -9.3360  -29.2130 C.3   201  NDP201      0.2314
     11  O2B      -24.2320   -9.4470  -30.3340 O.3   201  NDP201     -0.2630
     12  C1B      -21.9400   -9.5600  -29.1830 C.3   201  NDP201      0.3158
     13  N9A      -21.6960  -10.4880  -28.0070 N.pl3 201  NDP201     -0.1439
     14  C8A      -21.7870  -10.2450  -26.6400 C.3   201  NDP201      0.3377
     15  N7A      -21.6130  -11.3480  -25.8750 N.2   201  NDP201     -0.2095
     16  C5A      -21.4060  -12.3340  -26.7790 C.2   201  NDP201      0.2526
     17  C6A      -21.1580  -13.7510  -26.6120 C.2   201  NDP201      0.4393
     18  N6A      -21.1160  -14.3700  -25.4420 N.pl3 201  NDP201      0.2180
     19  N1A      -21.0030  -14.4640  -27.7880 N.2   201  NDP201      0.0021
     20  C2A      -21.0240  -13.8720  -28.9990 C.3   201  NDP201      0.5254
     21  N3A      -21.1280  -12.5230  -29.2450 N.2   201  NDP201     -0.0055
     22  C4A      -21.3780  -11.8060  -28.0920 C.2   201  NDP201      0.3518
     23  O3       -19.1750   -3.3010  -28.5670 O.3   201  NDP201     -0.2703
     24  PN       -17.9990   -2.9580  -29.5990 P.3   201  NDP201      0.2189
     25  O1N      -17.4170   -1.6110  -29.2710 O.3   201  NDP201     -0.4371
     26  O2N      -18.6150   -3.1240  -30.9680 O.2   201  NDP201     -0.5170
     27  O5D      -16.9080   -4.1190  -29.3610 O.3   201  NDP201     -0.3112
     28  C5D      -15.7090   -4.2780  -30.1540 C.3   201  NDP201      0.1813
     29  C4D      -14.3960   -3.8230  -29.5110 C.3   201  NDP201      0.1799
     30  O4D      -14.0280   -2.4130  -29.7470 O.3   201  NDP201     -0.3327
     31  C3D      -14.1800   -3.9820  -27.9890 C.3   201  NDP201      0.2158
     32  O3D      -14.2450   -5.3010  -27.5070 O.3   201  NDP201     -0.2175
     33  C2D      -12.8500   -3.2730  -27.8310 C.3   201  NDP201      0.2309
     34  O2D      -11.7560   -4.1520  -28.1540 O.3   201  NDP201     -0.2158
     35  C1D      -13.0210   -2.0380  -28.7820 C.3   201  NDP201      0.2263
     36  N1N      -13.2830   -0.6440  -28.0620 N.pl3 201  NDP201     -0.2787
     37  C2N      -14.4960    0.0630  -28.1600 C.3   201  NDP201      0.1244
     38  C3N      -14.6780    1.3140  -27.5050 C.2   201  NDP201      0.0544
     39  C7N      -15.9370    2.1640  -27.6410 C.2   201  NDP201      0.2818
     40  O7N      -16.0570    3.1890  -26.9670 O.2   201  NDP201     -0.2670
     41  N7N      -16.8570    1.6900  -28.4940 N.am  201  NDP201     -0.0839
     42  C4N      -13.6360    1.8170  -26.6290 C.2   201  NDP201      0.0033
     43  C5N      -12.4500    1.0520  -26.4740 C.2   201  NDP201      0.0157
     44  C6N      -12.3200   -0.1870  -27.0810 C.2   201  NDP201      0.0633
     45  P2B      -25.8160   -9.8820  -30.2630 P.3   201  NDP201      0.5328
     46  O1X      -26.6730   -8.7260  -29.6750 O.3   201  NDP201     -0.1145
     47  O2X      -26.2120  -10.2050  -31.6470 O.2   201  NDP201     -0.2224
     48  O3X      -25.8070  -11.1180  -29.3000 O.3   201  NDP201     -0.1145
@<TRIPOS>BOND
     1    47    45    2
     2    26    24    2
     3    11    45    1
     4    11    10    1
     5    45    46    1
     6    45    48    1
     7    28    29    1
     8    28    27    1
     9     5     6    1
    10     5     4    1
    11    30    29    1
    12    30    35    1
    13    24    27    1
    14    24    25    1
    15    24    23    1
    16    29    31    1
    17     3     1    2
    18     7    12    1
    19     7     6    1
    20    21    20    1
    21    21    22    2
    22    10    12    1
    23    10     8    1
    24    12    13    1
    25     6     8    1
    26    20    19    1
    27     4     1    1
    28    35    36    1
    29    35    33    1
    30     1    23    1
    31     1     2    1
    32     9     8    1
    33    41    39   am
    34    37    36    1
    35    37    38    1
    36    34    33    1
    37    22    13    1
    38    22    16    1
    39    36    44    1
    40    13    14    1
    41    31    33    1
    42    31    32    1
    43    19    17    2
    44    39    38    1
    45    39    40    2
    46    38    42    2
    47    44    43    2
    48    16    17    1
    49    16    15    2
    50    14    15    1
    51    42    43    1
    52    17    18    1
