@<TRIPOS>MOLECULE
2fr1_NDP_A_1.pdb
 48 52 0 0 0
SMALL
GASTEIGER

@<TRIPOS>ATOM
      1  PA        -3.9400   19.3270   29.7230 P.3   301  NDP301      0.2189
      2  O1A       -4.7940   18.9990   28.5450 O.2   301  NDP301     -0.5170
      3  O2A       -4.3580   20.3970   30.6890 O.3   301  NDP301     -0.4371
      4  O5B       -2.5760   19.9230   29.2500 O.3   301  NDP301     -0.3112
      5  C5B       -1.6610   20.2800   30.3170 C.3   301  NDP301      0.1813
      6  C4B       -0.6490   21.2040   29.6880 C.3   301  NDP301      0.1820
      7  O4B        0.3400   20.2780   30.5080 O.3   301  NDP301     -0.3136
      8  C3B        0.4710   22.1300   29.3840 C.3   301  NDP301      0.2157
      9  O3B       -0.0810   23.4010   29.0340 O.3   301  NDP301     -0.2175
     10  C2B        1.3810   22.2620   30.5620 C.3   301  NDP301      0.2314
     11  O2B        0.9700   23.0210   31.6340 O.3   301  NDP301     -0.2630
     12  C1B        1.7120   20.8120   30.7290 C.3   301  NDP301      0.3158
     13  N9A        2.8310   20.6210   29.7120 N.pl3 301  NDP301     -0.1439
     14  C8A        2.7570   20.5250   28.3230 C.3   301  NDP301      0.3377
     15  N7A        3.9450   20.4240   27.7220 N.2   301  NDP301     -0.2095
     16  C5A        4.8330   20.5140   28.7500 C.2   301  NDP301      0.2526
     17  C6A        6.2550   20.6290   28.7640 C.2   301  NDP301      0.4393
     18  N6A        6.9850   20.7250   27.6410 N.pl3 301  NDP301      0.2180
     19  N1A        6.8670   20.6680   29.9940 N.2   301  NDP301      0.0021
     20  C2A        6.1580   20.5670   31.1460 C.3   301  NDP301      0.5254
     21  N3A        4.7820   20.4490   31.2480 N.2   301  NDP301     -0.0055
     22  C4A        4.1570   20.5140   29.9970 C.2   301  NDP301      0.3518
     23  O3        -3.8070   17.8210   30.4690 O.3   301  NDP301     -0.2703
     24  PN        -4.3960   16.3450   30.2520 P.3   301  NDP301      0.2189
     25  O1N       -5.5210   16.4030   29.3230 O.2   301  NDP301     -0.5170
     26  O2N       -4.6480   15.8190   31.6290 O.3   301  NDP301     -0.4371
     27  O5D       -3.2670   15.2990   29.6110 O.3   301  NDP301     -0.3112
     28  C5D       -2.7670   14.0620   30.2980 C.3   301  NDP301      0.1813
     29  C4D       -2.9110   12.6640   29.6060 C.3   301  NDP301      0.1799
     30  O4D       -4.2250   11.9940   29.7370 O.3   301  NDP301     -0.3327
     31  C3D       -2.6140   12.5230   28.1020 C.3   301  NDP301      0.2158
     32  O3D       -1.2830   12.7770   27.7370 O.3   301  NDP301     -0.2175
     33  C2D       -3.1350   11.0960   27.8060 C.3   301  NDP301      0.2309
     34  O2D       -2.1250   10.1130   28.1000 O.3   301  NDP301     -0.2158
     35  C1D       -4.4010   10.9980   28.6860 C.3   301  NDP301      0.2263
     36  N1N       -5.8250   11.2300   28.0510 N.pl3 301  NDP301     -0.2787
     37  C2N       -6.1360   12.3130   27.2130 C.3   301  NDP301      0.1244
     38  C3N       -7.4270   12.6050   26.7410 C.2   301  NDP301      0.0544
     39  C7N       -7.7820   13.8880   25.9980 C.2   301  NDP301      0.2818
     40  O7N       -8.9360   14.0560   25.6010 O.2   301  NDP301     -0.2670
     41  N7N       -6.7850   14.7720   25.8260 N.am  301  NDP301     -0.0839
     42  C4N       -8.4970   11.6680   26.9800 C.2   301  NDP301      0.0033
     43  C5N       -8.2440   10.5520   27.8170 C.2   301  NDP301      0.0157
     44  C6N       -6.9670   10.3420   28.3740 C.2   301  NDP301      0.0633
     45  P2B        1.2620   24.6370   31.6290 P.3   301  NDP301      0.5328
     46  O1X        2.5100   24.9110   30.8430 O.2   301  NDP301     -0.2224
     47  O2X        0.0040   25.2160   31.0080 O.3   301  NDP301     -0.1145
     48  O3X        1.3810   24.9780   33.0790 O.3   301  NDP301     -0.1145
@<TRIPOS>BOND
     1    40    39    2
     2    41    39   am
     3    39    38    1
     4    38    42    2
     5    38    37    1
     6    42    43    1
     7    37    36    1
     8    18    17    1
     9    15    14    1
    10    15    16    2
    11    32    31    1
    12    33    34    1
    13    33    31    1
    14    33    35    1
    15    43    44    2
    16    36    44    1
    17    36    35    1
    18    31    29    1
    19    14    13    1
    20     2     1    2
    21    35    30    1
    22    16    17    1
    23    16    22    1
    24    17    19    2
    25     9     8    1
    26     4     1    1
    27     4     5    1
    28    25    24    2
    29     8     6    1
    30     8    10    1
    31    29    30    1
    32    29    28    1
    33    27    24    1
    34    27    28    1
    35     6     5    1
    36     6     7    1
    37    13    22    1
    38    13    12    1
    39     1    23    1
    40     1     3    1
    41    19    20    1
    42    22    21    2
    43    24    23    1
    44    24    26    1
    45     7    12    1
    46    10    12    1
    47    10    11    1
    48    46    45    2
    49    47    45    1
    50    20    21    1
    51    45    11    1
    52    45    48    1
