@<TRIPOS>MOLECULE
2fr3_REA_A_1.pdb
 22 22 0 0 0
SMALL
GASTEIGER

@<TRIPOS>ATOM
      1  C1        21.5640   29.4580   16.7490 C.3   300  REA300      0.0183
      2  C2        20.5180   30.1380   15.8720 C.3   300  REA300      0.0044
      3  C3        19.7450   29.1290   15.0400 C.3   300  REA300      0.0047
      4  C4        18.9460   28.2290   15.9450 C.3   300  REA300      0.0217
      5  C5        19.8690   27.5270   16.8880 C.2   300  REA300     -0.0479
      6  C6        21.0480   28.1590   17.3370 C.2   300  REA300     -0.0307
      7  C7        21.9240   27.7130   18.4160 C.2   300  REA300     -0.0052
      8  C8        21.4360   26.8960   19.4500 C.2   300  REA300     -0.0046
      9  C9        22.3530   26.3180   20.4330 C.2   300  REA300     -0.0219
     10  C10       21.7540   25.4640   21.3930 C.2   300  REA300     -0.0043
     11  C11       22.5990   24.7150   22.3030 C.2   300  REA300     -0.0006
     12  C12       21.9250   23.7730   23.1530 C.2   300  REA300     -0.0041
     13  C13       22.6630   23.1250   24.2050 C.2   300  REA300     -0.0153
     14  C14       21.9360   22.1310   24.8380 C.2   300  REA300      0.0819
     15  C15       22.4130   21.5580   26.0880 C.2   300  REA300      0.3876
     16  C16       21.8820   30.4240   17.9050 C.3   300  REA300      0.0043
     17  C17       22.8690   29.2420   16.0140 C.3   300  REA300      0.0043
     18  C18       19.5130   26.1410   17.2460 C.3   300  REA300      0.0260
     19  C19       23.8160   26.5220   20.4220 C.3   300  REA300      0.0310
     20  C20       24.0380   23.5550   24.5640 C.3   300  REA300      0.0312
     21  O1        23.5170   20.9800   26.1320 O.co2 300  REA300     -0.2406
     22  O2        21.6950   21.5950   27.0800 O.co2 300  REA300     -0.2406
@<TRIPOS>BOND
     1     3     2    1
     2     3     4    1
     3     2     1    1
     4     4     5    1
     5    17     1    1
     6     1     6    1
     7     1    16    1
     8     5    18    1
     9     5     6    2
    10     6     7    1
    11     7     8    2
    12     8     9    1
    13    19     9    1
    14     9    10    2
    15    10    11    1
    16    11    12    2
    17    12    13    1
    18    13    20    1
    19    13    14    2
    20    14    15    1
    21    15    21   ar
    22    15    22   ar
