@<TRIPOS>MOLECULE
2fr5_TYU_A_1.pdb
 17 18 0 0 0
SMALL
GASTEIGER

@<TRIPOS>ATOM
      1  O5'       14.7060    1.2910   63.3510 O.3   1001  TYU1001    -0.2176
      2  C5'       13.5940    0.6350   64.0100 C.3   1001  TYU1001     0.2142
      3  C4'       13.6790    0.5880   65.5060 C.3   1001  TYU1001     0.1829
      4  O4'       14.7470   -0.2840   65.8950 O.3   1001  TYU1001    -0.3321
      5  C1'       15.7230    0.3960   66.6910 C.3   1001  TYU1001     0.2353
      6  N1        17.0560   -0.1820   66.5380 N.am  1001  TYU1001    -0.2110
      7  C6        17.4010   -0.5970   65.1780 C.3   1001  TYU1001     0.1100
      8  C2        17.8260   -0.3770   67.6240 C.1   1001  TYU1001     0.2151
      9  O2        17.4210   -0.1690   68.7590 O.2   1001  TYU1001    -0.2062
     10  N3        19.0730   -0.8480   67.4490 N.2   1001  TYU1001    -0.1581
     11  C4        19.7370   -0.9560   66.1590 C.3   1001  TYU1001     0.2671
     12  O4        20.9850   -0.2360   66.2570 O.3   1001  TYU1001    -0.1953
     13  C5        18.8990   -0.3520   65.0300 C.3   1001  TYU1001     0.0816
     14  C2'       15.5390    1.8320   66.2960 C.3   1001  TYU1001     0.2316
     15  O2'       16.1490    2.8800   67.1000 O.3   1001  TYU1001    -0.2157
     16  C3'       14.0960    1.9110   66.0660 C.3   1001  TYU1001     0.2159
     17  O3'       13.3880    2.3000   67.2720 O.3   1001  TYU1001    -0.2175
@<TRIPOS>BOND
     1     1     2    1
     2     2     3    1
     3    13     7    1
     4    13    11    1
     5     7     6    1
     6     3     4    1
     7     3    16    1
     8     4     5    1
     9    16    14    1
    10    16    17    1
    11    11    12    1
    12    11    10    1
    13    14     5    1
    14    14    15    1
    15     6     5    1
    16     6     8   am
    17    10     8    2
    18     8     9    2
