@<TRIPOS>MOLECULE
2fr6_CTN_A_1.pdb
 17 18 0 0 0
SMALL
GASTEIGER

@<TRIPOS>ATOM
      1  O5'       14.7830    0.6490   63.4580 O.3   1001  CTN1001    -0.2176
      2  C5'       13.4660    0.4620   63.9710 C.3   1001  CTN1001     0.2142
      3  C4'       13.4410    0.6000   65.4740 C.3   1001  CTN1001     0.1829
      4  O4'       14.3510   -0.3780   66.0600 O.3   1001  CTN1001    -0.3318
      5  C1'       15.3670    0.2860   66.7970 C.3   1001  CTN1001     0.2400
      6  N1        16.6500   -0.4230   66.6440 N.am  1001  CTN1001    -0.1778
      7  C6        17.0070   -0.9490   65.4280 C.2   1001  CTN1001     0.0836
      8  C5        18.1540   -1.6290   65.2810 C.2   1001  CTN1001     0.0687
      9  C4        18.9710   -1.7720   66.4400 C.2   1001  CTN1001     0.2346
     10  N3        18.6600   -1.2540   67.6280 N.2   1001  CTN1001    -0.3024
     11  C2        17.5040   -0.5670   67.7660 C.1   1001  CTN1001     0.2756
     12  O2        17.1730   -0.0600   68.8480 O.2   1001  CTN1001    -0.1925
     13  N4        19.7830   -2.8300   66.4610 N.pl3 1001  CTN1001    -0.0921
     14  C2'       15.3890    1.7070   66.2470 C.3   1001  CTN1001     0.2319
     15  O2'       16.0140    2.5790   67.1690 O.3   1001  CTN1001    -0.2157
     16  C3'       13.8980    1.9520   66.0070 C.3   1001  CTN1001     0.2159
     17  O3'       13.2160    2.1000   67.2550 O.3   1001  CTN1001    -0.2175
@<TRIPOS>BOND
     1     1     2    1
     2     2     3    1
     3     8     7    2
     4     8     9    1
     5     7     6    1
     6     3    16    1
     7     3     4    1
     8    16    14    1
     9    16    17    1
    10     4     5    1
    11    14     5    1
    12    14    15    1
    13     9    13    1
    14     9    10    2
    15     6     5    1
    16     6    11   am
    17    10    11    2
    18    11    12    2
