@<TRIPOS>MOLECULE
2fr6_URI_B_1.pdb
 17 18 0 0 0
SMALL
GASTEIGER

@<TRIPOS>ATOM
      1  N1        32.1110   15.0860   60.6160 N.am  1002  URI1002    -0.1766
      2  C2        31.6060   14.9700   59.3100 C.1   1002  URI1002     0.2845
      3  N3        31.5410   13.7450   58.7330 N.2   1002  URI1002    -0.2452
      4  C4        31.9470   12.6640   59.4100 C.1   1002  URI1002     0.2182
      5  C5        32.4570   12.7540   60.7450 C.2   1002  URI1002     0.1242
      6  C6        32.5220   13.9730   61.3010 C.2   1002  URI1002     0.0929
      7  O2        31.0430   15.9530   58.8010 O.2   1002  URI1002    -0.1918
      8  O4        31.1440   11.5650   59.3530 O.2   1002  URI1002    -0.2085
      9  C1'       31.9690   16.3770   61.3080 C.3   1002  URI1002     0.2401
     10  C2'       30.9750   16.3240   62.4630 C.3   1002  URI1002     0.2319
     11  C3'       31.4450   17.4990   63.3190 C.3   1002  URI1002     0.2159
     12  C4'       32.9590   17.4630   63.1410 C.3   1002  URI1002     0.1829
     13  O2'       29.6520   16.4340   61.9760 O.3   1002  URI1002    -0.2157
     14  O3'       30.9290   18.7350   62.8470 O.3   1002  URI1002    -0.2175
     15  O4'       33.2020   16.7310   61.9050 O.3   1002  URI1002    -0.3318
     16  C5'       33.7090   16.7930   64.2640 C.3   1002  URI1002     0.2142
     17  O5'       32.8790   15.8280   64.8880 O.3   1002  URI1002    -0.2176
@<TRIPOS>BOND
     1     3     2    2
     2     3     4    2
     3     7     2    2
     4     2     1   am
     5     8     4    2
     6     4     5    1
     7     1     6    1
     8     1     9    1
     9     5     6    2
    10     9    15    1
    11     9    10    1
    12    15    12    1
    13    13    10    1
    14    10    11    1
    15    14    11    1
    16    12    11    1
    17    12    16    1
    18    16    17    1
