@<TRIPOS>MOLECULE
2fr7_HEM_A_1.pdb
 43 50 0 0 0
SMALL
GASTEIGER

@<TRIPOS>ATOM
      1  CHA       44.6490  -39.0450   77.7110 C.2   501  HEM501      0.0000
      2  CHB       40.6100  -39.6210   80.4180 C.2   501  HEM501      0.0000
      3  CHC       39.3710  -35.0100   79.4620 C.2   501  HEM501      0.0000
      4  CHD       43.2320  -34.5150   76.5380 C.2   501  HEM501      0.0000
      5  C1A       43.6570  -39.6030   78.5100 C.2   501  HEM501      0.0000
      6  C2A       43.6380  -40.9420   79.0220 C.2   501  HEM501      0.0000
      7  C3A       42.5200  -41.1180   79.7430 C.2   501  HEM501      0.0000
      8  C4A       41.8050  -39.8260   79.7260 C.2   501  HEM501      0.0000
      9  CMA       42.0160  -42.3620   80.5090 C.3   501  HEM501      0.0000
     10  CAA       44.7640  -42.0080   78.7780 C.3   501  HEM501      0.0000
     11  CBA       44.8650  -42.7030   77.4440 C.3   501  HEM501      0.0000
     12  CGA       46.0730  -43.7190   77.4490 C.2   501  HEM501      0.0000
     13  O1A       46.7700  -43.8570   78.4560 O.co2 501  HEM501      0.0000
     14  O2A       46.0990  -44.2500   76.3190 O.co2 501  HEM501      0.0000
     15  C1B       39.9510  -38.3950   80.4060 C.ar  501  HEM501      0.0000
     16  C2B       38.7460  -38.0790   81.2030 C.ar  501  HEM501      0.0000
     17  C3B       38.4190  -36.8260   80.9430 C.ar  501  HEM501      0.0000
     18  C4B       39.3820  -36.2990   79.9660 C.ar  501  HEM501      0.0000
     19  CMB       38.0960  -39.1240   82.1590 C.3   501  HEM501      0.0000
     20  CAB       37.2660  -35.8960   81.4800 C.2   501  HEM501      0.0000
     21  CBB       36.3430  -36.2410   82.3590 C.2   501  HEM501      0.0000
     22  C1C       40.2880  -34.4810   78.5760 C.2   501  HEM501      0.0000
     23  C2C       40.2500  -33.1340   78.0410 C.2   501  HEM501      0.0000
     24  C3C       41.3070  -33.0060   77.2240 C.2   501  HEM501      0.0000
     25  C4C       42.0310  -34.2850   77.2340 C.2   501  HEM501      0.0000
     26  CMC       39.1640  -32.0570   78.3830 C.3   501  HEM501      0.0000
     27  CAC       41.7830  -31.7590   76.3800 C.2   501  HEM501      0.0000
     28  CBC       42.2130  -30.7170   77.0730 C.2   501  HEM501      0.0000
     29  C1D       43.9450  -35.6990   76.6350 C.ar  501  HEM501      0.0000
     30  C2D       45.2200  -35.9600   75.9510 C.ar  501  HEM501      0.0000
     31  C3D       45.5940  -37.1960   76.3020 C.ar  501  HEM501      0.0000
     32  C4D       44.5980  -37.7790   77.1810 C.ar  501  HEM501      0.0000
     33  CMD       45.9470  -34.9500   75.0170 C.3   501  HEM501      0.0000
     34  CAD       46.8750  -37.9540   75.8710 C.3   501  HEM501      0.0000
     35  CBD       48.0210  -37.7840   76.8090 C.3   501  HEM501      0.0000
     36  CGD       49.3570  -38.5510   76.4300 C.2   501  HEM501      0.0000
     37  O1D       49.1430  -39.4590   75.6650 O.co2 501  HEM501      0.0000
     38  O2D       50.3560  -38.0840   76.9990 O.co2 501  HEM501      0.0000
     39  NA        42.5560  -38.9140   78.9600 N.2   501  HEM501      0.0000
     40  NB        40.3010  -37.3300   79.6310 N.ar  501  HEM501      0.0000
     41  NC        41.4130  -35.1570   78.0770 N.2   501  HEM501      0.0000
     42  ND        43.6240  -36.8250   77.3510 N.ar  501  HEM501      0.0000
     43 FE         42.1200  -36.9470   78.7750 Fe    501  HEM501      0.0000
@<TRIPOS>BOND
     1    33    30    1
     2    37    36   ar
     3    34    31    1
     4    34    35    1
     5    30    31   ar
     6    30    29   ar
     7    31    32   ar
     8    14    12   ar
     9    27    28    2
    10    27    24    1
    11    36    35    1
    12    36    38   ar
    13     4    29    2
    14     4    25    1
    15    29    42   ar
    16    32    42   ar
    17    32     1    2
    18    24    25    1
    19    24    23    2
    20    25    41    2
    21    42    43    1
    22    11    12    1
    23    11    10    1
    24    12    13   ar
    25     1     5    1
    26    23    26    1
    27    23    22    1
    28    41    22    1
    29    41    43    1
    30     5    39    2
    31     5     6    1
    32    22     3    2
    33    43    39    1
    34    43    40    1
    35    10     6    1
    36    39     8    1
    37     6     7    2
    38     3    18    1
    39    40    18   ar
    40    40    15   ar
    41     8     7    1
    42     8     2    2
    43     7     9    1
    44    18    17   ar
    45    15     2    1
    46    15    16   ar
    47    17    16   ar
    48    17    20    1
    49    16    19    1
    50    20    21    2
