@<TRIPOS>MOLECULE
2fr8_NAP_C_1.pdb
 48 52 0 0 0
SMALL
GASTEIGER

@<TRIPOS>ATOM
      1  PA        18.0100   78.5880   43.3680 P.3   400  NAP400      0.2189
      2  O1A       19.4120   78.9910   43.1480 O.3   400  NAP400     -0.4371
      3  O2A       17.6730   77.4100   42.5610 O.2   400  NAP400     -0.5170
      4  O5B       17.7390   78.2940   44.9220 O.3   400  NAP400     -0.3112
      5  C5B       17.2700   77.0270   45.3190 C.3   400  NAP400      0.1813
      6  C4B       17.1200   77.0170   46.8340 C.3   400  NAP400      0.1820
      7  O4B       16.2210   76.0030   47.2450 O.3   400  NAP400     -0.3136
      8  C3B       18.4570   76.7510   47.5180 C.3   400  NAP400      0.2157
      9  O3B       18.8760   77.8660   48.2660 O.3   400  NAP400     -0.2175
     10  C2B       18.2350   75.5380   48.3990 C.3   400  NAP400      0.2314
     11  O2B       18.7320   75.7650   49.7020 O.3   400  NAP400     -0.2630
     12  C1B       16.7240   75.3090   48.3730 C.3   400  NAP400      0.3158
     13  N9A       16.3680   73.8680   48.3430 N.pl3 400  NAP400     -0.1439
     14  C8A       16.9360   72.8450   47.6180 C.3   400  NAP400      0.3377
     15  N7A       16.2940   71.6840   47.9080 N.2   400  NAP400     -0.2095
     16  C5A       15.3210   71.9460   48.8080 C.2   400  NAP400      0.2526
     17  C6A       14.3710   71.1480   49.4480 C.2   400  NAP400      0.4393
     18  N6A       14.4040   69.8150   49.3380 N.pl3 400  NAP400      0.2180
     19  N1A       13.4980   71.7450   50.3380 N.2   400  NAP400      0.0021
     20  C2A       13.5550   73.1010   50.5960 C.3   400  NAP400      0.5254
     21  N3A       14.4980   73.8740   49.9590 N.2   400  NAP400     -0.0055
     22  C4A       15.3610   73.3090   49.0840 C.2   400  NAP400      0.3518
     23  O3        17.0730   79.8440   43.0290 O.3   400  NAP400     -0.2703
     24  PN        15.7040   79.7260   42.1860 P.3   400  NAP400      0.2189
     25  O1N       14.8120   80.7890   42.6910 O.3   400  NAP400     -0.4371
     26  O2N       15.1940   78.3430   42.1890 O.2   400  NAP400     -0.5170
     27  O5D       16.2190   80.1280   40.7110 O.3   400  NAP400     -0.3112
     28  C5D       16.9310   79.2360   39.8770 C.3   400  NAP400      0.1813
     29  C4D       18.4170   79.5680   39.7220 C.3   400  NAP400      0.1799
     30  O4D       19.0000   78.6060   38.8510 O.3   400  NAP400     -0.3327
     31  C3D       18.7080   80.9320   39.1130 C.3   400  NAP400      0.2158
     32  O3D       19.7900   81.5470   39.7710 O.3   400  NAP400     -0.2175
     33  C2D       19.1240   80.6570   37.6920 C.3   400  NAP400      0.2309
     34  O2D       20.1270   81.5410   37.2490 O.3   400  NAP400     -0.2158
     35  C1D       19.6330   79.2250   37.7440 C.3   400  NAP400      0.2263
     36  N1N       19.3890   78.5810   36.4340 N.pl3 400  NAP400     -0.2787
     37  C2N       18.1100   78.4680   35.9630 C.3   400  NAP400      0.1244
     38  C3N       17.8400   77.8940   34.7160 C.2   400  NAP400      0.0544
     39  C7N       16.4190   77.8840   34.2030 C.2   400  NAP400      0.2818
     40  O7N       16.2010   77.7440   32.8220 O.2   400  NAP400     -0.2670
     41  N7N       15.3650   77.9920   35.0140 N.am  400  NAP400     -0.0839
     42  C4N       18.9150   77.4250   33.9410 C.2   400  NAP400      0.0033
     43  C5N       20.2290   77.5570   34.4360 C.2   400  NAP400      0.0157
     44  C6N       20.4520   78.1400   35.6880 C.2   400  NAP400      0.0633
     45  P2B       18.7780   74.5870   50.7990 P.3   400  NAP400      0.5328
     46  O1X       19.6330   75.0290   51.9660 O.3   400  NAP400     -0.1145
     47  O2X       17.3600   74.3400   51.2710 O.3   400  NAP400     -0.1145
     48  O3X       19.3640   73.3270   50.2010 O.2   400  NAP400     -0.2224
@<TRIPOS>BOND
     1    40    39    2
     2    42    43    1
     3    42    38    2
     4    39    38    1
     5    39    41   am
     6    43    44    2
     7    38    37    1
     8    44    36    1
     9    37    36    1
    10    36    35    1
    11    34    33    1
    12    33    35    1
    13    33    31    1
    14    35    30    1
    15    30    29    1
    16    31    29    1
    17    31    32    1
    18    29    28    1
    19    28    27    1
    20    27    24    1
    21    24    26    2
    22    24    25    1
    23    24    23    1
    24     3     1    2
    25    23     1    1
    26     2     1    1
    27     1     4    1
    28     4     5    1
    29     5     6    1
    30     6     7    1
    31     6     8    1
    32     7    12    1
    33     8     9    1
    34     8    10    1
    35    14    15    1
    36    14    13    1
    37    15    16    2
    38    13    12    1
    39    13    22    1
    40    12    10    1
    41    10    11    1
    42    16    22    1
    43    16    17    1
    44    22    21    2
    45    18    17    1
    46    17    19    2
    47    11    45    1
    48    21    20    1
    49    48    45    2
    50    19    20    1
    51    45    47    1
    52    45    46    1
