@<TRIPOS>MOLECULE
2fr8_NAD_A_1.pdb
 27 29 0 0 0
SMALL
GASTEIGER

@<TRIPOS>ATOM
      1  PA       -21.8020   59.7310   21.7260 P.3   500  NAD500      0.2231
      2  O1A      -20.4250   59.3240   21.3500 O.3   500  NAD500     -0.4370
      3  O2A      -22.8170   59.0800   20.8560 O.2   500  NAD500     -0.5169
      4  O5B      -21.9520   61.3340   21.6290 O.3   500  NAD500     -0.3111
      5  C5B      -20.8540   62.1900   21.8410 C.3   500  NAD500      0.1813
      6  C4B      -21.2800   63.5070   22.4860 C.3   500  NAD500      0.1821
      7  O4B      -21.7230   64.4630   21.5350 O.3   500  NAD500     -0.3135
      8  C3B      -22.3850   63.4120   23.5440 C.3   500  NAD500      0.2184
      9  O3B      -21.9020   63.8310   24.8080 O.3   500  NAD500     -0.2174
     10  C2B      -23.4560   64.3650   23.0530 C.3   500  NAD500      0.2570
     11  O2B      -24.1070   65.0320   24.1110 O.3   500  NAD500     -0.2130
     12  C1B      -22.6480   65.3180   22.1850 C.3   500  NAD500      0.3186
     13  N9A      -23.4500   66.1330   21.2390 N.pl3 500  NAD500     -0.1439
     14  C8A      -24.3880   65.7070   20.3340 C.3   500  NAD500      0.3377
     15  N7A      -24.8690   66.7940   19.6710 N.2   500  NAD500     -0.2095
     16  C5A      -24.2560   67.9140   20.1290 C.2   500  NAD500      0.2526
     17  C6A      -24.3490   69.2840   19.8170 C.2   500  NAD500      0.4393
     18  N6A      -25.1690   69.7560   18.8820 N.pl3 500  NAD500      0.2180
     19  N1A      -23.5570   70.1950   20.4920 N.2   500  NAD500      0.0021
     20  C2A      -22.6820   69.7600   21.4580 C.3   500  NAD500      0.5254
     21  N3A      -22.5990   68.4150   21.7590 N.2   500  NAD500     -0.0055
     22  C4A      -23.3640   67.5020   21.1130 C.2   500  NAD500      0.3518
     23  O3       -22.0990   59.3970   23.2750 O.3   500  NAD500     -0.2261
     24  PN       -21.0580   58.5720   24.1850 P.3   500  NAD500      0.5373
     25  O1N      -19.8280   59.3880   24.2850 O.3   500  NAD500     -0.1143
     26  O2N      -20.9970   57.1710   23.7020 O.2   500  NAD500     -0.2221
     27  O5D      -21.7800   58.5760   25.6260 O.3   500  NAD500     -0.1143
@<TRIPOS>BOND
     1    18    17    1
     2    15    16    2
     3    15    14    1
     4    17    16    1
     5    17    19    2
     6    16    22    1
     7    14    13    1
     8    19    20    1
     9     3     1    2
    10    22    13    1
    11    22    21    2
    12    13    12    1
    13     2     1    1
    14    20    21    1
    15     7    12    1
    16     7     6    1
    17     4     1    1
    18     4     5    1
    19     1    23    1
    20     5     6    1
    21    12    10    1
    22     6     8    1
    23    10     8    1
    24    10    11    1
    25    23    24    1
    26     8     9    1
    27    26    24    2
    28    24    25    1
    29    24    27    1
