@<TRIPOS>MOLECULE
2fra_CRV_A_1.pdb
 33 35 0 0 0
SMALL
GASTEIGER

@<TRIPOS>ATOM
      1  C1        50.9880   25.1820  124.1930 C.3   999  CRV999      0.4157
      2  C2        49.9410   24.2150  124.8430 C.3   999  CRV999      0.1906
      3  N3        50.4900   22.8840  125.2760 N.3   999  CRV999     -0.1973
      4  C4        49.2520   24.8310  126.0390 C.ar  999  CRV999      0.0020
      5  F5        52.0620   25.4140  125.0040 F     999  CRV999     -0.1681
      6  F6        51.4670   24.6500  123.0290 F     999  CRV999     -0.1681
      7  F7        50.4430   26.3940  123.8570 F     999  CRV999     -0.1681
      8  C8        50.6150   21.7630  124.2850 C.3   999  CRV999      0.1746
      9  C9        49.3060   21.2220  124.0210 C.2   999  CRV999      0.2592
     10  C10       51.6120   20.6760  124.7690 C.3   999  CRV999      0.1778
     11  S11       53.3330   21.1760  124.9030 S.O2  999  CRV999     -0.0039
     12  C12       53.4520   22.1750  126.4130 C.3   999  CRV999      0.1772
     13  N13       48.9770   20.8390  122.7950 N.am  999  CRV999     -0.2018
     14  O14       48.5040   21.0930  124.9450 O.2   999  CRV999     -0.2718
     15  C15       47.7300   20.2540  122.4050 C.3   999  CRV999      0.1166
     16  N17       46.5530   18.1230  122.1030 N.2   999  CRV999     -0.1496
     17  C18       47.3180   20.8750  121.0530 C.3   999  CRV999      0.0279
     18  C19       46.5360   21.2090  122.1290 C.3   999  CRV999      0.0279
     19  C20       47.8900   25.2880  125.9200 C.ar  999  CRV999      0.0006
     20  C21       47.2060   25.8810  127.0210 C.ar  999  CRV999      0.0418
     21  C22       47.8680   26.0340  128.2750 C.ar  999  CRV999      0.1957
     22  C23       49.2190   25.5900  128.4280 C.ar  999  CRV999      0.0418
     23  C24       49.9090   24.9920  127.3230 C.ar  999  CRV999      0.0006
     24  O25       47.2230   26.5980  129.3120 O.3   999  CRV999     -0.2866
     25  C26       54.7530   22.8770  126.5900 C.ar  999  CRV999      0.0013
     26  C27       55.7580   22.3180  127.4580 C.ar  999  CRV999     -0.0026
     27  C28       57.0040   22.9820  127.6510 C.ar  999  CRV999     -0.0003
     28  C29       57.2680   24.2180  126.9800 C.ar  999  CRV999     -0.0000
     29  C30       56.2840   24.7900  126.1090 C.ar  999  CRV999     -0.0003
     30  C31       55.0320   24.1260  125.9160 C.ar  999  CRV999     -0.0026
     31  O32       53.7450   22.0780  123.6710 O.2   999  CRV999     -0.1726
     32  O33       54.2810   19.9150  125.0080 O.2   999  CRV999     -0.1726
     33  C16       47.6280   18.7710  122.3070 C.2   999  CRV999      0.1150
@<TRIPOS>BOND
     1    17    18    1
     2    17    15    1
     3    16    33    2
     4    18    15    1
     5    33    15    1
     6    15    13    1
     7    13     9   am
     8     6     1    1
     9    31    11    2
    10     7     1    1
    11     9     8    1
    12     9    14    2
    13     1     2    1
    14     1     5    1
    15     8    10    1
    16     8     3    1
    17    10    11    1
    18     2     3    1
    19     2     4    1
    20    11    32    2
    21    11    12    1
    22    30    29   ar
    23    30    25   ar
    24    19     4   ar
    25    19    20   ar
    26     4    23   ar
    27    29    28   ar
    28    12    25    1
    29    25    26   ar
    30    28    27   ar
    31    20    21   ar
    32    23    22   ar
    33    26    27   ar
    34    21    22   ar
    35    21    24    1
