@<TRIPOS>MOLECULE
2frd_NAD_A_1.pdb
 44 48 0 0 0
SMALL
GASTEIGER

@<TRIPOS>ATOM
      1  PA        -7.7190    6.4160   26.8630 P.3   500  NAD500      0.2189
      2  O1A       -6.9600    5.2840   27.4450 O.3   500  NAD500     -0.4371
      3  O2A       -7.2640    7.7170   27.4120 O.2   500  NAD500     -0.5170
      4  O5B       -9.2940    6.2150   27.1210 O.3   500  NAD500     -0.3112
      5  C5B       -9.9500    5.0970   26.5680 C.3   500  NAD500      0.1813
      6  C4B      -11.1040    5.4780   25.6390 C.3   500  NAD500      0.1821
      7  O4B      -12.2340    5.7990   26.4200 O.3   500  NAD500     -0.3135
      8  C3B      -10.8840    6.6600   24.7010 C.3   500  NAD500      0.2184
      9  O3B      -10.8950    6.2050   23.3750 O.3   500  NAD500     -0.2174
     10  C2B      -12.0490    7.5960   24.9260 C.3   500  NAD500      0.2570
     11  O2B      -12.6700    7.9400   23.7120 O.3   500  NAD500     -0.2130
     12  C1B      -13.0000    6.8190   25.8200 C.3   500  NAD500      0.3186
     13  N9A      -13.6390    7.6290   26.8800 N.pl3 500  NAD500     -0.1439
     14  C8A      -13.0350    8.4320   27.8180 C.3   500  NAD500      0.3377
     15  N7A      -13.9940    8.9760   28.6070 N.2   500  NAD500     -0.2095
     16  C5A      -15.2040    8.5200   28.1990 C.2   500  NAD500      0.2526
     17  C6A      -16.5120    8.7370   28.6450 C.2   500  NAD500      0.4393
     18  N6A      -16.7400    9.4820   29.7220 N.pl3 500  NAD500      0.2180
     19  N1A      -17.5690    8.1090   28.0040 N.2   500  NAD500      0.0021
     20  C2A      -17.3260    7.2710   26.9300 C.3   500  NAD500      0.5254
     21  N3A      -16.0310    7.0610   26.4990 N.2   500  NAD500     -0.0055
     22  C4A      -14.9890    7.6700   27.1190 C.2   500  NAD500      0.3518
     23  O3        -7.6530    6.4030   25.2500 O.3   500  NAD500     -0.2703
     24  PN        -6.6880    5.4570   24.3710 P.3   500  NAD500      0.2189
     25  O1N       -7.3310    4.1470   24.1520 O.2   500  NAD500     -0.5170
     26  O2N       -5.3160    5.5110   24.9200 O.3   500  NAD500     -0.4371
     27  O5D       -6.7100    6.2550   22.9780 O.3   500  NAD500     -0.3112
     28  C5D       -7.9180    6.5970   22.3400 C.3   500  NAD500      0.1813
     29  C4D       -7.6220    6.9500   20.8890 C.3   500  NAD500      0.1799
     30  O4D       -6.4040    7.6710   20.8190 O.3   500  NAD500     -0.3327
     31  C3D       -7.4740    5.7110   20.0120 C.3   500  NAD500      0.2158
     32  O3D       -8.5890    5.5400   19.1630 O.3   500  NAD500     -0.2175
     33  C2D       -6.2030    5.9340   19.2140 C.3   500  NAD500      0.2309
     34  O2D       -6.4690    6.0220   17.8330 O.3   500  NAD500     -0.2158
     35  C1D       -5.6130    7.2440   19.7250 C.3   500  NAD500      0.2263
     36  N1N       -4.1980    7.0350   20.1060 N.pl3 500  NAD500     -0.2787
     37  C2N       -3.2100    7.6440   19.3740 C.3   500  NAD500      0.1244
     38  C3N       -1.8690    7.4550   19.7060 C.2   500  NAD500      0.0544
     39  C7N       -0.8020    8.0780   18.8440 C.2   500  NAD500      0.2818
     40  O7N       -1.0960    8.4000   17.5010 O.2   500  NAD500     -0.2670
     41  N7N        0.4060    8.3230   19.3440 N.am  500  NAD500     -0.0839
     42  C4N       -1.5460    6.6350   20.7880 C.2   500  NAD500      0.0033
     43  C5N       -2.5530    6.0190   21.5210 C.2   500  NAD500      0.0157
     44  C6N       -3.8810    6.2280   21.1690 C.2   500  NAD500      0.0633
@<TRIPOS>BOND
     1    40    39    2
     2    34    33    1
     3    39    41   am
     4    39    38    1
     5    32    31    1
     6    33    35    1
     7    33    31    1
     8    37    38    1
     9    37    36    1
    10    38    42    2
    11    35    36    1
    12    35    30    1
    13    31    29    1
    14    36    44    1
    15    42    43    1
    16    30    29    1
    17    29    28    1
    18    44    43    2
    19    28    27    1
    20    27    24    1
    21     9     8    1
    22    11    10    1
    23    25    24    2
    24    24    26    1
    25    24    23    1
    26     8    10    1
    27     8     6    1
    28    10    12    1
    29    23     1    1
    30     6     7    1
    31     6     5    1
    32    12     7    1
    33    12    13    1
    34    21    20    1
    35    21    22    2
    36     5     4    1
    37     1     4    1
    38     1     3    2
    39     1     2    1
    40    13    22    1
    41    13    14    1
    42    20    19    1
    43    22    16    1
    44    14    15    1
    45    19    17    2
    46    16    15    2
    47    16    17    1
    48    17    18    1
