@<TRIPOS>MOLECULE
2frd_NAP_C_1.pdb
 48 52 0 0 0
SMALL
GASTEIGER

@<TRIPOS>ATOM
      1  PA       -24.7090  -36.6390    7.8660 P.3   300  NAP300      0.2189
      2  O1A      -25.3400  -37.6670    7.0250 O.2   300  NAP300     -0.5170
      3  O2A      -24.5460  -37.1740    9.2290 O.3   300  NAP300     -0.4371
      4  O5B      -23.2740  -36.2260    7.2720 O.3   300  NAP300     -0.3112
      5  C5B      -22.5450  -37.0730    6.4190 C.3   300  NAP300      0.1813
      6  C4B      -22.8950  -36.7350    4.9740 C.3   300  NAP300      0.1820
      7  O4B      -22.0880  -35.6650    4.4970 O.3   300  NAP300     -0.3136
      8  C3B      -22.6810  -37.9370    4.0620 C.3   300  NAP300      0.2157
      9  O3B      -23.8800  -38.2860    3.4010 O.3   300  NAP300     -0.2175
     10  C2B      -21.5990  -37.4910    3.1020 C.3   300  NAP300      0.2314
     11  O2B      -21.8770  -37.9280    1.7930 O.3   300  NAP300     -0.2630
     12  C1B      -21.5720  -35.9670    3.2130 C.3   300  NAP300      0.3158
     13  N9A      -20.2090  -35.4270    2.9900 N.pl3 300  NAP300     -0.1439
     14  C8A      -19.0260  -35.8580    3.5370 C.3   300  NAP300      0.3377
     15  N7A      -18.0170  -35.0980    3.0560 N.2   300  NAP300     -0.2095
     16  C5A      -18.5290  -34.1840    2.2080 C.2   300  NAP300      0.2526
     17  C6A      -17.9410  -33.1750    1.4580 C.2   300  NAP300      0.4393
     18  N6A      -16.6190  -33.1100    1.3650 N.pl3 300  NAP300      0.2180
     19  N1A      -18.7290  -32.3730    0.6610 N.2   300  NAP300      0.0021
     20  C2A      -20.0930  -32.5830    0.6180 C.3   300  NAP300      0.5254
     21  N3A      -20.6680  -33.5850    1.3730 N.2   300  NAP300     -0.0055
     22  C4A      -19.9010  -34.3810    2.1540 C.2   300  NAP300      0.3518
     23  O3       -25.5710  -35.2710    7.7630 O.3   300  NAP300     -0.2703
     24  PN       -25.8320  -34.2770    9.0100 P.3   300  NAP300      0.2189
     25  O1N      -26.7580  -33.2240    8.5480 O.2   300  NAP300     -0.5170
     26  O2N      -24.5390  -33.8560    9.5850 O.3   300  NAP300     -0.4371
     27  O5D      -26.5840  -35.2500   10.0610 O.3   300  NAP300     -0.3112
     28  C5D      -26.3420  -35.2570   11.4570 C.3   300  NAP300      0.1813
     29  C4D      -26.1670  -36.6920   11.9650 C.3   300  NAP300      0.1799
     30  O4D      -25.0400  -36.7550   12.8250 O.3   300  NAP300     -0.3327
     31  C3D      -27.3560  -37.2380   12.7520 C.3   300  NAP300      0.2158
     32  O3D      -27.7070  -38.5270   12.2990 O.3   300  NAP300     -0.2175
     33  C2D      -26.8760  -37.3270   14.1790 C.3   300  NAP300      0.2309
     34  O2D      -27.4250  -38.4360   14.8490 O.3   300  NAP300     -0.2158
     35  C1D      -25.3750  -37.4720   14.0020 C.3   300  NAP300      0.2263
     36  N1N      -24.6650  -36.9970   15.2010 N.pl3 300  NAP300     -0.2787
     37  C2N      -24.6100  -35.6630   15.4620 C.3   300  NAP300      0.1244
     38  C3N      -23.9510  -35.1880   16.5870 C.2   300  NAP300      0.0544
     39  C7N      -24.0030  -33.7370   16.9630 C.2   300  NAP300      0.2818
     40  O7N      -23.8200  -33.4050   18.3190 O.2   300  NAP300     -0.2670
     41  N7N      -24.2070  -32.7800   16.0530 N.am  300  NAP300     -0.0839
     42  C4N      -23.3500  -36.0980   17.4520 C.2   300  NAP300      0.0033
     43  C5N      -23.4130  -37.4580   17.1770 C.2   300  NAP300      0.0157
     44  C6N      -24.0790  -37.9000   16.0430 C.2   300  NAP300      0.0633
     45  P2B      -20.7010  -38.4220    0.8150 P.3   300  NAP300      0.5328
     46  O1X      -21.3450  -38.9160   -0.4530 O.2   300  NAP300     -0.2224
     47  O2X      -19.8280  -37.2370    0.4880 O.3   300  NAP300     -0.1145
     48  O3X      -19.9030  -39.5320    1.4590 O.3   300  NAP300     -0.1145
@<TRIPOS>BOND
     1    46    45    2
     2    47    45    1
     3    20    19    1
     4    20    21    1
     5    19    17    2
     6    45    48    1
     7    45    11    1
     8    18    17    1
     9    21    22    2
    10    17    16    1
    11    11    10    1
    12    22    16    1
    13    22    13    1
    14    16    15    2
    15    13    12    1
    16    13    14    1
    17    15    14    1
    18    10    12    1
    19    10     8    1
    20    12     7    1
    21     9     8    1
    22     8     6    1
    23     7     6    1
    24     6     5    1
    25     5     4    1
    26     2     1    2
    27     4     1    1
    28    23     1    1
    29    23    24    1
    30     1     3    1
    31    25    24    2
    32    24    26    1
    33    24    27    1
    34    27    28    1
    35    28    29    1
    36    29    31    1
    37    29    30    1
    38    32    31    1
    39    31    33    1
    40    30    35    1
    41    35    33    1
    42    35    36    1
    43    33    34    1
    44    36    37    1
    45    36    44    1
    46    37    38    1
    47    44    43    2
    48    41    39   am
    49    38    39    1
    50    38    42    2
    51    39    40    2
    52    43    42    1
