@<TRIPOS>MOLECULE
2fre_FMN_A_1.pdb
 31 33 0 0 0
SMALL
GASTEIGER

@<TRIPOS>ATOM
      1  N1        27.0310   12.2680   54.5680 N.2   1151  FMN1151    -0.2887
      2  C2        27.1360   11.4050   55.6580 C.1   1151  FMN1151     0.3669
      3  O2        26.7590   11.7730   56.7760 O.2   1151  FMN1151    -0.1744
      4  N3        27.6810   10.1420   55.5070 N.2   1151  FMN1151    -0.2300
      5  C4        28.1150    9.6880   54.2910 C.1   1151  FMN1151     0.2513
      6  O4        28.3850    8.4780   54.1520 O.2   1151  FMN1151    -0.2057
      7  C4A       28.0040   10.5630   53.1890 C.2   1151  FMN1151     0.2703
      8  N5        28.4320   10.1530   51.9380 N.2   1151  FMN1151    -0.3885
      9  C5A       28.2470   10.9940   50.8530 C.2   1151  FMN1151     0.1233
     10  C6        28.6430   10.5620   49.5990 C.3   1151  FMN1151     0.0606
     11  C7        28.4690   11.3670   48.4920 C.3   1151  FMN1151     0.0111
     12  C7M       28.4350   10.6450   47.1730 C.3   1151  FMN1151     0.0008
     13  C8        27.9110   12.6430   48.6230 C.3   1151  FMN1151     0.0238
     14  C8M       27.2130   13.2920   47.4510 C.3   1151  FMN1151     0.0047
     15  C9        27.5130   13.0870   49.8770 C.2   1151  FMN1151    -0.0093
     16  C9A       27.7030   12.2650   51.0040 C.2   1151  FMN1151     0.0750
     17  N10       27.3260   12.7050   52.2550 N.pl3 1151  FMN1151    -0.2548
     18  C10       27.4590   11.8440   53.3380 C.2   1151  FMN1151     0.2449
     19  C1'       26.8220   14.1090   52.4780 C.3   1151  FMN1151     0.1336
     20  C2'       27.8230   15.2140   52.1480 C.3   1151  FMN1151     0.2048
     21  O2'       28.7640   15.4180   53.1960 O.3   1151  FMN1151    -0.2185
     22  C3'       27.0760   16.5040   51.8190 C.3   1151  FMN1151     0.2165
     23  O3'       26.3060   16.3220   50.6370 O.3   1151  FMN1151    -0.2175
     24  C4'       28.0390   17.6770   51.6810 C.3   1151  FMN1151     0.2147
     25  O4'       28.6580   17.9590   52.9250 O.3   1151  FMN1151    -0.2176
     26  C5'       27.3760   18.9470   51.1600 C.3   1151  FMN1151     0.1892
     27  O5'       26.3430   19.3760   52.0330 O.3   1151  FMN1151    -0.2674
     28  P         24.8390   19.5910   51.5030 P.3   1151  FMN1151     0.5327
     29  O1P       24.8760   20.8110   50.5980 O.2   1151  FMN1151    -0.2224
     30  O2P       24.4110   18.3790   50.6910 O.3   1151  FMN1151    -0.1145
     31  O3P       23.9760   19.7740   52.7220 O.3   1151  FMN1151    -0.1145
@<TRIPOS>BOND
     1    12    11    1
     2    14    13    1
     3    11    13    1
     4    11    10    1
     5    13    15    1
     6    10     9    1
     7    15    16    2
     8    29    28    2
     9    23    22    1
    10    30    28    1
    11     9    16    1
    12     9     8    2
    13    16    17    1
    14    26    24    1
    15    26    27    1
    16    28    27    1
    17    28    31    1
    18    24    22    1
    19    24    25    1
    20    22    20    1
    21     8     7    2
    22    20    19    1
    23    20    21    1
    24    17    19    1
    25    17    18    1
    26     7    18    1
    27     7     5    1
    28    18     1    2
    29     6     5    2
    30     5     4    2
    31     1     2    2
    32     4     2    2
    33     2     3    2
