@<TRIPOS>MOLECULE
2frf_HEM_A_1.pdb
 43 50 0 0 0
SMALL
GASTEIGER

@<TRIPOS>ATOM
      1 FE         -0.6460    6.4120   14.9930 Fe    154  HEM154      0.0000
      2  CHA       -0.5450    9.6250   16.2560 C.2   154  HEM154      0.0000
      3  CHB       -4.0470    6.4630   15.2620 C.2   154  HEM154      0.0000
      4  CHC       -0.8100    3.2400   13.7330 C.2   154  HEM154      0.0000
      5  CHD        2.7130    6.3240   14.8530 C.2   154  HEM154      0.0000
      6  NA        -2.0180    7.7670   15.6460 N.2   154  HEM154      0.0000
      7  C1A       -1.7720    9.0420   16.1040 C.2   154  HEM154      0.0000
      8  C2A       -3.0340    9.6770   16.4070 C.2   154  HEM154      0.0000
      9  C3A       -4.0010    8.7960   16.1420 C.2   154  HEM154      0.0000
     10  C4A       -3.3790    7.5850   15.6610 C.2   154  HEM154      0.0000
     11  CMA       -5.5220    8.9950   16.3070 C.3   154  HEM154      0.0000
     12  CAA       -3.1960   11.1190   16.9200 C.3   154  HEM154      0.0000
     13  CBA       -3.6320   12.0010   15.7360 C.3   154  HEM154      0.0000
     14  CGA       -2.7550   11.9890   14.4980 C.2   154  HEM154      0.0000
     15  O1A       -1.5780   12.4170   14.6020 O.co2 154  HEM154      0.0000
     16  O2A       -3.2480   11.5890   13.3980 O.co2 154  HEM154      0.0000
     17  NB        -2.1410    5.1110   14.5650 N.ar  154  HEM154      0.0000
     18  C1B       -3.4860    5.3290   14.7500 C.ar  154  HEM154      0.0000
     19  C2B       -4.1960    4.1580   14.3280 C.ar  154  HEM154      0.0000
     20  C3B       -3.3020    3.2580   13.9240 C.ar  154  HEM154      0.0000
     21  C4B       -1.9960    3.8390   14.0680 C.ar  154  HEM154      0.0000
     22  CMB       -5.7320    4.0030   14.3800 C.3   154  HEM154      0.0000
     23  CAB       -3.5450    1.8440   13.3860 C.2   154  HEM154      0.0000
     24  CBB       -4.4460    1.0260   13.9590 C.2   154  HEM154      0.0000
     25  NC         0.7020    5.0510   14.3610 N.2   154  HEM154      0.0000
     26  C1C        0.4420    3.7660   13.9530 C.2   154  HEM154      0.0000
     27  C2C        1.6980    3.0560   13.8440 C.2   154  HEM154      0.0000
     28  C3C        2.6730    3.9170   14.1740 C.2   154  HEM154      0.0000
     29  C4C        2.0550    5.1860   14.4880 C.2   154  HEM154      0.0000
     30  CMC        1.8140    1.5790   13.4350 C.3   154  HEM154      0.0000
     31  CAC        4.2000    3.6850   14.2350 C.2   154  HEM154      0.0000
     32  CBC        4.7560    2.4770   14.1760 C.2   154  HEM154      0.0000
     33  ND         0.8090    7.7600   15.4550 N.ar  154  HEM154      0.0000
     34  C1D        2.1600    7.4820   15.3230 C.ar  154  HEM154      0.0000
     35  C2D        2.9290    8.6010   15.7920 C.ar  154  HEM154      0.0000
     36  C3D        1.9270    9.6330   16.2430 C.ar  154  HEM154      0.0000
     37  C4D        0.6490    9.0270   15.9900 C.ar  154  HEM154      0.0000
     38  CMD        4.4570    8.7410   15.8380 C.3   154  HEM154      0.0000
     39  CAD        2.2330   11.0140   16.8360 C.3   154  HEM154      0.0000
     40  CBD        2.4660   10.8350   18.3320 C.3   154  HEM154      0.0000
     41  CGD        2.5880   12.1880   18.9820 C.2   154  HEM154      0.0000
     42  O1D        2.0890   12.3260   20.1200 O.co2 154  HEM154      0.0000
     43  O2D        3.1610   13.1400   18.3720 O.co2 154  HEM154      0.0000
@<TRIPOS>BOND
     1    23    20    1
     2    23    24    2
     3    16    14   ar
     4    30    27    1
     5     4    26    2
     6     4    21    1
     7    27    26    1
     8    27    28    2
     9    20    21   ar
    10    20    19   ar
    11    26    25    1
    12    21    17   ar
    13    28    31    1
    14    28    29    1
    15    32    31    2
    16    19    22    1
    17    19    18   ar
    18    25    29    2
    19    25     1    1
    20    29     5    1
    21    14    15   ar
    22    14    13    1
    23    17    18   ar
    24    17     1    1
    25    18     3    1
    26     5    34    2
    27     1    33    1
    28     1     6    1
    29     3    10    2
    30    34    33   ar
    31    34    35   ar
    32    33    37   ar
    33     6    10    1
    34     6     7    2
    35    10     9    1
    36    13    12    1
    37    35    38    1
    38    35    36   ar
    39    37    36   ar
    40    37     2    2
    41     7     2    1
    42     7     8    1
    43     9    11    1
    44     9     8    2
    45    36    39    1
    46     8    12    1
    47    39    40    1
    48    40    41    1
    49    43    41   ar
    50    41    42   ar
