@<TRIPOS>MOLECULE
2fri_HEM_X_1.pdb
 43 50 0 0 0
SMALL
GASTEIGER

@<TRIPOS>ATOM
      1 FE         -0.7130    6.3940   14.9610 Fe    154  HEM154      0.0000
      2  CHA       -0.6220    9.5520   16.2170 C.2   154  HEM154      0.0000
      3  CHB       -4.1640    6.3900   15.2900 C.2   154  HEM154      0.0000
      4  CHC       -0.8680    3.1450   13.7510 C.2   154  HEM154      0.0000
      5  CHD        2.7240    6.2150   14.7990 C.2   154  HEM154      0.0000
      6  NA        -2.1470    7.7270   15.6540 N.2   154  HEM154      0.0000
      7  C1A       -1.8720    9.0040   16.0820 C.2   154  HEM154      0.0000
      8  C2A       -3.1410    9.6500   16.3880 C.2   154  HEM154      0.0000
      9  C3A       -4.1310    8.7790   16.1420 C.2   154  HEM154      0.0000
     10  C4A       -3.5160    7.5510   15.6720 C.2   154  HEM154      0.0000
     11  CMA       -5.6560    8.9900   16.2890 C.3   154  HEM154      0.0000
     12  CAA       -3.2760   11.1070   16.8720 C.3   154  HEM154      0.0000
     13  CBA       -3.7880   11.9670   15.6940 C.3   154  HEM154      0.0000
     14  CGA       -2.8790   11.9680   14.4770 C.2   154  HEM154      0.0000
     15  O1A       -1.6820   12.3810   14.6160 O.co2 154  HEM154      0.0000
     16  O2A       -3.3670   11.5630   13.3710 O.co2 154  HEM154      0.0000
     17  NB        -2.2120    5.0250   14.5800 N.ar  154  HEM154      0.0000
     18  C1B       -3.5690    5.2590   14.7740 C.ar  154  HEM154      0.0000
     19  C2B       -4.2880    4.0680   14.3570 C.ar  154  HEM154      0.0000
     20  C3B       -3.3920    3.1650   13.9290 C.ar  154  HEM154      0.0000
     21  C4B       -2.0670    3.7510   14.0680 C.ar  154  HEM154      0.0000
     22  CMB       -5.8250    3.8990   14.3840 C.3   154  HEM154      0.0000
     23  CAB       -3.6960    1.7550   13.3870 C.2   154  HEM154      0.0000
     24  CBB       -4.5730    0.9710   14.0330 C.2   154  HEM154      0.0000
     25  NC         0.7010    4.9410   14.3610 N.2   154  HEM154      0.0000
     26  C1C        0.3980    3.6600   13.9610 C.2   154  HEM154      0.0000
     27  C2C        1.6410    2.9290   13.8080 C.2   154  HEM154      0.0000
     28  C3C        2.6630    3.7500   14.1120 C.2   154  HEM154      0.0000
     29  C4C        2.0720    5.0550   14.4480 C.2   154  HEM154      0.0000
     30  CMC        1.7330    1.4430   13.3930 C.3   154  HEM154      0.0000
     31  CAC        4.1680    3.3390   14.0690 C.2   154  HEM154      0.0000
     32  CBC        5.0950    3.9800   14.7590 C.2   154  HEM154      0.0000
     33  ND         0.7910    7.6610   15.3980 N.ar  154  HEM154      0.0000
     34  C1D        2.1540    7.3750   15.2720 C.ar  154  HEM154      0.0000
     35  C2D        2.9140    8.5200   15.7410 C.ar  154  HEM154      0.0000
     36  C3D        1.8760    9.5430   16.1740 C.ar  154  HEM154      0.0000
     37  C4D        0.5850    8.9300   15.9440 C.ar  154  HEM154      0.0000
     38  CMD        4.4430    8.6870   15.7760 C.3   154  HEM154      0.0000
     39  CAD        2.1310   10.9270   16.7740 C.3   154  HEM154      0.0000
     40  CBD        2.3120   10.7270   18.2720 C.3   154  HEM154      0.0000
     41  CGD        2.6360   12.0430   18.9440 C.2   154  HEM154      0.0000
     42  O1D        2.5960   12.0610   20.1810 O.co2 154  HEM154      0.0000
     43  O2D        2.9220   13.0820   18.2790 O.co2 154  HEM154      0.0000
@<TRIPOS>BOND
     1    16    14   ar
     2    23    20    1
     3    23    24    2
     4    30    27    1
     5     4    26    2
     6     4    21    1
     7    27    26    1
     8    27    28    2
     9    20    21   ar
    10    20    19   ar
    11    26    25    1
    12    21    17   ar
    13    31    28    1
    14    31    32    2
    15    28    29    1
    16    19    22    1
    17    19    18   ar
    18    25    29    2
    19    25     1    1
    20    29     5    1
    21    14    15   ar
    22    14    13    1
    23    17    18   ar
    24    17     1    1
    25    18     3    1
    26     5    34    2
    27     1    33    1
    28     1     6    1
    29    34    33   ar
    30    34    35   ar
    31     3    10    2
    32    33    37   ar
    33     6    10    1
    34     6     7    2
    35    10     9    1
    36    13    12    1
    37    35    38    1
    38    35    36   ar
    39    37    36   ar
    40    37     2    2
    41     7     2    1
    42     7     8    1
    43     9    11    1
    44     9     8    2
    45    36    39    1
    46     8    12    1
    47    39    40    1
    48    40    41    1
    49    43    41   ar
    50    41    42   ar
