@<TRIPOS>MOLECULE
2frj_HEM_X_1.pdb
 43 50 0 0 0
SMALL
GASTEIGER

@<TRIPOS>ATOM
      1 FE        -18.4650    6.3130   15.1040 Fe    154  HEM154      0.0000
      2  CHA      -18.3780    9.4870   16.3930 C.2   154  HEM154      0.0000
      3  CHB      -21.8790    6.3360   15.3690 C.2   154  HEM154      0.0000
      4  CHC      -18.6020    3.1340   13.8640 C.2   154  HEM154      0.0000
      5  CHD      -15.0820    6.2670   14.8740 C.2   154  HEM154      0.0000
      6  NA       -19.8720    7.6330   15.7660 N.2   154  HEM154      0.0000
      7  C1A      -19.6150    8.9160   16.2220 C.2   154  HEM154      0.0000
      8  C2A      -20.8750    9.5820   16.5200 C.2   154  HEM154      0.0000
      9  C3A      -21.8570    8.7100   16.2500 C.2   154  HEM154      0.0000
     10  C4A      -21.2430    7.4790   15.7750 C.2   154  HEM154      0.0000
     11  CMA      -23.3800    8.9050   16.3770 C.3   154  HEM154      0.0000
     12  CAA      -20.9950   11.0400   17.0180 C.3   154  HEM154      0.0000
     13  CBA      -21.4620   11.8870   15.8220 C.3   154  HEM154      0.0000
     14  CGA      -20.5100   11.9240   14.6490 C.2   154  HEM154      0.0000
     15  O1A      -19.3470   12.3550   14.8130 O.co2 154  HEM154      0.0000
     16  O2A      -20.9380   11.5680   13.5130 O.co2 154  HEM154      0.0000
     17  NB       -19.9640    4.9860   14.6750 N.ar  154  HEM154      0.0000
     18  C1B      -21.3100    5.1750   14.8930 C.ar  154  HEM154      0.0000
     19  C2B      -22.0350    3.9900   14.4870 C.ar  154  HEM154      0.0000
     20  C3B      -21.1160    3.0950   14.0720 C.ar  154  HEM154      0.0000
     21  C4B      -19.8090    3.7050   14.1900 C.ar  154  HEM154      0.0000
     22  CMB      -23.5730    3.8450   14.5420 C.3   154  HEM154      0.0000
     23  CAB      -21.3450    1.6620   13.5560 C.2   154  HEM154      0.0000
     24  CBB      -22.1890    0.8350   14.2080 C.2   154  HEM154      0.0000
     25  NC       -17.0870    4.9430   14.4400 N.2   154  HEM154      0.0000
     26  C1C      -17.3490    3.6650   14.0390 C.2   154  HEM154      0.0000
     27  C2C      -16.0850    2.9620   13.9140 C.2   154  HEM154      0.0000
     28  C3C      -15.1030    3.8430   14.2110 C.2   154  HEM154      0.0000
     29  C4C      -15.7300    5.1140   14.5350 C.2   154  HEM154      0.0000
     30  CMC      -16.0180    1.4860   13.4960 C.3   154  HEM154      0.0000
     31  CAC      -13.5620    3.6570   14.2540 C.2   154  HEM154      0.0000
     32  CBC      -12.9490    2.4810   14.1300 C.2   154  HEM154      0.0000
     33  ND       -16.9600    7.6690   15.5230 N.ar  154  HEM154      0.0000
     34  C1D      -15.6050    7.4090   15.3900 C.ar  154  HEM154      0.0000
     35  C2D      -14.8390    8.5080   15.9240 C.ar  154  HEM154      0.0000
     36  C3D      -15.8760    9.4910   16.4040 C.ar  154  HEM154      0.0000
     37  C4D      -17.1640    8.9070   16.1170 C.ar  154  HEM154      0.0000
     38  CMD      -13.3140    8.6970   16.0120 C.3   154  HEM154      0.0000
     39  CAD      -15.5670   10.8250   17.1000 C.3   154  HEM154      0.0000
     40  CBD      -15.4560   10.5130   18.5980 C.3   154  HEM154      0.0000
     41  CGD      -15.1800   11.7490   19.4100 C.2   154  HEM154      0.0000
     42  O1D      -16.1520   12.3040   19.9840 O.co2 154  HEM154      0.0000
     43  O2D      -13.9940   12.1580   19.4880 O.co2 154  HEM154      0.0000
@<TRIPOS>BOND
     1    30    27    1
     2    16    14   ar
     3    23    20    1
     4    23    24    2
     5     4    26    2
     6     4    21    1
     7    27    26    1
     8    27    28    2
     9    26    25    1
    10    20    21   ar
    11    20    19   ar
    12    32    31    2
    13    21    17   ar
    14    28    31    1
    15    28    29    1
    16    25    29    2
    17    25     1    1
    18    19    22    1
    19    19    18   ar
    20    29     5    1
    21    14    15   ar
    22    14    13    1
    23    17    18   ar
    24    17     1    1
    25     5    34    2
    26    18     3    1
    27     1    33    1
    28     1     6    1
    29     3    10    2
    30    34    33   ar
    31    34    35   ar
    32    33    37   ar
    33     6    10    1
    34     6     7    2
    35    10     9    1
    36    13    12    1
    37    35    38    1
    38    35    36   ar
    39    37     2    2
    40    37    36   ar
    41     7     2    1
    42     7     8    1
    43     9    11    1
    44     9     8    2
    45    36    39    1
    46     8    12    1
    47    39    40    1
    48    40    41    1
    49    41    43   ar
    50    41    42   ar
