@<TRIPOS>MOLECULE
2frk_HEM_X_1.pdb
 43 50 0 0 0
SMALL
GASTEIGER

@<TRIPOS>ATOM
      1 FE         -0.6280    6.3740   15.0280 Fe    154  HEM154      0.0000
      2  CHA       -0.5070    9.5320   16.4190 C.2   154  HEM154      0.0000
      3  CHB       -4.0500    6.3960   15.3550 C.2   154  HEM154      0.0000
      4  CHC       -0.7230    3.1460   13.9610 C.2   154  HEM154      0.0000
      5  CHD        2.8360    6.2540   14.9650 C.2   154  HEM154      0.0000
      6  NA        -2.0070    7.6910   15.7790 N.2   154  HEM154      0.0000
      7  C1A       -1.7500    8.9700   16.2300 C.2   154  HEM154      0.0000
      8  C2A       -3.0270    9.6240   16.4800 C.2   154  HEM154      0.0000
      9  C3A       -4.0130    8.7640   16.2020 C.2   154  HEM154      0.0000
     10  C4A       -3.3830    7.5330   15.7590 C.2   154  HEM154      0.0000
     11  CMA       -5.5400    8.9740   16.3060 C.3   154  HEM154      0.0000
     12  CAA       -3.1750   11.0750   16.9580 C.3   154  HEM154      0.0000
     13  CBA       -3.6100   11.9390   15.7600 C.3   154  HEM154      0.0000
     14  CGA       -2.6380   11.9570   14.5990 C.2   154  HEM154      0.0000
     15  O1A       -1.4610   12.3540   14.8000 O.co2 154  HEM154      0.0000
     16  O2A       -3.0410   11.5780   13.4660 O.co2 154  HEM154      0.0000
     17  NB        -2.1240    5.0170   14.7100 N.ar  154  HEM154      0.0000
     18  C1B       -3.4730    5.2390   14.8900 C.ar  154  HEM154      0.0000
     19  C2B       -4.1740    4.0440   14.4750 C.ar  154  HEM154      0.0000
     20  C3B       -3.2560    3.1350   14.0970 C.ar  154  HEM154      0.0000
     21  C4B       -1.9410    3.7320   14.2510 C.ar  154  HEM154      0.0000
     22  CMB       -5.7070    3.9240   14.5050 C.3   154  HEM154      0.0000
     23  CAB       -3.5030    1.7100   13.5940 C.2   154  HEM154      0.0000
     24  CBB       -4.3910    0.9080   14.1940 C.2   154  HEM154      0.0000
     25  NC         0.8170    4.9570   14.5100 N.2   154  HEM154      0.0000
     26  C1C        0.5440    3.6640   14.1480 C.2   154  HEM154      0.0000
     27  C2C        1.8150    2.9720   13.9960 C.2   154  HEM154      0.0000
     28  C3C        2.7980    3.8420   14.2830 C.2   154  HEM154      0.0000
     29  C4C        2.1810    5.1030   14.6200 C.2   154  HEM154      0.0000
     30  CMC        1.9430    1.4980   13.5850 C.3   154  HEM154      0.0000
     31  CAC        4.3250    3.6230   14.2980 C.2   154  HEM154      0.0000
     32  CBC        4.8840    2.4210   14.1720 C.2   154  HEM154      0.0000
     33  ND         0.9100    7.6610   15.5920 N.ar  154  HEM154      0.0000
     34  C1D        2.2740    7.3940   15.4660 C.ar  154  HEM154      0.0000
     35  C2D        3.0260    8.5130   15.9830 C.ar  154  HEM154      0.0000
     36  C3D        1.9910    9.5200   16.4440 C.ar  154  HEM154      0.0000
     37  C4D        0.7060    8.9320   16.1520 C.ar  154  HEM154      0.0000
     38  CMD        4.5590    8.6660   16.0670 C.3   154  HEM154      0.0000
     39  CAD        2.2970   10.8740   17.1070 C.3   154  HEM154      0.0000
     40  CBD        2.5070   10.5030   18.5780 C.3   154  HEM154      0.0000
     41  CGD        2.8680   11.6740   19.4410 C.2   154  HEM154      0.0000
     42  O1D        1.9430   12.2570   20.0490 O.co2 154  HEM154      0.0000
     43  O2D        4.0780   11.9980   19.5270 O.co2 154  HEM154      0.0000
@<TRIPOS>BOND
     1    16    14   ar
     2    30    27    1
     3    23    20    1
     4    23    24    2
     5     4    26    2
     6     4    21    1
     7    27    26    1
     8    27    28    2
     9    20    21   ar
    10    20    19   ar
    11    26    25    1
    12    32    31    2
    13    21    17   ar
    14    28    31    1
    15    28    29    1
    16    19    22    1
    17    19    18   ar
    18    25    29    2
    19    25     1    1
    20    14    15   ar
    21    14    13    1
    22    29     5    1
    23    17    18   ar
    24    17     1    1
    25    18     3    1
    26     5    34    2
    27     1    33    1
    28     1     6    1
    29     3    10    2
    30    34    33   ar
    31    34    35   ar
    32    33    37   ar
    33    10     6    1
    34    10     9    1
    35    13    12    1
    36     6     7    2
    37    35    38    1
    38    35    36   ar
    39    37     2    2
    40    37    36   ar
    41     9    11    1
    42     9     8    2
    43     7     2    1
    44     7     8    1
    45    36    39    1
    46     8    12    1
    47    39    40    1
    48    40    41    1
    49    41    43   ar
    50    41    42   ar
