@<TRIPOS>MOLECULE
2frq_C71_A_1.pdb
 34 36 0 0 0
SMALL
GASTEIGER

@<TRIPOS>ATOM
      1  C2        14.7790   78.2300  130.7690 C.3   1000  C711000     0.0607
      2  C5        13.8110   76.3160  127.8990 C.2   1000  C711000     0.3636
      3  C6        14.4790   75.5540  126.8480 C.3   1000  C711000     0.1360
      4  C1        14.4000   76.9510  131.6130 C.3   1000  C711000     0.0045
      5  C3        14.1660   78.3820  129.3380 C.3   1000  C711000     0.2811
      6  C9        11.3100   74.0310  129.1470 C.ar  1000  C711000     0.1513
      7  N4        14.5570   77.2740  128.4880 N.pl3 1000  C711000    -0.0283
      8  N7        12.5530   76.1090  128.2560 N.2   1000  C711000     0.0946
      9  S8        11.3640   75.0400  127.7000 S.O2  1000  C711000     0.1798
     10  O10       10.0070   75.8250  127.5040 O.2   1000  C711000    -0.1251
     11  O11       11.7860   74.2600  126.3850 O.2   1000  C711000    -0.1251
     12  C12       14.5930   79.6540  128.7140 C.2   1000  C711000     0.2888
     13  N13       13.8370   80.7600  128.9220 N.am  1000  C711000    -0.1994
     14  O14       15.6150   79.6870  128.0260 O.2   1000  C711000    -0.2688
     15  C15       13.9530   82.1560  128.4680 C.3   1000  C711000     0.1200
     16  C17       14.0950   82.2450  126.8830 C.3   1000  C711000     0.0512
     17  C18       12.9410   81.5900  126.0710 C.3   1000  C711000     0.1529
     18  S19       11.3770   82.3510  126.5270 S.O2  1000  C711000    -0.0099
     19  C20       11.2980   82.3570  128.3280 C.3   1000  C711000     0.1529
     20  C21       12.6300   82.9010  128.9260 C.3   1000  C711000     0.0512
     21  C22       10.4780   74.4060  130.2540 C.ar  1000  C711000     0.0225
     22  C23       10.4020   73.5850  131.4250 C.ar  1000  C711000     0.0015
     23  C24       11.1470   72.3600  131.4950 C.ar  1000  C711000     0.0001
     24  C25       11.9850   71.9730  130.3930 C.ar  1000  C711000     0.0015
     25  C26       12.0580   72.7990  129.2240 C.ar  1000  C711000     0.0225
     26  C27       15.0150   75.6260  131.0540 C.3   1000  C711000     0.0001
     27  C28       15.1890   74.6630  132.2400 C.3   1000  C711000     0.0000
     28  C29       15.2650   75.5500  133.4950 C.3   1000  C711000     0.0000
     29  C30       15.0830   77.0110  133.0130 C.3   1000  C711000     0.0001
     30  C31       12.8400   76.8410  131.7820 C.3   1000  C711000     0.0002
     31  O32       10.1760   81.4930  125.9220 O.2   1000  C711000    -0.1730
     32  O33       11.3210   83.8430  125.9840 O.2   1000  C711000    -0.1730
     33  N34       15.4500   84.0340  128.8860 N.2   1000  C711000    -0.1496
     34  C16       15.1070   82.8190  129.1220 C.2   1000  C711000     0.1151
@<TRIPOS>BOND
     1    31    18    2
     2    32    18    2
     3    17    18    1
     4    17    16    1
     5    11     9    2
     6    18    19    1
     7     3     2    1
     8    16    15    1
     9    10     9    2
    10     9     8    1
    11     9     6    1
    12     2     8    2
    13     2     7    1
    14    14    12    2
    15    19    20    1
    16    15    13    1
    17    15    20    1
    18    15    34    1
    19     7     5    1
    20    12    13   am
    21    12     5    1
    22    33    34    2
    23     6    25   ar
    24     6    21   ar
    25    25    24   ar
    26     5     1    1
    27    21    22   ar
    28    24    23   ar
    29     1     4    1
    30    26     4    1
    31    26    27    1
    32    22    23   ar
    33     4    30    1
    34     4    29    1
    35    27    28    1
    36    29    28    1
