@<TRIPOS>MOLECULE
2frz_HEM_A_1.pdb
 43 50 0 0 0
SMALL
GASTEIGER

@<TRIPOS>ATOM
      1 FE         23.8640   -9.8710  -49.0780 Fe    417  HEM417      0.0000
      2  CHA       25.2240   -9.4420  -45.9130 C.2   417  HEM417      0.0000
      3  CHB       20.6790   -9.4630  -47.7330 C.2   417  HEM417      0.0000
      4  CHC       22.4560  -10.8490  -52.0330 C.2   417  HEM417      0.0000
      5  CHD       26.9410  -11.0470  -50.1940 C.2   417  HEM417      0.0000
      6  NA        23.1540   -9.5670  -47.2050 N.2   417  HEM417      0.0000
      7  C1A       23.8370   -9.3660  -46.0270 C.2   417  HEM417      0.0000
      8  C2A       22.9040   -9.0320  -44.9740 C.2   417  HEM417      0.0000
      9  C3A       21.6640   -9.0580  -45.4680 C.2   417  HEM417      0.0000
     10  C4A       21.7850   -9.3920  -46.8940 C.2   417  HEM417      0.0000
     11  CMA       20.3210   -8.7790  -44.7780 C.3   417  HEM417      0.0000
     12  CAA       23.2910   -8.6890  -43.4960 C.3   417  HEM417      0.0000
     13  CBA       23.5510   -9.8410  -42.5480 C.3   417  HEM417      0.0000
     14  CGA       23.9220   -9.3120  -41.1120 C.2   417  HEM417      0.0000
     15  O1A       23.9350   -8.1000  -40.8800 O.co2 417  HEM417      0.0000
     16  O2A       24.1400  -10.3300  -40.4030 O.co2 417  HEM417      0.0000
     17  NB        21.9400  -10.2190  -49.6810 N.ar  417  HEM417      0.0000
     18  C1B       20.7900   -9.7890  -49.0740 C.ar  417  HEM417      0.0000
     19  C2B       19.6770   -9.7720  -50.0280 C.ar  417  HEM417      0.0000
     20  C3B       20.1580  -10.1480  -51.2000 C.ar  417  HEM417      0.0000
     21  C4B       21.5970  -10.4290  -51.0320 C.ar  417  HEM417      0.0000
     22  CMB       18.2440   -9.3520  -49.5970 C.3   417  HEM417      0.0000
     23  CAB       19.4830  -10.3190  -52.6130 C.2   417  HEM417      0.0000
     24  CBB       18.2070  -10.0990  -52.8970 C.2   417  HEM417      0.0000
     25  NC        24.5600  -10.8290  -50.7510 N.2   417  HEM417      0.0000
     26  C1C       23.8180  -11.0700  -51.9100 C.2   417  HEM417      0.0000
     27  C2C       24.6880  -11.5670  -52.9660 C.2   417  HEM417      0.0000
     28  C3C       25.9390  -11.6380  -52.4470 C.2   417  HEM417      0.0000
     29  C4C       25.8400  -11.1720  -51.0520 C.2   417  HEM417      0.0000
     30  CMC       24.1970  -11.9260  -54.4030 C.3   417  HEM417      0.0000
     31  CAC       27.3450  -12.0940  -53.0730 C.2   417  HEM417      0.0000
     32  CBC       27.4360  -12.3700  -54.3610 C.2   417  HEM417      0.0000
     33  ND        25.7270  -10.2140  -48.2050 N.ar  417  HEM417      0.0000
     34  C1D       26.8540  -10.5810  -48.8920 C.ar  417  HEM417      0.0000
     35  C2D       28.0070  -10.4200  -47.9860 C.ar  417  HEM417      0.0000
     36  C3D       27.5200   -9.9770  -46.8220 C.ar  417  HEM417      0.0000
     37  C4D       26.0650   -9.8440  -46.9260 C.ar  417  HEM417      0.0000
     38  CMD       29.4800  -10.7380  -48.3770 C.3   417  HEM417      0.0000
     39  CAD       28.2970   -9.6550  -45.5110 C.3   417  HEM417      0.0000
     40  CBD       28.5640   -8.2350  -45.1430 C.3   417  HEM417      0.0000
     41  CGD       29.3220   -8.0920  -43.7450 C.2   417  HEM417      0.0000
     42  O1D       29.9290   -7.0550  -43.6780 O.co2 417  HEM417      0.0000
     43  O2D       29.1300   -9.0490  -42.9780 O.co2 417  HEM417      0.0000
@<TRIPOS>BOND
     1    30    27    1
     2    32    31    2
     3    31    28    1
     4    27    28    2
     5    27    26    1
     6    24    23    2
     7    23    20    1
     8    28    29    1
     9     4    26    2
    10     4    21    1
    11    26    25    1
    12    20    21   ar
    13    20    19   ar
    14    29    25    2
    15    29     5    1
    16    21    17   ar
    17    25     1    1
    18     5    34    2
    19    19    22    1
    20    19    18   ar
    21    17     1    1
    22    17    18   ar
    23     1    33    1
    24     1     6    1
    25    18     3    1
    26    34    33   ar
    27    34    35   ar
    28    38    35    1
    29    33    37   ar
    30    35    36   ar
    31     3    10    2
    32     6    10    1
    33     6     7    2
    34    37    36   ar
    35    37     2    2
    36    10     9    1
    37    36    39    1
    38     7     2    1
    39     7     8    1
    40    39    40    1
    41     9     8    2
    42     9    11    1
    43    40    41    1
    44     8    12    1
    45    41    42   ar
    46    41    43   ar
    47    12    13    1
    48    13    14    1
    49    14    15   ar
    50    14    16   ar
