@<TRIPOS>MOLECULE
2fs4_PZ1_B_1.pdb
 43 47 0 0 0
SMALL
GASTEIGER

@<TRIPOS>ATOM
      1  C1       127.1510   17.5480   44.8250 C.3   805  PZ1805      0.2525
      2  O1       127.4520   18.9130   45.0260 O.3   805  PZ1805     -0.4717
      3  C2       127.6720   19.2280   46.3770 C.ar  805  PZ1805      0.1370
      4  C3       128.9870   19.0930   46.9720 C.ar  805  PZ1805      0.0413
      5  C4       130.1470   18.5940   46.1010 C.3   805  PZ1805      0.1716
      6  O2       131.4120   18.4850   46.7310 O.3   805  PZ1805     -0.3488
      7  C5       126.5680   19.6890   47.1560 C.ar  805  PZ1805      0.0367
      8  C6       126.7510   20.0240   48.5460 C.ar  805  PZ1805      0.0031
      9  C7       128.0420   19.8940   49.1390 C.ar  805  PZ1805     -0.0000
     10  C8       129.1470   19.4320   48.3590 C.ar  805  PZ1805      0.0012
     11  C20      128.2660   17.0310   37.4140 C.3   805  PZ1805      0.1407
     12  C21      127.7750   16.9150   35.9610 C.3   805  PZ1805      0.1132
     13  N2       128.7820   16.4540   35.0250 N.3   805  PZ1805     -0.2066
     14  C22      130.2270   16.6830   35.1560 C.3   805  PZ1805      0.1741
     15  C23      130.7300   17.1130   36.5590 C.2   805  PZ1805      0.2472
     16  N3       129.7930   17.2660   37.6010 N.am  805  PZ1805     -0.2540
     17  O5       131.9330   17.2970   36.6850 O.2   805  PZ1805     -0.2730
     18  C24      127.3630   18.1500   38.0070 C.3   805  PZ1805      0.2268
     19  O6       127.2200   17.9100   39.3960 O.2   805  PZ1805     -0.4739
     20  C25      130.5030   19.0240   39.2390 C.ar  805  PZ1805      0.0180
     21  C26      130.2890   17.6450   38.8640 C.ar  805  PZ1805      0.0542
     22  C27      130.5940   16.6010   39.8370 C.ar  805  PZ1805      0.0180
     23  C28      131.0860   16.9670   41.1360 C.ar  805  PZ1805      0.0382
     24  C29      131.2850   18.3730   41.4870 C.ar  805  PZ1805      0.1386
     25  C30      130.9890   19.3770   40.5230 C.ar  805  PZ1805      0.0382
     26  O7       131.7330   18.8030   42.7460 O.3   805  PZ1805     -0.4754
     27  C31      132.8430   18.1990   43.3620 C.3   805  PZ1805      0.2080
     28  C32      133.0530   18.8620   44.7420 C.3   805  PZ1805      0.0794
     29  C33      132.5130   17.9960   45.9110 C.3   805  PZ1805      0.1465
     30  C34      121.3260   16.2240   38.9270 C.3   805  PZ1805      0.2097
     31  C9       127.0410   19.6520   41.1010 C.2   805  PZ1805      0.0364
     32  C10      126.2160   20.5810   41.8120 C.2   805  PZ1805      0.0008
     33  C11      124.7950   20.6860   41.5290 C.2   805  PZ1805      0.0004
     34  C12      124.1770   19.8430   40.5120 C.3   805  PZ1805      0.1250
     35  C13      125.0460   18.9210   39.8190 C.2   805  PZ1805      0.0350
     36  C14      126.4410   18.8150   40.0920 C.2   805  PZ1805      0.1363
     37  C15      123.9930   21.6960   42.3280 C.2   805  PZ1805     -0.0010
     38  C16      122.4680   21.7900   42.0100 C.2   805  PZ1805      0.0159
     39  C17      121.8560   20.8660   40.9150 C.2   805  PZ1805      0.0659
     40  N1       122.7590   19.9140   40.2000 N.pl3 805  PZ1805     -0.2788
     41  C18      122.1450   19.0260   39.1470 C.2   805  PZ1805      0.0638
     42  C19      121.8940   17.5600   39.5340 C.2   805  PZ1805      0.0252
     43  O3       120.3860   14.9840   39.1130 O.3   805  PZ1805     -0.2151
@<TRIPOS>BOND
     1    13    14    1
     2    13    12    1
     3    14    15    1
     4    12    11    1
     5    15    17    2
     6    15    16   am
     7    11    16    1
     8    11    18    1
     9    16    21    1
    10    18    19    1
    11    21    20   ar
    12    21    22   ar
    13    30    43    1
    14    30    42    1
    15    41    42    2
    16    41    40    1
    17    20    25   ar
    18    19    36    1
    19    35    36    2
    20    35    34    1
    21    22    23   ar
    22    36    31    1
    23    40    34    1
    24    40    39    1
    25    34    33    1
    26    25    24   ar
    27    39    38    2
    28    31    32    2
    29    23    24   ar
    30    24    26    1
    31    33    32    1
    32    33    37    2
    33    38    37    1
    34    26    27    1
    35    27    28    1
    36    28    29    1
    37     1     2    1
    38     2     3    1
    39    29     6    1
    40     5     6    1
    41     5     4    1
    42     3     4   ar
    43     3     7   ar
    44     4    10   ar
    45     7     8   ar
    46    10     9   ar
    47     8     9   ar
