@<TRIPOS>MOLECULE
2fs8_C3A_A_1.pdb
 41 45 0 0 0
SMALL
GASTEIGER

@<TRIPOS>ATOM
      1  C2         0.9720   18.4470   72.1530 C.3   999  C3A999      0.0475
      2  C5        -0.1230   21.1900   70.1580 C.2   999  C3A999      0.4212
      3  C1         2.0830   18.0260   71.3570 C.3   999  C3A999      0.0040
      4  C3         0.1260   19.8730   72.3780 C.3   999  C3A999      0.2102
      5  O4        -0.7850   20.7230   71.3370 O.3   999  C3A999     -0.4335
      6  O6         1.0820   20.5910   69.9620 O.2   999  C3A999     -0.2246
      7  C8        -1.4350   22.4380   68.1450 C.3   999  C3A999      0.1445
      8  C9        -0.9800   23.9010   67.8760 C.3   999  C3A999      0.0256
      9  N7        -0.4110   21.8450   69.0080 N.am  999  C3A999     -0.1667
     10  C10        0.4550   23.8930   67.1980 C.3   999  C3A999      0.0034
     11  C11        1.4460   25.0010   67.6030 C.3   999  C3A999      0.0189
     12  C12        1.0480   25.9870   68.7150 C.3   999  C3A999      0.0202
     13  C13        1.7360   27.2840   68.2710 C.3   999  C3A999      0.0887
     14  N14        2.4120   27.0140   67.0040 N.3   999  C3A999     -0.2181
     15  C15        1.7800   25.8670   66.4220 C.3   999  C3A999      0.0887
     16  C16       -2.8620   22.1000   68.4190 C.3   999  C3A999      0.2700
     17  O17       -3.6130   23.1900   68.7200 O.3   999  C3A999     -0.2037
     18  C18       -3.3960   21.1440   69.3190 C.1   999  C3A999      0.1355
     19  N19       -4.4990   21.3110   69.9960 N.2   999  C3A999     -0.0092
     20  O20       -4.7760   20.2280   70.7140 O.2   999  C3A999     -0.3154
     21  C21       -3.7500   19.3320   70.4400 C.2   999  C3A999      0.2978
     22  C22       -3.6510   18.0800   70.9630 C.3   999  C3A999      0.1288
     23  C23       -4.9610   17.3780   70.9310 C.ar  999  C3A999     -0.0117
     24  C24       -5.9200   17.5510   72.0860 C.ar  999  C3A999     -0.0036
     25  C25       -7.2030   16.8570   72.0810 C.ar  999  C3A999      0.0043
     26  C26       -7.5080   16.0090   70.9270 C.ar  999  C3A999      0.0554
     27  C27       -6.5530   15.8850   69.8500 C.ar  999  C3A999      0.0043
     28  C28       -5.3300   16.5350   69.8330 C.ar  999  C3A999     -0.0036
     29  C29       -8.7210   15.2390   70.8220 C.2   999  C3A999      0.2690
     30  O30       -9.7090   15.5570   71.2840 O.2   999  C3A999     -0.2680
     31  N31       -8.5040   14.1150   70.1750 N.am  999  C3A999     -0.1758
     32  C32       -9.2050   12.9560   69.7950 C.2   999  C3A999      0.0698
     33  C33      -10.1690   12.2090   70.6270 C.2   999  C3A999      0.0127
     34  C34      -11.0440   11.5320   69.6940 C.2   999  C3A999     -0.0130
     35  C35      -12.0930   10.5950   70.0370 C.2   999  C3A999     -0.0036
     36  C36      -12.8560   10.0240   68.9540 C.2   999  C3A999     -0.0006
     37  C37      -12.5780   10.3720   67.5570 C.2   999  C3A999     -0.0039
     38  C38      -11.5310   11.3190   67.2420 C.2   999  C3A999     -0.0176
     39  C39      -10.7500   11.8800   68.3200 C.3   999  C3A999      0.0674
     40  C40       -9.6310   12.8730   68.2390 C.2   999  C3A999     -0.0011
     41  N41       -2.8980   19.8940   69.5820 N.2   999  C3A999     -0.3142
@<TRIPOS>BOND
     1    15    14    1
     2    15    11    1
     3    14    13    1
     4    10    11    1
     5    10     8    1
     6    38    37    2
     7    38    39    1
     8    37    36    1
     9    11    12    1
    10     8     7    1
    11     7    16    1
    12     7     9    1
    13    40    39    1
    14    40    32    2
    15    13    12    1
    16    39    34    1
    17    16    17    1
    18    16    18    1
    19    36    35    2
    20     9     2   am
    21    18    41    2
    22    18    19    2
    23    41    21    2
    24    34    35    1
    25    34    33    2
    26    32    31    1
    27    32    33    1
    28    28    27   ar
    29    28    23   ar
    30    27    26   ar
    31     6     2    2
    32    19    20    1
    33     2     5    1
    34    31    29   am
    35    21    20    1
    36    21    22    1
    37    29    26    1
    38    29    30    2
    39    26    25   ar
    40    23    22    1
    41    23    24   ar
    42     5     4    1
    43     3     1    1
    44    25    24   ar
    45     1     4    1
