@<TRIPOS>MOLECULE
2fs9_C4A_A_1.pdb
 38 41 0 0 0
SMALL
GASTEIGER

@<TRIPOS>ATOM
      1  N1        71.3580   45.0280   85.5190 N.3   999  C4A999     -0.1314
      2  C2        70.2200   44.4320   84.8080 C.3   999  C4A999      0.1093
      3  C4        67.8510   43.5560   85.3260 C.3   999  C4A999      0.0034
      4  C5        66.4300   43.9870   85.7780 C.3   999  C4A999      0.0256
      5  C6        65.2910   42.9920   85.3790 C.3   999  C4A999      0.1445
      6  C3        68.9020   44.6680   85.5820 C.3   999  C4A999      0.0206
      7  C8        64.4300   42.5540   83.0580 C.2   999  C4A999      0.4212
      8  O9        64.5020   41.3250   83.1490 O.2   999  C4A999     -0.2246
      9  N7        64.7830   43.3600   84.0670 N.am  999  C4A999     -0.1667
     10  O10       63.9830   43.1440   81.9400 O.3   999  C4A999     -0.4335
     11  C11       63.7940   42.5570   80.6320 C.3   999  C4A999      0.2103
     12  C12       62.8870   43.4610   79.7640 C.3   999  C4A999      0.0513
     13  O14       64.5770   42.6490   87.7360 O.3   999  C4A999     -0.2037
     14  C15       63.0270   42.0300   86.0940 C.1   999  C4A999      0.1355
     15  N16       62.8730   40.7830   86.5850 N.2   999  C4A999     -0.0092
     16  O17       61.8220   40.2280   86.0480 O.2   999  C4A999     -0.3154
     17  C18       61.2920   41.1410   85.1940 C.2   999  C4A999      0.2978
     18  C19       60.0870   40.9360   84.3570 C.3   999  C4A999      0.1288
     19  C20       58.8380   40.7000   85.1410 C.ar  999  C4A999     -0.0117
     20  C21       58.6920   39.5190   85.9640 C.ar  999  C4A999     -0.0036
     21  C22       57.4960   39.2930   86.7060 C.ar  999  C4A999      0.0043
     22  C23       56.3910   40.2350   86.6650 C.ar  999  C4A999      0.0550
     23  C24       56.5500   41.4110   85.8360 C.ar  999  C4A999      0.0043
     24  C25       57.7480   41.6400   85.0920 C.ar  999  C4A999     -0.0036
     25  C26       55.2080   40.0070   87.4020 C.2   999  C4A999      0.2647
     26  O27       55.1020   38.9830   88.1020 O.2   999  C4A999     -0.2684
     27  N28       54.1870   40.8760   87.3600 N.am  999  C4A999     -0.2027
     28  C29       52.9430   40.7750   88.0600 C.3   999  C4A999      0.1043
     29  C30       52.3760   42.1320   88.5460 C.3   999  C4A999      0.0480
     30  C31       50.9510   41.8500   88.6200 C.ar  999  C4A999     -0.0243
     31  C32       50.6170   40.6960   87.8510 C.ar  999  C4A999     -0.0243
     32  C33       51.8040   40.1340   87.2110 C.3   999  C4A999      0.0480
     33  C34       49.2610   40.2320   87.7760 C.ar  999  C4A999     -0.0045
     34  C35       48.2440   40.9480   88.4990 C.ar  999  C4A999     -0.0003
     35  C36       48.5870   42.1130   89.2780 C.ar  999  C4A999     -0.0003
     36  C37       49.9510   42.5690   89.3440 C.ar  999  C4A999     -0.0045
     37  N38       62.0360   42.2600   85.2200 N.2   999  C4A999     -0.3142
     38  C13       64.1060   43.0000   86.4370 C.3   999  C4A999      0.2700
@<TRIPOS>BOND
     1    12    11    1
     2    11    10    1
     3    10     7    1
     4     7     8    2
     5     7     9   am
     6     9     5    1
     7    18    19    1
     8    18    17    1
     9     2     1    1
    10     2     6    1
    11    24    19   ar
    12    24    23   ar
    13    19    20   ar
    14    17    37    2
    15    17    16    1
    16    37    14    2
    17     3     6    1
    18     3     4    1
    19     5     4    1
    20     5    38    1
    21    23    22   ar
    22    20    21   ar
    23    16    15    1
    24    14    38    1
    25    14    15    2
    26    38    13    1
    27    22    21   ar
    28    22    25    1
    29    32    31    1
    30    32    28    1
    31    27    25   am
    32    27    28    1
    33    25    26    2
    34    33    31   ar
    35    33    34   ar
    36    31    30   ar
    37    28    29    1
    38    34    35   ar
    39    29    30    1
    40    30    36   ar
    41    35    36   ar
