@<TRIPOS>MOLECULE
2fsa_III_P_1.pdb
 50 49 0 0 0
SMALL
GASTEIGER

@<TRIPOS>ATOM
      1  N         30.1760    9.4900   63.9610 N.3     1  ALA1       -0.1231
      2  CA        30.5030    9.8690   62.5550 C.3     1  ALA1        0.1694
      3  C         31.9200   10.4140   62.4600 C.2     1  ALA1        0.2592
      4  O         32.3870   11.1140   63.3600 O.2     1  ALA1       -0.2718
      5  CB        29.5130   10.9090   62.0570 C.3     1  ALA1        0.0304
      6  N         32.6040   10.0890   61.3680 N.am    2  ARG2       -0.1966
      7  CA        33.9660   10.5550   61.1500 C.3     2  ARG2        0.1729
      8  C         33.8990   11.9670   60.5760 C.2     2  ARG2        0.2617
      9  O         33.0780   12.2490   59.7000 O.2     2  ARG2       -0.2715
     10  CB        34.6930    9.6110   60.1900 C.3     2  ARG2        0.0348
     11  CG        34.8300    8.1900   60.7330 C.3     2  ARG2        0.0492
     12  CD        35.2910    7.2000   59.6630 C.3     2  ARG2        0.2205
     13  NE        34.3420    7.1250   58.5550 N.pl3   2  ARG2       -0.0865
     14  CZ        34.5310    7.6880   57.3640 C.cat   2  ARG2        0.5346
     15  NH1       35.6430    8.3680   57.1150 N.pl3   2  ARG2        0.1354
     16  NH2       33.5940    7.5890   56.4280 N.pl3   2  ARG2        0.1354
     17  N         34.7590   12.8520   61.0700 N.am    3  THR3       -0.1937
     18  CA        34.7570   14.2400   60.6190 C.3     3  THR3        0.2028
     19  C         36.1450   14.8620   60.5450 C.2     3  THR3        0.2642
     20  O         37.1150   14.3150   61.0640 O.2     3  THR3       -0.2714
     21  CB        33.9280   15.1210   61.5740 C.3     3  THR3        0.1808
     22  OG1       34.5290   15.0950   62.8770 O.3     3  THR3       -0.2208
     23  CG2       32.4950   14.6200   61.6740 C.3     3  THR3        0.0379
     24  N         36.2220   16.0160   59.8890 N.am    4  LYS4       -0.1963
     25  CA        37.4630   16.7730   59.7790 C.3     4  LYS4        0.1728
     26  CB        37.9710   16.8240   58.3350 C.3     4  LYS4        0.0311
     27  CG        38.5430   15.5160   57.8140 C.3     4  LYS4        0.0037
     28  CD        39.2010   15.7200   56.4620 C.3     4  LYS4        0.0174
     29  CE        39.6880   14.4060   55.8740 C.3     4  LYS4        0.0722
     30  NZ        40.4120   14.6140   54.6140 N.3     4  LYS4       -0.2703
     31  CH1       40.9690   13.3550   54.1000 C.3     4  LYS4        0.0897
     32  CH2       39.6140   15.2740   53.5740 C.3     4  LYS4        0.0897
     33  C         37.1340   18.1830   60.2490 C.2     4  LYS4        0.2616
     34  O         36.2090   18.8140   59.7300 O.2     4  LYS4       -0.2715
     35  N         37.8760   18.6640   61.2440 N.am    5  GLN5       -0.1963
     36  CA        37.6580   20.0040   61.7840 C.3     5  GLN5        0.1733
     37  C         38.8920   20.8730   61.5990 C.2     5  GLN5        0.2617
     38  O         39.9920   20.3670   61.3780 O.2     5  GLN5       -0.2715
     39  CB        37.3340   19.9480   63.2790 C.3     5  GLN5        0.0408
     40  CG        36.1580   19.0800   63.6530 C.3     5  GLN5        0.0908
     41  CD        36.5190   17.6100   63.7660 C.2     5  GLN5        0.2608
     42  OE1       36.8790   16.9660   62.7810 O.2     5  GLN5       -0.2717
     43  NE2       36.4220   17.0710   64.9750 N.am    5  GLN5       -0.0878
     44  N         38.7010   22.1830   61.7110 N.am    6  THR6       -0.1951
     45  CA        39.7860   23.1430   61.5670 C.3     6  THR6        0.1897
     46  C         40.8630   22.9270   62.6220 C.2     6  THR6        0.2313
     47  O         40.6370   22.1090   63.5410 O.2     6  THR6       -0.2863
     48  CB        39.2670   24.5870   61.6980 C.3     6  THR6        0.1794
     49  OG1       40.3770   25.4930   61.7080 O.3     6  THR6       -0.2208
     50  CG2       38.4700   24.7530   62.9850 C.3     6  THR6        0.0378
@<TRIPOS>BOND
     1    32    30    1
     2    31    30    1
     3    30    29    1
     4    29    28    1
     5    16    14    1
     6    28    27    1
     7    15    14    1
     8    14    13    2
     9    27    26    1
    10    26    25    1
    11    13    12    1
    12    12    11    1
    13     9     8    2
    14    34    33    2
    15    25    24    1
    16    25    33    1
    17    24    19   am
    18    10    11    1
    19    10     7    1
    20    33    35   am
    21    19    18    1
    22    19    20    2
    23     8    17   am
    24     8     7    1
    25    18    17    1
    26    18    21    1
    27     7     6    1
    28    35    36    1
    29     6     3   am
    30    38    37    2
    31    45    48    1
    32    45    44    1
    33    45    46    1
    34    21    23    1
    35    21    22    1
    36    37    44   am
    37    37    36    1
    38    48    49    1
    39    48    50    1
    40    36    39    1
    41     5     2    1
    42     3     2    1
    43     3     4    2
    44     2     1    1
    45    46    47    2
    46    42    41    2
    47    39    40    1
    48    40    41    1
    49    41    43   am
