@<TRIPOS>MOLECULE
2fsh_ANP_A_1.pdb
 31 33 0 0 0
SMALL
GASTEIGER

@<TRIPOS>ATOM
      1  PG        50.2180   14.4660   48.8960 P.3   900  ANP900      0.4884
      2  O1G       50.9400   13.6270   49.9670 O.3   900  ANP900     -0.1240
      3  O2G       51.2830   15.0260   47.9610 O.2   900  ANP900     -0.2331
      4  O3G       49.0800   13.6840   48.2020 O.3   900  ANP900     -0.1240
      5  PB        47.9900   16.7960   49.5860 P.3   900  ANP900      0.4669
      6  O1B       46.8340   15.9490   49.2620 O.2   900  ANP900     -0.2351
      7  O2B       47.6840   17.3260   50.9750 O.3   900  ANP900     -0.1253
      8  N3B       49.5450   15.9310   49.7100 N.3   900  ANP900     -0.0163
      9  PA        49.9920   18.0160   48.1320 P.3   900  ANP900      0.2220
     10  O1A       50.6960   17.0680   47.2120 O.2   900  ANP900     -0.5170
     11  O2A       50.8020   18.3080   49.3580 O.3   900  ANP900     -0.4370
     12  O3A       48.3500   17.8840   48.5010 O.3   900  ANP900     -0.2360
     13  O5'       49.6690   19.3420   47.1970 O.3   900  ANP900     -0.3111
     14  C5'       48.3800   19.9470   46.9080 C.3   900  ANP900      0.1813
     15  C4'       48.4640   20.9840   45.7440 C.3   900  ANP900      0.1821
     16  O4'       48.2720   22.3860   46.0990 O.3   900  ANP900     -0.3135
     17  C3'       49.8150   21.0170   45.0380 C.3   900  ANP900      0.2184
     18  O3'       49.5660   21.1340   43.6360 O.3   900  ANP900     -0.2174
     19  C2'       50.5520   22.2190   45.6470 C.3   900  ANP900      0.2570
     20  O2'       51.5910   22.7300   44.8470 O.3   900  ANP900     -0.2130
     21  C1'       49.4560   23.2430   45.8620 C.3   900  ANP900      0.3186
     22  N9        49.6180   24.2060   47.0430 N.pl3 900  ANP900     -0.1439
     23  C8        49.6860   23.7590   48.3340 C.3   900  ANP900      0.3377
     24  N7        49.7240   24.7730   49.2340 N.2   900  ANP900     -0.2095
     25  C5        49.6880   25.9280   48.5250 C.2   900  ANP900      0.2526
     26  C6        49.6910   27.3530   48.8870 C.2   900  ANP900      0.4393
     27  N6        49.7890   27.6420   50.1890 N.pl3 900  ANP900      0.2180
     28  N1        49.6460   28.2960   47.9040 N.2   900  ANP900      0.0021
     29  C2        49.5520   27.9410   46.6080 C.3   900  ANP900      0.5254
     30  N3        49.5110   26.6430   46.2130 N.2   900  ANP900     -0.0055
     31  C4        49.5840   25.5820   47.0850 C.2   900  ANP900      0.3518
@<TRIPOS>BOND
     1    18    17    1
     2    20    19    1
     3    17    19    1
     4    17    15    1
     5    19    21    1
     6    15    16    1
     7    15    14    1
     8    21    16    1
     9    21    22    1
    10    30    29    1
    11    30    31    2
    12    29    28    1
    13    14    13    1
    14    22    31    1
    15    22    23    1
    16    31    25    1
    17    13     9    1
    18    10     9    2
    19    28    26    2
    20     3     1    2
    21     9    12    1
    22     9    11    1
    23     4     1    1
    24    23    24    1
    25    12     5    1
    26    25    26    1
    27    25    24    2
    28    26    27    1
    29     1     8    1
    30     1     2    1
    31     6     5    2
    32     5     8    1
    33     5     7    1
