@<TRIPOS>MOLECULE
2fsi_ADP_A_1.pdb
 27 29 0 0 0
SMALL
GASTEIGER

@<TRIPOS>ATOM
      1  PB        48.6180   16.8220   49.5700 P.3   900  ADP900      0.5373
      2  O1B       48.1830   17.3100   50.8770 O.3   900  ADP900     -0.1143
      3  O2B       49.8570   15.9440   49.5000 O.3   900  ADP900     -0.1143
      4  O3B       47.4140   16.0760   49.0870 O.2   900  ADP900     -0.2221
      5  PA        50.2830   18.4540   47.7820 P.3   900  ADP900      0.2231
      6  O1A       50.6680   17.7890   46.4920 O.2   900  ADP900     -0.5169
      7  O2A       51.3330   18.6550   48.8510 O.3   900  ADP900     -0.4370
      8  O3A       48.9140   17.9120   48.4700 O.3   900  ADP900     -0.2261
      9  O5'       49.6010   19.8810   47.4600 O.3   900  ADP900     -0.3111
     10  C5'       48.4210   19.9980   46.6380 C.3   900  ADP900      0.1813
     11  C4'       48.5340   21.1200   45.6260 C.3   900  ADP900      0.1821
     12  O4'       48.5020   22.4360   46.2630 O.3   900  ADP900     -0.3135
     13  C3'       49.8810   21.1220   44.9400 C.3   900  ADP900      0.2184
     14  O3'       49.7040   21.4050   43.5460 O.3   900  ADP900     -0.2174
     15  C2'       50.6860   22.2390   45.6620 C.3   900  ADP900      0.2570
     16  O2'       51.7640   22.8010   44.9380 O.3   900  ADP900     -0.2130
     17  C1'       49.6470   23.2750   45.9280 C.3   900  ADP900      0.3186
     18  N9        49.8880   24.2050   47.0900 N.pl3 900  ADP900     -0.1439
     19  C8        50.1290   23.7890   48.3730 C.3   900  ADP900      0.3377
     20  N7        50.1500   24.8580   49.2210 N.2   900  ADP900     -0.2095
     21  C5        49.9710   25.9610   48.4890 C.2   900  ADP900      0.2526
     22  C6        49.9810   27.3960   48.7870 C.2   900  ADP900      0.4393
     23  N6        50.1680   27.7280   50.0690 N.pl3 900  ADP900      0.2180
     24  N1        49.7860   28.2990   47.8070 N.2   900  ADP900      0.0021
     25  C2        49.5900   27.8880   46.5520 C.3   900  ADP900      0.5254
     26  N3        49.5600   26.5660   46.2180 N.2   900  ADP900     -0.0055
     27  C4        49.7650   25.5570   47.1110 C.2   900  ADP900      0.3518
@<TRIPOS>BOND
     1    14    13    1
     2    16    15    1
     3    13    11    1
     4    13    15    1
     5    11    12    1
     6    11    10    1
     7    15    17    1
     8    17    12    1
     9    17    18    1
    10    26    25    1
    11    26    27    2
    12     6     5    2
    13    25    24    1
    14    10     9    1
    15    18    27    1
    16    18    19    1
    17    27    21    1
    18     9     5    1
    19     5     8    1
    20     5     7    1
    21    24    22    2
    22    19    20    1
    23     8     1    1
    24    21    22    1
    25    21    20    2
    26    22    23    1
    27     4     1    2
    28     3     1    1
    29     1     2    1
