@<TRIPOS>MOLECULE
2fsn_ADP_A_1.pdb
 27 29 0 0 0
SMALL
GASTEIGER

@<TRIPOS>ATOM
      1  PB         4.5000   -4.2160   14.7240 P.3   328  ADP328      0.5373
      2  O1B        3.1890   -3.5340   14.9570 O.2   328  ADP328     -0.2221
      3  O2B        4.3760   -5.6890   15.1000 O.3   328  ADP328     -0.1143
      4  O3B        5.5450   -3.5320   15.5830 O.3   328  ADP328     -0.1143
      5  PA         3.9070   -3.9740   12.0830 P.3   328  ADP328      0.2231
      6  O1A        2.5490   -3.7560   12.6820 O.3   328  ADP328     -0.4370
      7  O2A        4.4780   -2.7490   11.3840 O.2   328  ADP328     -0.5169
      8  O3A        4.9710   -4.3030   13.2060 O.3   328  ADP328     -0.2261
      9  O5'        3.9400   -5.0870   10.9290 O.3   328  ADP328     -0.3111
     10  C5'        4.7700   -6.1960   11.1130 C.3   328  ADP328      0.1813
     11  C4'        5.4060   -6.7370    9.8400 C.3   328  ADP328      0.1821
     12  O4'        4.6470   -6.7420    8.6450 O.3   328  ADP328     -0.3135
     13  C3'        6.6450   -5.9540    9.4990 C.3   328  ADP328      0.2184
     14  O3'        7.6230   -6.1190   10.4540 O.3   328  ADP328     -0.2174
     15  C2'        6.9850   -6.5530    8.1520 C.3   328  ADP328      0.2570
     16  O2'        7.6840   -7.7630    8.2320 O.3   328  ADP328     -0.2130
     17  C1'        5.5930   -6.7560    7.5630 C.3   328  ADP328      0.3186
     18  N9         5.5400   -5.6470    6.5730 N.pl3 328  ADP328     -0.1439
     19  C8         5.3640   -4.3200    6.7940 C.3   328  ADP328      0.3377
     20  N7         5.4030   -3.6590    5.6500 N.2   328  ADP328     -0.2095
     21  C5         5.6390   -4.5410    4.6730 C.2   328  ADP328      0.2526
     22  C6         5.7870   -4.3910    3.2850 C.2   328  ADP328      0.4393
     23  N6         5.3380   -3.3020    2.6600 N.pl3 328  ADP328      0.2180
     24  N1         6.0210   -5.5190    2.5390 N.2   328  ADP328      0.0021
     25  C2         6.1080   -6.7620    3.1460 C.3   328  ADP328      0.5254
     26  N3         5.9610   -6.9090    4.5110 N.2   328  ADP328     -0.0055
     27  C4         5.7330   -5.7970    5.2530 C.2   328  ADP328      0.3518
@<TRIPOS>BOND
     1    24    25    1
     2    24    22    2
     3    23    22    1
     4    25    26    1
     5    22    21    1
     6    26    27    2
     7    21    27    1
     8    21    20    2
     9    27    18    1
    10    20    19    1
    11    18    19    1
    12    18    17    1
    13    17    15    1
    14    17    12    1
    15    15    16    1
    16    15    13    1
    17    12    11    1
    18    13    11    1
    19    13    14    1
    20    11    10    1
    21     9    10    1
    22     9     5    1
    23     7     5    2
    24     5     6    1
    25     5     8    1
    26     8     1    1
    27     1     2    2
    28     1     3    1
    29     1     4    1
