@<TRIPOS>MOLECULE
2fsv_NAP_C_1.pdb
 48 52 0 0 0
SMALL
GASTEIGER

@<TRIPOS>ATOM
      1  PA       -25.1490  -35.9030    7.3560 P.3   700  NAP700      0.2189
      2  O1A      -25.7160  -37.2550    7.6790 O.2   700  NAP700     -0.5170
      3  O2A      -23.9440  -35.4260    8.0900 O.3   700  NAP700     -0.4371
      4  O5B      -24.8540  -35.7320    5.7930 O.3   700  NAP700     -0.3112
      5  C5B      -23.7710  -34.9050    5.3750 C.3   700  NAP700      0.1813
      6  C4B      -23.7780  -34.8460    3.8600 C.3   700  NAP700      0.1820
      7  O4B      -22.7430  -33.9780    3.4000 O.3   700  NAP700     -0.3136
      8  C3B      -23.5340  -36.2230    3.2510 C.3   700  NAP700      0.2157
      9  O3B      -24.7010  -36.6800    2.5840 O.3   700  NAP700     -0.2175
     10  C2B      -22.3700  -36.0550    2.2920 C.3   700  NAP700      0.2314
     11  O2B      -22.7030  -36.5510    0.9960 O.3   700  NAP700     -0.2630
     12  C1B      -22.1160  -34.5510    2.2500 C.3   700  NAP700      0.3158
     13  N9A      -20.6700  -34.2000    2.2090 N.pl3 700  NAP700     -0.1439
     14  C8A      -19.6180  -34.7160    2.9030 C.3   700  NAP700      0.3377
     15  N7A      -18.4310  -34.1050    2.5680 N.2   700  NAP700     -0.2095
     16  C5A      -18.7190  -33.1770    1.6390 C.2   700  NAP700      0.2526
     17  C6A      -18.0510  -32.1490    0.8070 C.2   700  NAP700      0.4393
     18  N6A      -16.7150  -31.9710    0.9070 N.pl3 700  NAP700      0.2180
     19  N1A      -18.7840  -31.3920   -0.0490 N.2   700  NAP700      0.0021
     20  C2A      -20.1190  -31.5190   -0.1970 C.3   700  NAP700      0.5254
     21  N3A      -20.8320  -32.4150    0.5020 N.2   700  NAP700     -0.0055
     22  C4A      -20.1470  -33.2660    1.4370 C.2   700  NAP700      0.3518
     23  O3       -26.3610  -34.8700    7.5080 O.3   700  NAP700     -0.2703
     24  PN       -26.4160  -33.5600    8.4400 P.3   700  NAP700      0.2189
     25  O1N      -27.5130  -32.7480    7.8040 O.2   700  NAP700     -0.5170
     26  O2N      -25.0790  -32.9110    8.6160 O.3   700  NAP700     -0.4371
     27  O5D      -26.9440  -34.2070    9.8170 O.3   700  NAP700     -0.3112
     28  C5D      -26.0480  -34.6150   10.8460 C.3   700  NAP700      0.1813
     29  C4D      -26.2690  -36.0640   11.2470 C.3   700  NAP700      0.1799
     30  O4D      -25.2350  -36.4280   12.1660 O.3   700  NAP700     -0.3327
     31  C3D      -27.5880  -36.2990   11.9670 C.3   700  NAP700      0.2158
     32  O3D      -28.1240  -37.5600   11.6010 O.3   700  NAP700     -0.2175
     33  C2D      -27.2350  -36.3110   13.4360 C.3   700  NAP700      0.2309
     34  O2D      -28.1150  -37.1310   14.1860 O.3   700  NAP700     -0.2158
     35  C1D      -25.8130  -36.8630   13.4030 C.3   700  NAP700      0.2263
     36  N1N      -25.0330  -36.4080   14.5470 N.pl3 700  NAP700     -0.2787
     37  C2N      -24.9680  -35.0000   14.9410 C.3   700  NAP700      0.1244
     38  C3N      -24.5260  -34.6520   16.1600 C.2   700  NAP700      0.0544
     39  C7N      -24.4620  -33.2420   16.5540 C.2   700  NAP700      0.2818
     40  O7N      -24.1870  -32.9670   17.7080 O.2   700  NAP700     -0.2670
     41  N7N      -24.6990  -32.2780   15.6670 N.am  700  NAP700     -0.0839
     42  C4N      -24.0870  -35.7070   17.1590 C.2   700  NAP700      0.0033
     43  C5N      -23.8360  -37.0680   16.5440 C.2   700  NAP700      0.0157
     44  C6N      -24.2790  -37.3870   15.3320 C.2   700  NAP700      0.0633
     45  P2B      -21.6120  -36.8860   -0.1420 P.3   700  NAP700      0.5328
     46  O1X      -22.4110  -37.5520   -1.2350 O.2   700  NAP700     -0.2224
     47  O2X      -21.0910  -35.5300   -0.5340 O.3   700  NAP700     -0.1145
     48  O3X      -20.6560  -37.8280    0.5350 O.3   700  NAP700     -0.1145
@<TRIPOS>BOND
     1    46    45    2
     2    47    45    1
     3    20    19    1
     4    20    21    1
     5    45    48    1
     6    45    11    1
     7    19    17    2
     8    21    22    2
     9    17    18    1
    10    17    16    1
    11    11    10    1
    12    22    16    1
    13    22    13    1
    14    16    15    2
    15    13    12    1
    16    13    14    1
    17    12    10    1
    18    12     7    1
    19    10     8    1
    20    15    14    1
    21     9     8    1
    22     8     6    1
    23     7     6    1
    24     6     5    1
    25     5     4    1
    26     4     1    1
    27     1    23    1
    28     1     2    2
    29     1     3    1
    30    23    24    1
    31    25    24    2
    32    24    26    1
    33    24    27    1
    34    27    28    1
    35    28    29    1
    36    29    31    1
    37    29    30    1
    38    32    31    1
    39    31    33    1
    40    30    35    1
    41    35    33    1
    42    35    36    1
    43    33    34    1
    44    36    37    1
    45    36    44    1
    46    37    38    1
    47    44    43    2
    48    41    39   am
    49    38    39    1
    50    38    42    2
    51    43    42    1
    52    39    40    2
