@<TRIPOS>MOLECULE
2fsv_NAD_A_1.pdb
 44 48 0 0 0
SMALL
GASTEIGER

@<TRIPOS>ATOM
      1  PA        -7.6070    6.3650   26.6680 P.3   600  NAD600      0.2189
      2  O1A       -6.8830    5.1990   27.3020 O.3   600  NAD600     -0.4371
      3  O2A       -7.2420    7.7750   27.0680 O.2   600  NAD600     -0.5170
      4  O5B       -9.1910    6.1780   26.9200 O.3   600  NAD600     -0.3112
      5  C5B       -9.9510    5.1620   26.2620 C.3   600  NAD600      0.1813
      6  C4B      -11.1550    5.7490   25.5340 C.3   600  NAD600      0.1821
      7  O4B      -12.0680    6.3080   26.4790 O.3   600  NAD600     -0.3135
      8  C3B      -10.8480    6.8870   24.5600 C.3   600  NAD600      0.2184
      9  O3B      -11.1410    6.4830   23.2380 O.3   600  NAD600     -0.2174
     10  C2B      -11.7460    8.0360   24.9930 C.3   600  NAD600      0.2570
     11  O2B      -12.2900    8.7810   23.9160 O.3   600  NAD600     -0.2130
     12  C1B      -12.8130    7.3180   25.8060 C.3   600  NAD600      0.3186
     13  N9A      -13.5410    8.1330   26.8030 N.pl3 600  NAD600     -0.1439
     14  C8A      -13.0340    9.0120   27.7030 C.3   600  NAD600      0.3377
     15  N7A      -14.0140    9.5790   28.4820 N.2   600  NAD600     -0.2095
     16  C5A      -15.1850    9.0500   28.0770 C.2   600  NAD600      0.2526
     17  C6A      -16.6360    9.1280   28.3870 C.2   600  NAD600      0.4393
     18  N6A      -17.0900    9.9470   29.3660 N.pl3 600  NAD600      0.2180
     19  N1A      -17.5040    8.3640   27.6750 N.2   600  NAD600      0.0021
     20  C2A      -17.1400    7.5220   26.6860 C.3   600  NAD600      0.5254
     21  N3A      -15.8590    7.3690   26.3180 N.2   600  NAD600     -0.0055
     22  C4A      -14.8470    8.1320   27.0070 C.2   600  NAD600      0.3518
     23  O3        -7.4870    6.2700   25.0630 O.3   600  NAD600     -0.2703
     24  PN        -6.3380    5.4470   24.2940 P.3   600  NAD600      0.2189
     25  O1N       -6.4940    3.9740   24.5670 O.3   600  NAD600     -0.4371
     26  O2N       -4.9990    6.1030   24.5060 O.2   600  NAD600     -0.5170
     27  O5D       -6.7740    5.6970   22.7760 O.3   600  NAD600     -0.3112
     28  C5D       -7.1840    6.9720   22.2950 C.3   600  NAD600      0.1813
     29  C4D       -7.0530    7.0250   20.7740 C.3   600  NAD600      0.1799
     30  O4D       -6.0720    8.0100   20.4220 O.3   600  NAD600     -0.3327
     31  C3D       -6.6600    5.6900   20.1290 C.3   600  NAD600      0.2158
     32  O3D       -7.7300    5.1630   19.3570 O.3   600  NAD600     -0.2175
     33  C2D       -5.4520    5.9960   19.2710 C.3   600  NAD600      0.2309
     34  O2D       -5.7230    5.7360   17.9010 O.3   600  NAD600     -0.2158
     35  C1D       -5.1280    7.4780   19.4900 C.3   600  NAD600      0.2263
     36  N1N       -3.7570    7.4620   19.9830 N.pl3 600  NAD600     -0.2787
     37  C2N       -3.4760    6.8770   21.3160 C.3   600  NAD600      0.1244
     38  C3N       -2.2150    6.7680   21.7540 C.2   600  NAD600      0.0544
     39  C7N       -1.8770    6.1890   23.0520 C.2   600  NAD600      0.2818
     40  O7N       -1.4400    6.9150   23.9300 O.2   600  NAD600     -0.2670
     41  N7N       -2.0440    4.8940   23.2650 N.am  600  NAD600     -0.0839
     42  C4N       -1.1290    7.2750   20.8530 C.2   600  NAD600      0.0033
     43  C5N       -1.4070    7.8950   19.5080 C.2   600  NAD600      0.0157
     44  C6N       -2.6770    7.9880   19.1170 C.2   600  NAD600      0.0633
@<TRIPOS>BOND
     1    34    33    1
     2    44    43    2
     3    44    36    1
     4    33    35    1
     5    33    31    1
     6    32    31    1
     7    35    36    1
     8    35    30    1
     9    43    42    1
    10    36    37    1
    11    31    29    1
    12    30    29    1
    13    29    28    1
    14    42    38    2
    15    37    38    1
    16    38    39    1
    17    28    27    1
    18    27    24    1
    19    39    41   am
    20    39    40    2
    21     9     8    1
    22    11    10    1
    23    24    26    2
    24    24    25    1
    25    24    23    1
    26     8    10    1
    27     8     6    1
    28    10    12    1
    29    23     1    1
    30     6     5    1
    31     6     7    1
    32    12     7    1
    33    12    13    1
    34     5     4    1
    35    21    20    1
    36    21    22    2
    37     1     4    1
    38     1     3    2
    39     1     2    1
    40    20    19    1
    41    13    22    1
    42    13    14    1
    43    22    16    1
    44    19    17    2
    45    14    15    1
    46    16    17    1
    47    16    15    2
    48    17    18    1
