@<TRIPOS>MOLECULE
2fsz_OHT_A_1.pdb
 29 31 0 0 0
SMALL
GASTEIGER

@<TRIPOS>ATOM
      1  C10       89.6910   19.2370   -4.3800 C.3   101  OHT101      0.0050
      2  C9        90.8600   18.8850   -5.3160 C.3   101  OHT101      0.0264
      3  C8        92.2720   19.2380   -4.7570 C.2   101  OHT101     -0.0222
      4  C11       92.7730   18.0360   -3.9710 C.ar  101  OHT101     -0.0040
      5  C16       92.8320   18.1300   -2.4980 C.ar  101  OHT101     -0.0003
      6  C15       93.2920   17.0110   -1.7020 C.ar  101  OHT101     -0.0000
      7  C14       93.6950   15.7920   -2.3760 C.ar  101  OHT101     -0.0000
      8  C13       93.6490   15.6680   -3.8290 C.ar  101  OHT101     -0.0000
      9  C12       93.1880   16.7920   -4.6410 C.ar  101  OHT101     -0.0003
     10  C7        93.0120   20.4990   -4.9110 C.2   101  OHT101     -0.0040
     11  C1        92.5340   21.8270   -5.6290 C.ar  101  OHT101     -0.0001
     12  C2        91.3280   22.5500   -5.2170 C.ar  101  OHT101      0.0033
     13  C3        90.8880   23.7710   -5.8200 C.ar  101  OHT101      0.0420
     14  C4        91.6690   24.3250   -6.8820 C.ar  101  OHT101      0.1957
     15  O4        91.2640   25.4910   -7.4560 O.3   101  OHT101     -0.2866
     16  C5        92.8740   23.6790   -7.3610 C.ar  101  OHT101      0.0420
     17  C6        93.2970   22.4480   -6.7360 C.ar  101  OHT101      0.0033
     18  C17       94.4400   20.5940   -4.3110 C.ar  101  OHT101     -0.0001
     19  C18       94.7010   21.4750   -3.1540 C.ar  101  OHT101      0.0031
     20  C19       96.0320   21.5500   -2.5880 C.ar  101  OHT101      0.0369
     21  C20       97.1290   20.7390   -3.1710 C.ar  101  OHT101      0.1386
     22  O20       98.4540   20.7210   -2.6800 O.3   101  OHT101     -0.4740
     23  C23       99.4570   21.5750   -3.2030 C.3   101  OHT101      0.2226
     24  C24      100.7040   21.5400   -2.3110 C.3   101  OHT101      0.1201
     25  N24      101.0410   22.9250   -1.9320 N.3   101  OHT101     -0.2672
     26  C25      102.5000   23.0940   -1.9470 C.3   101  OHT101      0.0898
     27  C26      100.5650   23.2800   -0.5870 C.3   101  OHT101      0.0898
     28  C21       96.8760   19.8880   -4.2990 C.ar  101  OHT101      0.0369
     29  C22       95.5500   19.8080   -4.8700 C.ar  101  OHT101      0.0031
@<TRIPOS>BOND
     1    15    14    1
     2    16    14   ar
     3    16    17   ar
     4    14    13   ar
     5    17    11   ar
     6    13    12   ar
     7    11    12   ar
     8    11    10    1
     9     2     3    1
    10     2     1    1
    11    10     3    2
    12    10    18    1
    13    29    18   ar
    14    29    28   ar
    15     3     4    1
    16     9     4   ar
    17     9     8   ar
    18    18    19   ar
    19    28    21   ar
    20     4     5   ar
    21     8     7   ar
    22    23    22    1
    23    23    24    1
    24    21    22    1
    25    21    20   ar
    26    19    20   ar
    27     5     6   ar
    28     7     6   ar
    29    24    25    1
    30    26    25    1
    31    25    27    1
