@<TRIPOS>MOLECULE
2ft2_C28_A_1.pdb
 32 34 0 0 0
SMALL
GASTEIGER

@<TRIPOS>ATOM
      1  C2        69.1800   80.6760   91.1760 C.ar  999  C28999      0.1401
      2  C4        68.3110   80.5110   88.8960 C.ar  999  C28999     -0.0003
      3  C5        67.8760   79.1680   89.1440 C.ar  999  C28999      0.0020
      4  C6        68.1070   78.6040   90.4510 C.ar  999  C28999     -0.0003
      5  C1        68.7650   79.3560   91.4530 C.ar  999  C28999      0.0294
      6  C3        68.9680   81.2570   89.9070 C.ar  999  C28999      0.0294
      7  C8        67.1660   78.3950   88.0340 C.3   999  C28999      0.1906
      8  F7        69.7950   81.3820   92.1250 F     999  C28999     -0.2042
      9  N9        65.9760   77.6610   88.5640 N.3   999  C28999     -0.1973
     10  C10       68.1490   77.4250   87.2960 C.3   999  C28999      0.4157
     11  C11       64.7700   77.5830   87.7080 C.3   999  C28999      0.1762
     12  C12       64.2760   79.0030   87.3600 C.2   999  C28999      0.2593
     13  C13       63.6820   76.7410   88.3630 C.3   999  C28999      0.1957
     14  S14       63.6700   75.0420   87.8080 S.O2  999  C28999      0.0459
     15  N15       64.7690   74.2570   88.8580 N.3   999  C28999     -0.1542
     16  N16       63.9830   79.4210   86.0900 N.am  999  C28999     -0.2018
     17  O17       64.1390   79.8360   88.2590 O.2   999  C28999     -0.2718
     18  C18       63.5200   80.6640   85.4230 C.3   999  C28999      0.1166
     19  C19       64.3200   81.9550   85.7260 C.3   999  C28999      0.0279
     20  C20       64.0220   81.2930   84.1480 C.3   999  C28999      0.0279
     21  O21       64.2120   74.9680   86.4640 O.2   999  C28999     -0.1572
     22  F22       69.1820   78.0900   86.7170 F     999  C28999     -0.1681
     23  F23       68.6860   76.5050   88.1400 F     999  C28999     -0.1681
     24  F24       67.5180   76.7420   86.3040 F     999  C28999     -0.1681
     25  O25       62.3610   74.5050   88.1270 O.2   999  C28999     -0.1572
     26  C26       66.2490   74.3330   88.5480 C.3   999  C28999      0.1275
     27  C27       66.9450   73.1150   89.1850 C.3   999  C28999      0.1613
     28  O28       66.6260   73.0090   90.6040 O.3   999  C28999     -0.3507
     29  C29       65.1990   72.9110   90.8650 C.3   999  C28999      0.1613
     30  C30       64.4610   74.1520   90.3300 C.3   999  C28999      0.1275
     31  N32       61.3190   81.8740   85.2480 N.2   999  C28999     -0.1496
     32  C31       62.0240   80.8890   85.7140 C.2   999  C28999      0.1150
@<TRIPOS>BOND
     1    20    18    1
     2    20    19    1
     3    31    32    2
     4    18    32    1
     5    18    19    1
     6    18    16    1
     7    16    12   am
     8    24    10    1
     9    21    14    2
    10    22    10    1
    11    10     7    1
    12    10    23    1
    13    12    11    1
    14    12    17    2
    15    11    13    1
    16    11     9    1
    17    14    25    2
    18    14    13    1
    19    14    15    1
    20     7     9    1
    21     7     3    1
    22    26    15    1
    23    26    27    1
    24    15    30    1
    25     2     3   ar
    26     2     6   ar
    27     3     4   ar
    28    27    28    1
    29     6     1   ar
    30    30    29    1
    31     4     5   ar
    32    28    29    1
    33     1     5   ar
    34     1     8    1
