@<TRIPOS>MOLECULE
2ftd_ILI_A_1.pdb
 38 41 0 0 0
SMALL
GASTEIGER

@<TRIPOS>ATOM
      1  N3        85.4710  -24.4740 -102.1030 N.ar  300  ILI300     -0.2245
      2  C4        85.1060  -24.7850 -100.8030 C.ar  300  ILI300      0.2030
      3  C5        84.8840  -23.8180  -99.7910 C.ar  300  ILI300      0.0395
      4  C6        85.0510  -22.4570 -100.1470 C.ar  300  ILI300      0.0046
      5  C13       83.3540  -27.6300 -104.8420 C.3   300  ILI300      0.1271
      6  C15       82.4240  -25.6830 -103.1940 C.3   300  ILI300      0.0196
      7  C20       82.4820  -29.2960 -106.4190 C.2   300  ILI300      0.2613
      8  C22       81.4810  -30.4480 -106.6640 C.3   300  ILI300      0.1731
      9  C24       81.3160  -33.0330 -106.7540 C.3   300  ILI300      0.0022
     10  C26       80.1120  -33.1050 -105.7800 C.3   300  ILI300      0.0001
     11  C28       80.0600  -29.2920 -108.3640 C.2   300  ILI300      0.2999
     12  C1        85.4230  -22.1000 -101.4670 C.ar  300  ILI300      0.0208
     13  C2        85.6210  -23.1360 -102.4070 C.ar  300  ILI300      0.1004
     14  S7        84.9240  -26.5510 -100.4950 S.O2  300  ILI300      0.0799
     15  O8        84.2860  -26.6790  -99.1810 O.2   300  ILI300     -0.1513
     16  O9        86.2580  -27.1320 -100.6920 O.2   300  ILI300     -0.1513
     17  N10       83.8840  -27.0700 -101.7040 N.3   300  ILI300     -0.1529
     18  C11       84.2680  -28.2610 -102.5140 C.3   300  ILI300      0.1303
     19  C12       84.6440  -28.0350 -103.9920 C.3   300  ILI300      0.1893
     20  C14       82.3160  -26.5250 -104.4530 C.3   300  ILI300      0.0258
     21  C16       82.5720  -26.3840 -101.8430 C.3   300  ILI300      0.0798
     22  O17       85.5620  -27.0680 -104.0990 O.3   300  ILI300     -0.2197
     23  C18       81.3950  -27.3300 -101.5170 C.3   300  ILI300      0.0192
     24  N19       82.4790  -28.7640 -105.1560 N.am  300  ILI300     -0.2031
     25  O21       83.2110  -28.8730 -107.3390 O.2   300  ILI300     -0.2715
     26  C23       82.2070  -31.7990 -106.5060 C.3   300  ILI300      0.0311
     27  C25       82.1400  -34.2940 -106.5970 C.3   300  ILI300      0.0001
     28  N27       81.0190  -30.2380 -108.0310 N.am  300  ILI300     -0.1914
     29  O29       79.5420  -28.5790 -107.5060 O.2   300  ILI300     -0.2650
     30  C30       79.7690  -29.1940 -109.7720 C.ar  300  ILI300      0.2000
     31  C31       79.6720  -30.1180 -110.7820 C.ar  300  ILI300      0.0453
     32  C32       79.3850  -29.4290 -111.9750 C.ar  300  ILI300      0.0377
     33  C33       79.3160  -28.0700 -111.6070 C.ar  300  ILI300      0.1455
     34  O34       79.5500  -27.9360 -110.2780 O.2   300  ILI300     -0.4488
     35  C35       79.1700  -29.7850 -113.3420 C.ar  300  ILI300      0.0031
     36  C36       78.8930  -28.7520 -114.2900 C.ar  300  ILI300      0.0002
     37  C37       78.8310  -27.3870 -113.8800 C.ar  300  ILI300      0.0031
     38  C38       79.0430  -27.0150 -112.5200 C.ar  300  ILI300      0.0375
@<TRIPOS>BOND
     1    36    37   ar
     2    36    35   ar
     3    37    38   ar
     4    35    32   ar
     5    38    33   ar
     6    32    33   ar
     7    32    31   ar
     8    33    34   ar
     9    31    30   ar
    10    34    30   ar
    11    30    11    1
    12    11    28   am
    13    11    29    2
    14    28     8    1
    15    25     7    2
    16     9    27    1
    17     9    26    1
    18     9    10    1
    19     8    26    1
    20     8     7    1
    21     7    24   am
    22    24     5    1
    23     5    20    1
    24     5    19    1
    25    20     6    1
    26    22    19    1
    27    19    18    1
    28     6    21    1
    29    18    17    1
    30    13     1   ar
    31    13    12   ar
    32     1     2   ar
    33    21    17    1
    34    21    23    1
    35    17    14    1
    36    12     4   ar
    37     2    14    1
    38     2     3   ar
    39    16    14    2
    40    14    15    2
    41     4     3   ar
