@<TRIPOS>MOLECULE
2fto_TMP_X_1.pdb
 21 22 0 0 0
SMALL
GASTEIGER

@<TRIPOS>ATOM
      1  P         40.8030  -13.9880   45.6580 P.3   265  TMP265      0.5327
      2  O1P       40.7280  -14.3570   47.1160 O.3   265  TMP265     -0.1145
      3  O2P       41.8650  -13.0010   45.2890 O.3   265  TMP265     -0.1145
      4  O3P       39.4930  -13.4870   45.1750 O.2   265  TMP265     -0.2224
      5  O5'       41.1580  -15.3360   44.8540 O.3   265  TMP265     -0.2675
      6  C5'       41.4110  -15.4010   43.4530 C.3   265  TMP265      0.1858
      7  C4'       42.7000  -16.2020   43.2120 C.3   265  TMP265      0.1774
      8  O4'       42.7600  -16.5720   41.8250 O.3   265  TMP265     -0.3339
      9  C3'       43.9610  -15.3690   43.4840 C.3   265  TMP265      0.1857
     10  O3'       45.0530  -16.2170   43.8900 O.3   265  TMP265     -0.2203
     11  C2'       44.2670  -14.7580   42.1210 C.3   265  TMP265      0.0874
     12  C1'       43.8860  -15.9300   41.2030 C.3   265  TMP265      0.2090
     13  N1        43.4740  -15.4990   39.8770 N.am  265  TMP265     -0.1794
     14  C2        44.4260  -14.9520   38.9790 C.1   265  TMP265      0.2844
     15  O2        45.6200  -14.8020   39.3270 O.2   265  TMP265     -0.1918
     16  N3        44.0380  -14.5580   37.7540 N.2   265  TMP265     -0.2455
     17  C4        42.7740  -14.7060   37.3370 C.1   265  TMP265      0.2134
     18  O4        42.4260  -14.3210   36.1990 O.2   265  TMP265     -0.2088
     19  C5        41.7600  -15.3070   38.2330 C.2   265  TMP265      0.0891
     20  C5M       40.3530  -15.4550   37.7330 C.3   265  TMP265      0.0462
     21  C6        42.1730  -15.6790   39.5010 C.2   265  TMP265      0.0877
@<TRIPOS>BOND
     1    18    17    2
     2    17    16    2
     3    17    19    1
     4    20    19    1
     5    16    14    2
     6    19    21    2
     7    14    15    2
     8    14    13   am
     9    21    13    1
    10    13    12    1
    11    12     8    1
    12    12    11    1
    13     8     7    1
    14    11     9    1
    15     7     6    1
    16     7     9    1
    17     6     5    1
    18     9    10    1
    19     5     1    1
    20     4     1    2
    21     3     1    1
    22     1     2    1
