@<TRIPOS>MOLECULE
2fto_CB3_X_1.pdb
 35 37 0 0 0
SMALL
GASTEIGER

@<TRIPOS>ATOM
      1  N1        42.2520  -19.5290   41.6060 N.2   266  CB3266     -0.3245
      2  C2        43.5700  -19.4980   41.9840 C.1   266  CB3266      0.2518
      3  NA2       43.8640  -19.6780   43.2620 N.pl3 266  CB3266     -0.0226
      4  N3        44.5710  -19.2590   41.0450 N.2   266  CB3266     -0.2501
      5  C4        44.2340  -19.0830   39.7070 C.1   266  CB3266      0.2180
      6  O4        45.0820  -18.5960   38.9510 O.2   266  CB3266     -0.2085
      7  C4A       42.8760  -19.1470   39.3100 C.2   266  CB3266      0.1220
      8  C5        42.4680  -19.0020   37.9870 C.2   266  CB3266     -0.0051
      9  C6        41.0970  -19.0720   37.5950 C.3   266  CB3266      0.0646
     10  C7        40.1390  -19.2850   38.5900 C.2   266  CB3266     -0.0177
     11  C8        40.5400  -19.4300   39.9120 C.2   266  CB3266      0.0296
     12  C8A       41.8920  -19.3730   40.2830 C.2   266  CB3266      0.1564
     13  C9        40.6510  -18.9610   36.1270 C.3   266  CB3266      0.1004
     14  N10       41.7700  -19.2620   35.2100 N.pl3 266  CB3266     -0.2959
     15  C11       44.0850  -22.8380   35.4760 C.ar  266  CB3266      0.0551
     16  C12       43.0130  -22.6390   36.3380 C.ar  266  CB3266      0.0058
     17  C13       42.2620  -21.4650   36.2380 C.ar  266  CB3266      0.0147
     18  C14       42.5600  -20.4650   35.3020 C.ar  266  CB3266      0.0486
     19  C15       43.6340  -20.6700   34.4500 C.ar  266  CB3266      0.0147
     20  C16       44.3960  -21.8480   34.5420 C.ar  266  CB3266      0.0058
     21  C         44.9050  -24.1020   35.5580 C.2   266  CB3266      0.2652
     22  O         44.6510  -24.9770   36.5150 O.2   266  CB3266     -0.2684
     23  N         45.8600  -24.2870   34.6540 N.am  266  CB3266     -0.1918
     24  CA        46.7340  -25.4440   34.6440 C.3   266  CB3266      0.1986
     25  CB        46.2030  -26.6120   33.7960 C.3   266  CB3266      0.0451
     26  CG        45.6720  -26.1780   32.4400 C.3   266  CB3266      0.1164
     27  CD        45.0010  -27.3360   31.7260 C.2   266  CB3266      0.3649
     28  OE1       45.7220  -28.1840   31.1350 O.co2 266  CB3266     -0.2457
     29  OE2       43.7420  -27.4520   31.6880 O.co2 266  CB3266     -0.2457
     30  CT        48.1040  -25.0120   34.1710 C.2   266  CB3266      0.3842
     31  O1        49.0500  -25.8250   34.3730 O.co2 266  CB3266     -0.2437
     32  O2        48.3000  -23.8840   33.5890 O.co2 266  CB3266     -0.2437
     33  CP1       42.1210  -18.2730   34.2030 C.3   266  CB3266      0.1695
     34  CP2       43.2770  -17.4010   34.6200 C.1   266  CB3266     -0.0557
     35  CP3       44.2110  -16.7060   34.8760 C.1   266  CB3266     -0.0124
@<TRIPOS>BOND
     1    28    27   ar
     2    29    27   ar
     3    27    26    1
     4    26    25    1
     5    32    30   ar
     6    25    24    1
     7    30    31   ar
     8    30    24    1
     9    33    34    1
    10    33    14    1
    11    19    20   ar
    12    19    18   ar
    13    20    15   ar
    14    34    35    3
    15    24    23    1
    16    23    21   am
    17    14    18    1
    18    14    13    1
    19    18    17   ar
    20    15    21    1
    21    15    16   ar
    22    21    22    2
    23    13     9    1
    24    17    16   ar
    25     9     8    1
    26     9    10    1
    27     8     7    2
    28    10    11    2
    29     6     5    2
    30     7     5    1
    31     7    12    1
    32     5     4    2
    33    11    12    1
    34    12     1    2
    35     4     2    2
    36     1     2    2
    37     2     3    1
