@<TRIPOS>MOLECULE
2fu7_PHN_A_1.pdb
 14 16 0 0 0
SMALL
GASTEIGER

@<TRIPOS>ATOM
      1  N1        -3.6360   57.5540   83.0240 N.ar  410  PHN410     -0.2423
      2  C2        -3.1110   56.8830   84.0590 C.ar  410  PHN410      0.0989
      3  C3        -1.8230   57.1480   84.5280 C.ar  410  PHN410      0.0207
      4  C4        -1.0160   58.1310   83.9450 C.ar  410  PHN410      0.0031
      5  C4A       -1.5220   58.8540   82.8730 C.ar  410  PHN410      0.0192
      6  C5        -0.7800   59.8550   82.2280 C.ar  410  PHN410      0.0016
      7  C6        -1.3080   60.5590   81.1400 C.ar  410  PHN410      0.0016
      8  C6A       -2.5980   60.2910   80.6550 C.ar  410  PHN410      0.0192
      9  C7        -3.1410   60.9890   79.5860 C.ar  410  PHN410      0.0031
     10  C8        -4.4310   60.6640   79.1620 C.ar  410  PHN410      0.0207
     11  C9        -5.1830   59.6690   79.7900 C.ar  410  PHN410      0.0989
     12  N10       -4.7010   58.9600   80.8280 N.ar  410  PHN410     -0.2423
     13  C10       -3.4560   59.2430   81.2800 C.ar  410  PHN410      0.0988
     14  C1A       -2.9020   58.5120   82.4200 C.ar  410  PHN410      0.0988
@<TRIPOS>BOND
     1    10     9   ar
     2    10    11   ar
     3     9     8   ar
     4    11    12   ar
     5     8     7   ar
     6     8    13   ar
     7    12    13   ar
     8     7     6   ar
     9    13    14   ar
    10     6     5   ar
    11    14     5   ar
    12    14     1   ar
    13     5     4   ar
    14     1     2   ar
    15     4     3   ar
    16     2     3   ar
