@<TRIPOS>MOLECULE
2fu8_MCO_A_1.pdb
 14 14 0 0 0
SMALL
GASTEIGER

@<TRIPOS>ATOM
      1  O2        12.4610   27.8840   36.7350 O.co2 1410  MCO1410    -0.2438
      2  C9        12.2550   28.3950   35.5990 C.2   1410  MCO1410     0.3831
      3  O3        12.4650   29.6100   35.3680 O.co2 1410  MCO1410    -0.2438
      4  C8        11.5800   27.5560   34.5390 C.3   1410  MCO1410     0.1872
      5  C7        10.1170   27.4990   34.9540 C.3   1410  MCO1410     0.0591
      6  C6         9.2650   28.2030   33.9290 C.2   1410  MCO1410    -0.0077
      7  C5        10.2110   28.5780   32.8020 C.2   1410  MCO1410     0.0635
      8  N         11.5460   28.1730   33.1870 N.am  1410  MCO1410    -0.2486
      9  C4        12.6470   28.3380   32.4130 C.2   1410  MCO1410     0.2302
     10  O1        13.7630   27.9650   32.7670 O.2   1410  MCO1410    -0.2745
     11  C2        12.5530   28.9890   31.0430 C.3   1410  MCO1410     0.0887
     12  C3        13.1740   28.0450   29.9990 C.3   1410  MCO1410     0.0105
     13  C1        13.2790   30.3310   31.0050 C.3   1410  MCO1410     0.0777
     14  S         12.5730   31.5720   32.1160 S.3   1410  MCO1410    -0.0816
@<TRIPOS>BOND
     1    12    11    1
     2    13    11    1
     3    13    14    1
     4    11     9    1
     5     9    10    2
     6     9     8   am
     7     7     8    1
     8     7     6    2
     9     8     4    1
    10     6     5    1
    11     4     5    1
    12     4     2    1
    13     3     2   ar
    14     2     1   ar
