@<TRIPOS>MOLECULE
2fu9_MP2_A_1.pdb
 21 21 0 0 0
SMALL
GASTEIGER

@<TRIPOS>ATOM
      1  O20       14.3980   26.4420   31.2410 O.2   1410  MP21410    -0.2245
      2  C19       14.5090   27.0310   30.1760 C.2   1410  MP21410     0.4219
      3  N18       14.0650   28.2670   29.9830 N.am  1410  MP21410    -0.1601
      4  C15       13.3910   28.9760   31.0400 C.3   1410  MP21410     0.1877
      5  C17       13.3170   30.4380   30.6260 C.3   1410  MP21410     0.0998
      6  S21       12.8000   31.5280   31.9750 S.3   1410  MP21410    -0.0797
      7  C13       12.0280   28.3410   31.2170 C.2   1410  MP21410     0.2628
      8  O14       11.4670   27.8770   30.2300 O.2   1410  MP21410    -0.2714
      9  N         11.4460   28.2370   32.4060 N.am  1410  MP21410    -0.1917
     10  CA        12.0480   28.6310   33.6530 C.3   1410  MP21410     0.2285
     11  C         11.0390   29.0460   34.6870 C.2   1410  MP21410     0.3865
     12  O1         9.8060   28.9190   34.4590 O.co2 1410  MP21410    -0.2437
     13  O2        11.5190   29.5090   35.7460 O.co2 1410  MP21410    -0.2437
     14  O22       15.1620   26.3850   29.0560 O.3   1410  MP21410    -0.4285
     15  C23       15.7850   25.1160   29.2860 C.3   1410  MP21410     0.2368
     16  C24       16.3200   24.6010   27.9790 C.ar  1410  MP21410     0.0213
     17  C29       17.6840   24.3570   27.8270 C.ar  1410  MP21410    -0.0007
     18  C28       18.1570   23.8810   26.6130 C.ar  1410  MP21410    -0.0002
     19  C27       17.2760   23.6490   25.5610 C.ar  1410  MP21410    -0.0000
     20  C26       15.9130   23.9020   25.7210 C.ar  1410  MP21410    -0.0002
     21  C25       15.4320   24.3820   26.9300 C.ar  1410  MP21410    -0.0007
@<TRIPOS>BOND
     1    19    20   ar
     2    19    18   ar
     3    20    21   ar
     4    18    17   ar
     5    21    16   ar
     6    17    16   ar
     7    16    15    1
     8    14    15    1
     9    14     2    1
    10     3     2   am
    11     3     4    1
    12     2     1    2
    13     8     7    2
    14     5     4    1
    15     5     6    1
    16     4     7    1
    17     7     9   am
    18     9    10    1
    19    10    11    1
    20    12    11   ar
    21    11    13   ar
