@<TRIPOS>MOLECULE
2fub_AZA_A_1.pdb
 11 12 0 0 0
SMALL
GASTEIGER

@<TRIPOS>ATOM
      1  N1        29.7510   27.5100   36.4690 N.2   302  AZA302     -0.2300
      2  C2        29.0320   27.3120   37.6290 C.1   302  AZA302      0.3745
      3  O2        27.8810   27.7800   37.6720 O.2   302  AZA302     -0.1738
      4  N3        29.5350   26.6330   38.7110 N.2   302  AZA302     -0.2491
      5  C4        30.8100   26.1310   38.5980 C.1   302  AZA302      0.1531
      6  C5        31.6180   26.2800   37.4230 C.2   302  AZA302      0.2717
      7  C6        31.0050   27.0430   36.2890 C.1   302  AZA302      0.2477
      8  O6        31.6310   27.2450   35.2150 O.2   302  AZA302     -0.2062
      9  N7        32.8530   25.6820   37.5980 N.2   302  AZA302     -0.1149
     10  N8        32.7760   25.1520   38.8790 N.pl3 302  AZA302     -0.0026
     11  N9        31.5010   25.4360   39.5230 N.2   302  AZA302     -0.0705
@<TRIPOS>BOND
     1     8     7    2
     2     7     1    2
     3     7     6    1
     4     1     2    2
     5     6     9    2
     6     6     5    1
     7     9    10    1
     8     2     3    2
     9     2     4    2
    10     5     4    2
    11     5    11    2
    12    10    11    1
