@<TRIPOS>MOLECULE
2fud_CRL_A_1.pdb
 28 29 0 0 0
SMALL
GASTEIGER

@<TRIPOS>ATOM
      1  N1        50.8580   56.8780   14.8430 N.am  999  CRL999      0.0000
      2  C1        50.9180   56.1750   13.6790 C.2   999  CRL999      0.0000
      3  O1        50.0470   55.3020   13.5120 O.2   999  CRL999      0.0000
      4  N2        51.8690   56.3740   12.7160 N.am  999  CRL999      0.0000
      5  C2        52.9860   57.3390   12.8590 C.3   999  CRL999      0.0000
      6  C3        53.1860   58.1760   11.5560 C.3   999  CRL999      0.0000
      7  O2        53.2380   57.3200   10.3820 O.3   999  CRL999      0.0000
      8  C4        52.0710   56.4860   10.2100 C.3   999  CRL999      0.0000
      9  C5        51.8750   55.5720   11.4600 C.3   999  CRL999      0.0000
     10  C6        49.8940   56.7470   15.9410 C.3   999  CRL999      0.0000
     11  C7        48.6020   57.2110   15.4340 C.2   999  CRL999      0.0000
     12  O3        48.5410   58.2970   14.8560 O.2   999  CRL999      0.0000
     13  N3        47.5250   56.4230   15.5950 N.am  999  CRL999      0.0000
     14  C8        46.1020   56.5210   15.2150 C.3   999  CRL999      0.0000
     15  C9        45.4560   57.6010   15.9740 C.2   999  CRL999      0.0000
     16  N4        44.2490   58.0430   15.7910 N.2   999  CRL999      0.0000
     17  C10       46.0480   56.7940   13.6520 C.3   999  CRL999      0.0000
     18  C11       46.7050   55.7160   12.7570 C.3   999  CRL999      0.0000
     19  S1        46.0000   54.0970   13.1070 S.O2  999  CRL999      0.0000
     20  O4        46.9490   52.9780   12.5040 O.2   999  CRL999      0.0000
     21  O5        44.5410   54.0190   12.4920 O.2   999  CRL999      0.0000
     22  C12       45.8950   53.9030   14.9100 C.3   999  CRL999      0.0000
     23  C13       45.3110   55.1950   15.5560 C.3   999  CRL999      0.0000
     24  C14       50.3920   57.5360   17.2160 C.3   999  CRL999      0.0000
     25 SI1        51.8440   56.9030   18.0880 Si    999  CRL999      0.0000
     26  C15       51.6820   57.2890   19.8400 C.3   999  CRL999      0.0000
     27  C16       52.0250   55.1210   17.9360 C.3   999  CRL999      0.0000
     28  C17       53.3440   57.7180   17.4980 C.3   999  CRL999      0.0000
@<TRIPOS>BOND
     1     8     7    1
     2     8     9    1
     3     7     6    1
     4     9     4    1
     5     6     5    1
     6    21    19    2
     7    20    19    2
     8     4     5    1
     9     4     2   am
    10    18    19    1
    11    18    17    1
    12    19    22    1
    13     3     2    2
    14    17    14    1
    15     2     1   am
    16     1    10    1
    17    12    11    2
    18    22    23    1
    19    14    23    1
    20    14    13    1
    21    14    15    1
    22    11    13   am
    23    11    10    1
    24    16    15    2
    25    10    24    1
    26    24    25    1
    27    28    25    1
    28    27    25    1
    29    25    26    1
