@<TRIPOS>MOLECULE
2fue_M1P_A_1.pdb
 16 16 0 0 0
SMALL
GASTEIGER

@<TRIPOS>ATOM
      1  O6        23.7800   22.4920   97.3980 O.3   400  M1P400     -0.2176
      2  C6        22.8070   23.0980   96.5480 C.3   400  M1P400      0.2142
      3  C5        23.4640   23.7490   95.3270 C.3   400  M1P400      0.1835
      4  O5        24.3920   24.7550   95.7470 O.3   400  M1P400     -0.3253
      5  C1        25.0160   25.4770   94.6730 C.3   400  M1P400      0.2781
      6  O1        24.0040   26.1950   93.9650 O.3   400  M1P400     -0.2416
      7  P         23.3520   27.5370   94.5640 P.3   400  M1P400      0.5346
      8  O1P       22.4480   27.0830   95.6780 O.3   400  M1P400     -0.1145
      9  O2P       24.4820   28.4350   94.9560 O.3   400  M1P400     -0.1145
     10  O3P       22.5870   28.0730   93.3700 O.2   400  M1P400     -0.2223
     11  C2        25.7330   24.5450   93.6920 C.3   400  M1P400      0.2410
     12  O2        26.8510   23.9010   94.3170 O.3   400  M1P400     -0.2149
     13  C3        24.7690   23.4750   93.2060 C.3   400  M1P400      0.2198
     14  O3        25.4660   22.5710   92.3310 O.3   400  M1P400     -0.2174
     15  C4        24.1700   22.7510   94.4100 C.3   400  M1P400      0.2144
     16  O4        23.2120   21.7670   93.9890 O.3   400  M1P400     -0.2176
@<TRIPOS>BOND
     1    14    13    1
     2    13    11    1
     3    13    15    1
     4    10     7    2
     5    11    12    1
     6    11     5    1
     7     6     7    1
     8     6     5    1
     9    16    15    1
    10    15     3    1
    11     7     9    1
    12     7     8    1
    13     5     4    1
    14     3     4    1
    15     3     2    1
    16     2     1    1
