@<TRIPOS>MOLECULE
2fug_FMN_7_1.pdb
 31 33 0 0 0
SMALL
GASTEIGER

@<TRIPOS>ATOM
      1  N1        14.8420  111.9550    5.7800 N.2   500  FMN500     -0.2890
      2  C2        15.3630  112.6990    4.8240 C.1   500  FMN500      0.3669
      3  O2        15.2570  113.9050    4.9310 O.2   500  FMN500     -0.1744
      4  N3        15.9970  112.1820    3.7490 N.2   500  FMN500     -0.2300
      5  C4        16.1450  110.8220    3.5910 C.1   500  FMN500      0.2513
      6  O4        16.7150  110.3570    2.6200 O.2   500  FMN500     -0.2057
      7  C4A       15.5690  109.9390    4.6550 C.2   500  FMN500      0.2700
      8  N5        15.6330  108.6130    4.6340 N.2   500  FMN500     -0.3878
      9  C5A       15.1030  107.8580    5.6200 C.2   500  FMN500      0.1320
     10  C6        15.1990  106.4520    5.5250 C.2   500  FMN500      0.0250
     11  C7        14.6790  105.6530    6.4830 C.2   500  FMN500     -0.0238
     12  C7M       14.8270  104.1720    6.3040 C.3   500  FMN500      0.0308
     13  C8        14.0020  106.2060    7.6180 C.2   500  FMN500     -0.0280
     14  C8M       13.4130  105.3040    8.6910 C.3   500  FMN500      0.0304
     15  C9        13.8810  107.6070    7.7550 C.2   500  FMN500     -0.0041
     16  C9A       14.4210  108.4690    6.7500 C.3   500  FMN500      0.1497
     17  N10       14.3570  109.8840    6.7810 N.pl3 500  FMN500     -0.2691
     18  C10       14.9050  110.6150    5.7700 C.2   500  FMN500      0.2416
     19  C1'       13.7640  110.7790    7.7220 C.3   500  FMN500      0.1294
     20  C2'       14.2040  110.8560    9.1480 C.3   500  FMN500      0.2044
     21  O2'       13.7720  109.6790    9.8270 O.3   500  FMN500     -0.2185
     22  C3'       13.4410  112.0690    9.5380 C.3   500  FMN500      0.2164
     23  O3'       13.9920  113.1410    8.7460 O.3   500  FMN500     -0.2175
     24  C4'       13.5440  112.5470   10.9630 C.3   500  FMN500      0.2147
     25  O4'       13.0360  111.5670   11.8730 O.3   500  FMN500     -0.2176
     26  C5'       12.7040  113.8120   10.9090 C.3   500  FMN500      0.1892
     27  O5'       12.5180  114.5610   12.0800 O.3   500  FMN500     -0.2674
     28  P         11.6310  115.7470   11.4850 P.3   500  FMN500      0.5327
     29  O1P       10.4700  115.2020   10.7390 O.3   500  FMN500     -0.1145
     30  O2P       11.1970  116.7260   12.6850 O.3   500  FMN500     -0.1145
     31  O3P       12.5240  116.5790   10.4570 O.2   500  FMN500     -0.2224
@<TRIPOS>BOND
     1     6     5    2
     2     5     4    2
     3     5     7    1
     4     4     2    2
     5     8     7    2
     6     8     9    2
     7     7    18    1
     8     2     3    2
     9     2     1    2
    10    10     9    1
    11    10    11    2
    12     9    16    1
    13    18     1    2
    14    18    17    1
    15    12    11    1
    16    11    13    1
    17    16    17    1
    18    16    15    1
    19    17    19    1
    20    13    15    2
    21    13    14    1
    22    19    20    1
    23    23    22    1
    24    20    22    1
    25    20    21    1
    26    22    24    1
    27    31    28    2
    28    29    28    1
    29    26    24    1
    30    26    27    1
    31    24    25    1
    32    28    27    1
    33    28    30    1
