@<TRIPOS>MOLECULE
2fum_MIX_A_1.pdb
 32 34 0 0 0
SMALL
GASTEIGER

@<TRIPOS>ATOM
      1  OAC       66.6340    9.8490  -22.9810 O.3   539  MIX539     -0.2188
      2  CAK       65.7040   10.6410  -22.2080 C.3   539  MIX539      0.2008
      3  CAM       64.2580   10.3380  -22.6500 C.3   539  MIX539      0.1242
      4  NAS       64.2050   10.0110  -24.0970 N.3   539  MIX539     -0.2134
      5  CAO       64.3500    8.5630  -24.3640 C.3   539  MIX539      0.1121
      6  CAQ       63.0350    8.0410  -24.9550 C.3   539  MIX539      0.1309
      7  NAU       63.2090    6.6690  -25.4520 N.pl3 539  MIX539     -0.2360
      8  CAY       62.8460    5.6090  -24.7280 C.ar  539  MIX539      0.0686
      9  CAI       62.7140    5.6940  -23.3500 C.ar  539  MIX539      0.0175
     10  CAJ       62.3420    4.5890  -22.5940 C.ar  539  MIX539      0.0175
     11  CBE       62.6050    4.3970  -25.3470 C.ar  539  MIX539      0.0582
     12  CBA       62.7450    4.3240  -26.7240 C.2   539  MIX539      0.2002
     13  OAA       63.0770    5.3290  -27.3550 O.2   539  MIX539     -0.2864
     14  CBC       62.5130    3.1200  -27.3730 C.ar  539  MIX539      0.0840
     15  CAW       62.6510    3.0220  -28.7480 C.ar  539  MIX539      0.1990
     16  OAE       63.0170    4.1010  -29.4660 O.3   539  MIX539     -0.2865
     17  CAG       62.4040    1.8300  -29.4010 C.ar  539  MIX539      0.0454
     18  CAH       62.0250    0.7210  -28.6570 C.ar  539  MIX539      0.0454
     19  CAX       61.8870    0.8000  -27.2810 C.ar  539  MIX539      0.1990
     20  OAF       61.5180   -0.2890  -26.5660 O.3   539  MIX539     -0.2865
     21  CBD       62.1350    2.0010  -26.6440 C.ar  539  MIX539      0.0840
     22  CBB       61.9970    2.0720  -25.2710 C.2   539  MIX539      0.2002
     23  OAB       61.6580    1.0480  -24.6820 O.2   539  MIX539     -0.2864
     24  CBF       62.2330    3.2730  -24.5960 C.ar  539  MIX539      0.0582
     25  CAZ       62.0960    3.3760  -23.2050 C.ar  539  MIX539      0.0686
     26  NAV       61.7410    2.3620  -22.4250 N.pl3 539  MIX539     -0.2360
     27  CAR       60.4000    2.2990  -21.8470 C.3   539  MIX539      0.1309
     28  CAP       60.4630    1.2460  -20.7550 C.3   539  MIX539      0.1121
     29  NAT       59.1020    0.9350  -20.2950 N.3   539  MIX539     -0.2134
     30  CAN       58.8450    1.4460  -18.9220 C.3   539  MIX539      0.1242
     31  CAL       58.9240    0.2940  -17.8890 C.3   539  MIX539      0.2008
     32  OAD       57.7900   -0.6030  -17.9610 O.3   539  MIX539     -0.2188
@<TRIPOS>BOND
     1    16    15    1
     2    17    15   ar
     3    17    18   ar
     4    15    14   ar
     5    18    19   ar
     6    14    12    1
     7    14    21   ar
     8    13    12    2
     9    19    21   ar
    10    19    20    1
    11    12    11    1
    12    21    22    1
    13     7     6    1
    14     7     8    1
    15    11     8   ar
    16    11    24   ar
    17    22    23    2
    18    22    24    1
    19     6     5    1
    20     8     9   ar
    21    24    25   ar
    22     5     4    1
    23     4     3    1
    24     9    10   ar
    25    25    10   ar
    26    25    26    1
    27     1     2    1
    28     3     2    1
    29    26    27    1
    30    27    28    1
    31    28    29    1
    32    29    30    1
    33    30    31    1
    34    32    31    1
