@<TRIPOS>MOLECULE
2fuq_RAM_A_1.pdb
 11 11 0 0 0
SMALL
GASTEIGER

@<TRIPOS>ATOM
      1  C1        29.5380   47.8300  108.6430 C.3   773  RAM773      0.3023
      2  C2        28.7840   46.6190  108.0790 C.3   773  RAM773      0.2434
      3  C3        28.8870   46.5740  106.5490 C.3   773  RAM773      0.2198
      4  C4        30.3210   46.7680  106.0580 C.3   773  RAM773      0.2118
      5  C5        31.0440   47.9100  106.7810 C.3   773  RAM773      0.1509
      6  C6        32.5390   47.8870  106.4940 C.3   773  RAM773      0.0350
      7  O1        28.8830   49.0330  108.2860 O.3   773  RAM773     -0.1869
      8  O2        29.2810   45.4280  108.6610 O.3   773  RAM773     -0.2148
      9  O3        28.3390   45.3780  106.0240 O.3   773  RAM773     -0.2174
     10  O4        30.2660   47.0690  104.6810 O.3   773  RAM773     -0.2177
     11  O5        30.8790   47.8450  108.1850 O.3   773  RAM773     -0.3264
@<TRIPOS>BOND
     1    10     4    1
     2     9     3    1
     3     4     3    1
     4     4     5    1
     5     6     5    1
     6     3     2    1
     7     5    11    1
     8     2     1    1
     9     2     8    1
    10    11     1    1
    11     7     1    1
