@<TRIPOS>MOLECULE
2fut_H1S_A_1.pdb
 35 36 0 0 0
SMALL
GASTEIGER

@<TRIPOS>ATOM
      1  C1        15.4280  155.0250   92.0600 C.3   801  H1S801      0.1793
      2  C2        16.8750  155.2700   92.5320 C.3   801  H1S801      0.1794
      3  O3        14.6160  156.1370   92.4540 O.3   801  H1S801     -0.3258
      4  C4        15.3470  154.8220   90.5410 C.3   801  H1S801      0.2042
      5  O5        17.7890  154.3220   91.9570 O.3   801  H1S801     -0.3246
      6  C6        16.9910  155.2040   94.0560 C.3   801  H1S801      0.2045
      7  C7        13.5550  155.8070   93.3470 C.3   801  H1S801      0.2689
      8  C8        16.3960  153.8150   90.0680 C.3   801  H1S801      0.1857
      9  O9        14.0620  154.3250   90.1750 O.3   801  H1S801     -0.2187
     10  C10       17.7930  154.2390   90.5290 C.3   801  H1S801      0.2895
     11  O11       18.3250  155.4720   94.4930 O.3   801  H1S801     -0.2384
     12  C12       13.3800  156.8920   94.4150 C.3   801  H1S801      0.2293
     13  O13       12.3540  155.6550   92.5900 O.3   801  H1S801     -0.3194
     14  N14       16.3930  153.7630   88.5990 N.3   801  H1S801     -0.1129
     15  O15       18.1660  155.4960   89.9640 O.3   801  H1S801     -0.1882
     16  S16       18.7630  157.0230   94.7960 S.3   801  H1S801     -0.0001
     17  C17       12.9160  158.2340   93.8520 C.3   801  H1S801      0.1894
     18  O18       12.3830  156.4920   95.3530 O.3   801  H1S801     -0.2358
     19  C19       11.8940  156.8970   91.9930 C.3   801  H1S801      0.2227
     20  S20       16.8790  152.5050   87.8630 S.3   801  H1S801     -0.1288
     21  O21       18.4900  157.8770   93.6080 O.2   801  H1S801     -0.3452
     22  O22       20.2100  157.1080   95.1260 O.2   801  H1S801     -0.3452
     23  O23       17.9490  157.5470   95.9210 O.3   801  H1S801     -0.2682
     24  C24       11.9850  158.0550   92.6730 C.3   801  H1S801      0.0770
     25  O25       14.0650  158.9750   93.4410 O.3   801  H1S801     -0.2202
     26  S26       12.6700  156.5340   96.9660 S.3   801  H1S801      0.0000
     27  C27       11.3280  156.8750   90.6470 C.2   801  H1S801      0.3915
     28  O28       16.1880  151.2930   88.3460 O.3   801  H1S801     -0.2918
     29  O29       16.6250  152.6400   86.4220 O.3   801  H1S801     -0.2918
     30  O30       18.3210  152.3360   88.1170 O.3   801  H1S801     -0.2918
     31  O31       11.4880  155.9780   97.6490 O.3   801  H1S801     -0.2682
     32  O32       13.8720  155.7310   97.2860 O.2   801  H1S801     -0.3452
     33  O33       12.8930  157.9400   97.3860 O.2   801  H1S801     -0.3452
     34  O34       11.4570  155.8520   89.9400 O.co2 801  H1S801     -0.2430
     35  O35       10.7220  157.8880   90.2330 O.co2 801  H1S801     -0.2430
@<TRIPOS>BOND
     1    29    20    1
     2    20    30    1
     3    20    28    1
     4    20    14    1
     5    14     8    1
     6    34    27   ar
     7    15    10    1
     8     8    10    1
     9     8     4    1
    10     9     4    1
    11    35    27   ar
    12    10     5    1
    13     4     1    1
    14    27    19    1
    15     5     2    1
    16    19    13    1
    17    19    24    1
    18     1     3    1
    19     1     2    1
    20     3     7    1
    21     2     6    1
    22    13     7    1
    23    24    17    1
    24     7    12    1
    25    25    17    1
    26    21    16    2
    27    17    12    1
    28     6    11    1
    29    12    18    1
    30    11    16    1
    31    16    22    2
    32    16    23    1
    33    18    26    1
    34    26    32    2
    35    26    33    2
    36    26    31    1
