@<TRIPOS>MOLECULE
2fv0_BGC_A_1.pdb
 12 12 0 0 0
SMALL
GASTEIGER

@<TRIPOS>ATOM
      1  C2       -31.3250 -133.7220  187.0550 C.3   401  BGC401      0.2434
      2  C3       -30.3020 -132.8330  186.3470 C.3   401  BGC401      0.2199
      3  C4       -28.9090 -133.1380  186.9060 C.3   401  BGC401      0.2144
      4  C5       -28.6200 -134.6410  186.8600 C.3   401  BGC401      0.1836
      5  C6       -27.2620 -134.9370  187.4990 C.3   401  BGC401      0.2142
      6  C1       -30.9160 -135.1930  186.9740 C.3   401  BGC401      0.3024
      7  O1       -31.8770 -136.0020  187.6600 O.3   401  BGC401     -0.1869
      8  O2       -32.6070 -133.5380  186.4470 O.3   401  BGC401     -0.2148
      9  O3       -30.6740 -131.4590  186.5410 O.3   401  BGC401     -0.2174
     10  O4       -27.9170 -132.4260  186.1610 O.3   401  BGC401     -0.2176
     11  O5       -29.6250 -135.3740  187.5780 O.3   401  BGC401     -0.3236
     12  O6       -27.3040 -134.5870  188.8850 O.3   401  BGC401     -0.2176
@<TRIPOS>BOND
     1    10     3    1
     2     2     9    1
     3     2     3    1
     4     2     1    1
     5     8     1    1
     6     4     3    1
     7     4     5    1
     8     4    11    1
     9     6     1    1
    10     6    11    1
    11     6     7    1
    12     5    12    1
