@<TRIPOS>MOLECULE
2fv0_GAD_A_1.pdb
 11 11 0 0 0
SMALL
GASTEIGER

@<TRIPOS>ATOM
      1  C1       -36.7100 -127.8480  179.1100 C.3   404  GAD404      0.2413
      2  C2       -37.7470 -126.9440  178.4410 C.3   404  GAD404      0.2297
      3  O2       -37.6790 -125.6160  178.9650 O.3   404  GAD404     -0.2160
      4  C3       -39.1670 -127.4910  178.5920 C.3   404  GAD404      0.2111
      5  O3       -40.0080 -126.8930  177.6020 O.3   404  GAD404     -0.2153
      6  C4       -39.1460 -129.0030  178.3730 C.2   404  GAD404      0.0526
      7  C5       -37.9510 -129.7190  178.3210 C.2   404  GAD404      0.2164
      8  C6       -38.0280 -131.2220  178.0840 C.2   404  GAD404      0.4208
      9  O6A      -37.0750 -131.9280  178.4950 O.co2 404  GAD404     -0.2371
     10  O6B      -39.0450 -131.6720  177.5130 O.co2 404  GAD404     -0.2371
     11  O5       -36.7300 -129.1250  178.4520 O.2   404  GAD404     -0.4664
@<TRIPOS>BOND
     1    10     8   ar
     2     5     4    1
     3     8     7    1
     4     8     9   ar
     5     7     6    2
     6     7    11    1
     7     6     4    1
     8     2     4    1
     9     2     3    1
    10     2     1    1
    11    11     1    1
