@<TRIPOS>MOLECULE
2fv0_RAM_A_1.pdb
 10 10 0 0 0
SMALL
GASTEIGER

@<TRIPOS>ATOM
      1  C1       -30.4950 -130.6200  185.3880 C.3   402  RAM402      0.1776
      2  C2       -30.8310 -131.3550  184.0880 C.3   402  RAM402      0.2141
      3  C3       -31.4250 -130.3980  183.0550 C.3   402  RAM402      0.2172
      4  C4       -30.7690 -129.0200  183.1870 C.3   402  RAM402      0.2116
      5  C5       -31.0290 -128.4330  184.5640 C.3   402  RAM402      0.1483
      6  C6       -29.7990 -127.6460  185.0200 C.3   402  RAM402      0.0349
      7  O2       -29.6320 -131.9260  183.5530 O.3   402  RAM402     -0.2176
      8  O3       -31.1770 -130.9090  181.7430 O.3   402  RAM402     -0.2175
      9  O4       -31.1830 -128.0890  182.1740 O.3   402  RAM402     -0.2177
     10  O5       -31.3260 -129.4560  185.5290 O.3   402  RAM402     -0.3508
@<TRIPOS>BOND
     1     8     3    1
     2     9     4    1
     3     3     4    1
     4     3     2    1
     5     4     5    1
     6     7     2    1
     7     2     1    1
     8     5     6    1
     9     5    10    1
    10     1    10    1
