@<TRIPOS>MOLECULE
2fv1_GAD_A_1.pdb
 11 11 0 0 0
SMALL
GASTEIGER

@<TRIPOS>ATOM
      1  C1        58.2020 -128.4940  186.2250 C.3   402  GAD402      0.2413
      2  C2        57.7680 -129.9230  186.5510 C.3   402  GAD402      0.2297
      3  O2        58.8700 -130.8280  186.4370 O.3   402  GAD402     -0.2160
      4  C3        56.6430 -130.3410  185.6050 C.3   402  GAD402      0.2111
      5  O3        56.0210 -131.5360  186.0860 O.3   402  GAD402     -0.2153
      6  C4        55.6190 -129.2080  185.5510 C.2   402  GAD402      0.0526
      7  C5        55.9190 -127.9350  186.0290 C.2   402  GAD402      0.2164
      8  C6        54.8430 -126.8520  185.9470 C.2   402  GAD402      0.4208
      9  O6A       53.6490 -127.2260  185.9400 O.co2 402  GAD402     -0.2371
     10  O6B       55.2140 -125.6610  185.8740 O.co2 402  GAD402     -0.2371
     11  O5        57.1220 -127.6160  186.5800 O.2   402  GAD402     -0.4664
@<TRIPOS>BOND
     1     6     4    1
     2     6     7    2
     3     4     5    1
     4     4     2    1
     5    10     8   ar
     6     9     8   ar
     7     8     7    1
     8     7    11    1
     9     1     2    1
    10     1    11    1
    11     3     2    1
