@<TRIPOS>MOLECULE
2fv1_NDG_A_1.pdb
 15 15 0 0 0
SMALL
GASTEIGER

@<TRIPOS>ATOM
      1  C1        62.4330 -126.1130  186.8250 C.3   401  NDG401      0.2917
      2  C2        61.5160 -127.2740  187.2130 C.3   401  NDG401      0.1871
      3  C3        60.1460 -127.1340  186.5480 C.3   401  NDG401      0.2095
      4  C4        59.5860 -125.7500  186.8830 C.3   401  NDG401      0.2136
      5  C5        60.5960 -124.6660  186.4990 C.3   401  NDG401      0.1835
      6  C6        60.0430 -123.2810  186.8430 C.3   401  NDG401      0.2142
      7  C7        61.9030 -129.6920  187.4510 C.2   401  NDG401      0.2421
      8  C8        60.9900 -129.6000  188.6750 C.3   401  NDG401      0.0964
      9  O         61.8210 -124.8750  187.2200 O.3   401  NDG401     -0.3242
     10  O3        59.3150 -128.1800  187.0740 O.3   401  NDG401     -0.2183
     11  O4        58.3770 -125.5380  186.1500 O.3   401  NDG401     -0.2176
     12  O6        58.8630 -123.0280  186.0760 O.3   401  NDG401     -0.2176
     13  O7        62.3710 -130.7750  187.0990 O.2   401  NDG401     -0.2733
     14  N2        62.1180 -128.5520  186.8020 N.am  401  NDG401     -0.1991
     15  O1L       62.6360 -126.1130  185.4100 O.3   401  NDG401     -0.1879
@<TRIPOS>BOND
     1    15     1    1
     2    12     6    1
     3    11     4    1
     4     5     6    1
     5     5     4    1
     6     5     9    1
     7     3     4    1
     8     3    10    1
     9     3     2    1
    10    14     2    1
    11    14     7   am
    12     1     2    1
    13     1     9    1
    14    13     7    2
    15     7     8    1
