@<TRIPOS>MOLECULE
2fv5_541_A_1.pdb
 32 35 0 0 0
SMALL
GASTEIGER

@<TRIPOS>ATOM
      1  C20       12.1820    3.9980   31.8670 C.2     1  5411        0.0282
      2  C1        13.4570    4.4610   31.4350 C.2     1  5411        0.0020
      3  C2        13.5850    5.7120   30.7660 C.2     1  5411       -0.0038
      4  C3        12.4340    6.5180   30.5220 C.2     1  5411       -0.0152
      5  C21       11.1420    6.0780   30.9410 C.3     1  5411        0.0960
      6  C22       11.0230    4.7940   31.6330 C.2     1  5411        0.1161
      7  N1         9.7540    4.3720   32.0370 N.2     1  5411       -0.4099
      8  C4         7.3200    4.6240   32.2720 C.3     1  5411        0.0664
      9  C5         8.6270    5.1200   31.8210 C.2     1  5411        0.1085
     10  C6         8.7060    6.3740   31.1540 C.2     1  5411        0.0233
     11  C7         9.9750    6.8730   30.7080 C.2     1  5411        0.0116
     12  C8        10.0960    8.2300   29.9750 C.3     1  5411        0.2286
     13  C9         8.2760    8.3720   28.3810 C.ar    1  5411        0.1390
     14  O2         8.8120    8.7940   29.6180 O.3     1  5411       -0.4710
     15  C10        6.9500    8.7630   28.0490 C.ar    1  5411        0.0366
     16  C11        6.3630    8.3480   26.8210 C.ar    1  5411       -0.0007
     17  C12        7.1000    7.5410   25.9000 C.ar    1  5411       -0.0144
     18  C13        8.4290    7.1440   26.2290 C.ar    1  5411       -0.0007
     19  C14        9.0150    7.5610   27.4560 C.ar    1  5411        0.0366
     20  C15        7.4850    7.2440   23.4020 C.3     1  5411        0.0342
     21  C16        6.4720    7.1260   24.5820 C.3     1  5411        0.0894
     22  C17        5.8210    5.7640   24.7020 C.3     1  5411        0.0136
     23  C18        5.3720    8.1150   24.2160 C.2     1  5411        0.2288
     24  O3         4.2370    8.1200   24.6690 O.2     1  5411       -0.2745
     25  C19        7.0480    8.4760   22.5840 C.3     1  5411        0.0945
     26  C23        5.3680   10.2910   23.1050 C.3     1  5411        0.1205
     27  C24        6.3540   11.2770   23.6950 C.2     1  5411        0.1049
     28  N2         5.7890   12.2200   24.4480 N.am    1  5411       -0.2013
     29  O1         6.5980   13.1710   25.0440 O.3     1  5411       -0.4026
     30  O4         7.5600   11.1720   23.4830 O.2     1  5411       -0.5379
     31  C25        5.1470   10.5480   21.6170 C.3     1  5411        0.0285
     32  N3         5.8710    8.9460   23.2910 N.am    1  5411       -0.2752
@<TRIPOS>BOND
     1    31    26    1
     2    25    32    1
     3    25    20    1
     4    26    32    1
     5    26    27    1
     6    32    23   am
     7    20    21    1
     8    30    27    2
     9    27    28   am
    10    23    21    1
    11    23    24    2
    12    28    29    1
    13    21    22    1
    14    21    17    1
    15    17    18   ar
    16    17    16   ar
    17    18    19   ar
    18    16    15   ar
    19    19    13   ar
    20    15    13   ar
    21    13    14    1
    22    14    12    1
    23    12    11    1
    24     4     3    2
    25     4     5    1
    26    11     5    1
    27    11    10    2
    28     3     2    1
    29     5     6    1
    30    10     9    1
    31     2     1    2
    32     6     1    1
    33     6     7    2
    34     9     7    2
    35     9     8    1
