@<TRIPOS>MOLECULE
2fv7_ADP_A_1.pdb
 27 29 0 0 0
SMALL
GASTEIGER

@<TRIPOS>ATOM
      1  PB        27.0770   42.5650  -12.2830 P.3   401  ADP401      0.5373
      2  O1B       26.1700   41.4230  -12.7120 O.3   401  ADP401     -0.1143
      3  O2B       27.6310   42.3490  -10.8830 O.3   401  ADP401     -0.1143
      4  O3B       28.0890   42.9890  -13.3630 O.2   401  ADP401     -0.2221
      5  PA        24.6450   44.2270  -12.7480 P.3   401  ADP401      0.2231
      6  O1A       24.3290   43.4340  -14.0170 O.2   401  ADP401     -0.5169
      7  O2A       23.6480   44.3320  -11.6060 O.3   401  ADP401     -0.4370
      8  O3A       26.0830   43.8770  -12.0600 O.3   401  ADP401     -0.2261
      9  O5'       24.9620   45.7060  -13.2880 O.3   401  ADP401     -0.3111
     10  C5'       25.6900   46.6840  -12.5550 C.3   401  ADP401      0.1813
     11  C4'       25.2140   48.0570  -12.9780 C.3   401  ADP401      0.1821
     12  O4'       25.4920   48.1480  -14.3710 O.3   401  ADP401     -0.3135
     13  C3'       23.7140   48.3200  -12.8330 C.3   401  ADP401      0.2184
     14  O3'       23.3110   48.8660  -11.5640 O.3   401  ADP401     -0.2174
     15  C2'       23.4580   49.2830  -13.9590 C.3   401  ADP401      0.2570
     16  O2'       23.6770   50.6250  -13.5250 O.3   401  ADP401     -0.2130
     17  C1'       24.4570   48.8880  -15.0320 C.3   401  ADP401      0.3186
     18  N9        23.8160   48.0700  -16.0960 N.pl3 401  ADP401     -0.1439
     19  C8        23.8680   46.7190  -16.2570 C.3   401  ADP401      0.3377
     20  N7        23.1560   46.3400  -17.3500 N.2   401  ADP401     -0.2095
     21  C5        22.6520   47.4590  -17.8940 C.2   401  ADP401      0.2526
     22  C6        21.8160   47.7980  -19.0630 C.2   401  ADP401      0.4393
     23  N6        21.3590   46.8430  -19.8950 N.pl3 401  ADP401      0.2180
     24  N1        21.5210   49.1010  -19.2770 N.2   401  ADP401      0.0021
     25  C2        21.9680   50.0910  -18.4650 C.3   401  ADP401      0.5254
     26  N3        22.7320   49.8530  -17.3850 N.2   401  ADP401     -0.0055
     27  C4        23.1000   48.5820  -17.0680 C.2   401  ADP401      0.3518
@<TRIPOS>BOND
     1    23    22    1
     2    24    22    2
     3    24    25    1
     4    22    21    1
     5    25    26    1
     6    21    20    2
     7    21    27    1
     8    26    27    2
     9    20    19    1
    10    27    18    1
    11    19    18    1
    12    18    17    1
    13    17    12    1
    14    17    15    1
    15    12    11    1
    16     6     5    2
    17    15    16    1
    18    15    13    1
    19     4     1    2
    20     9     5    1
    21     9    10    1
    22    11    13    1
    23    11    10    1
    24    13    14    1
    25     5     8    1
    26     5     7    1
    27     2     1    1
    28     1     8    1
    29     1     3    1
