@<TRIPOS>MOLECULE
2fv8_GDP_A_1.pdb
 28 30 0 0 0
SMALL
GASTEIGER

@<TRIPOS>ATOM
      1  PB        52.8640   30.6570    1.3960 P.3   201  GDP201      0.5373
      2  O1B       52.8740   32.0260    1.9950 O.3   201  GDP201     -0.1143
      3  O2B       53.4380   30.8240    0.0120 O.2   201  GDP201     -0.2221
      4  O3B       51.4950   29.9900    1.4080 O.3   201  GDP201     -0.1143
      5  O3A       53.9050   29.7240    2.2230 O.3   201  GDP201     -0.2261
      6  PA        53.7720   28.1830    2.6800 P.3   201  GDP201      0.2231
      7  O1A       53.5300   27.3140    1.4830 O.2   201  GDP201     -0.5169
      8  O2A       52.7900   27.9360    3.8020 O.3   201  GDP201     -0.4370
      9  O5'       55.2250   27.9060    3.3170 O.3   201  GDP201     -0.3111
     10  C5'       56.4000   28.1640    2.5490 C.3   201  GDP201      0.1813
     11  C4'       57.5210   27.2430    2.9940 C.3   201  GDP201      0.1799
     12  O4'       57.8110   27.4580    4.3740 O.3   201  GDP201     -0.3326
     13  C3'       57.1290   25.7960    2.8730 C.3   201  GDP201      0.2158
     14  O3'       58.2660   24.9920    2.5740 O.3   201  GDP201     -0.2175
     15  C2'       56.6460   25.4310    4.2450 C.3   201  GDP201      0.2310
     16  O2'       56.7700   24.0380    4.5100 O.3   201  GDP201     -0.2158
     17  C1'       57.5270   26.2740    5.1220 C.3   201  GDP201      0.2293
     18  N9        56.8610   26.6800    6.3780 N.pl3 201  GDP201     -0.2354
     19  C8        55.6010   27.1540    6.5440 C.3   201  GDP201      0.2246
     20  N7        55.3480   27.4140    7.8480 N.2   201  GDP201     -0.2322
     21  C5        56.4750   27.1310    8.5260 C.2   201  GDP201      0.2182
     22  C6        56.9230   27.1850    9.9350 C.1   201  GDP201      0.2372
     23  O6        56.1810   27.5840   10.8690 O.2   201  GDP201     -0.2069
     24  N1        58.1810   26.7790   10.1920 N.2   201  GDP201     -0.2485
     25  C2        59.0370   26.3410    9.2480 C.1   201  GDP201      0.2531
     26  N2        60.2800   25.9570    9.6170 N.pl3 201  GDP201     -0.0226
     27  N3        58.6980   26.2610    7.9360 N.2   201  GDP201     -0.3074
     28  C4        57.4590   26.6420    7.5440 C.2   201  GDP201      0.2300
@<TRIPOS>BOND
     1     3     1    2
     2     1     4    1
     3     1     2    1
     4     1     5    1
     5     7     6    2
     6     5     6    1
     7    10    11    1
     8    10     9    1
     9    14    13    1
    10     6     9    1
    11     6     8    1
    12    13    11    1
    13    13    15    1
    14    11    12    1
    15    15    16    1
    16    15    17    1
    17    12    17    1
    18    17    18    1
    19    18    19    1
    20    18    28    1
    21    19    20    1
    22    28    27    2
    23    28    21    1
    24    20    21    2
    25    27    25    2
    26    21    22    1
    27    25    26    1
    28    25    24    2
    29    22    24    2
    30    22    23    2
