@<TRIPOS>MOLECULE
2fv9_INN_A_1.pdb
 29 28 0 0 0
SMALL
GASTEIGER

@<TRIPOS>ATOM
      1  C0         6.1230    9.2090   23.9390 C.3     9  INN9        0.0603
      2  C          6.8790   10.5180   23.9630 C.2     9  INN9        0.0873
      3  O          8.0040   10.6060   23.4610 O.2     9  INN9       -0.5395
      4  N          6.2300   11.5070   24.5920 N.am    9  INN9       -0.2030
      5  O4         6.8110   12.7670   24.6760 O.3     9  INN9       -0.4026
      6  C4         6.0240    6.8390   24.7220 C.2     9  INN9        0.2417
      7  O1         4.8630    6.7080   25.1140 O.2     9  INN9       -0.2733
      8  CA         6.7400    8.1740   24.8690 C.3     9  INN9        0.0845
      9  CB         6.6590    8.6330   26.3240 C.3     9  INN9        0.0095
     10  C1         7.4860    7.7540   27.2630 C.3     9  INN9        0.0005
     11  C2         8.9830    8.0260   27.0860 C.3     9  INN9        0.0000
     12  C3         7.0650    7.9690   28.7150 C.3     9  INN9        0.0000
     13  N1         6.7830    5.8730   24.1600 N.am    9  INN9       -0.1978
     14  C5         6.1710    4.5910   23.8070 C.3     9  INN9        0.1726
     15  C6         6.4670    4.2530   22.3300 C.3     9  INN9        0.0270
     16  C7         5.9280    5.3770   21.4310 C.3     9  INN9        0.0022
     17  C8         7.9820    4.1130   22.1070 C.3     9  INN9        0.0022
     18  C9         5.7700    2.9320   21.9540 C.3     9  INN9        0.0022
     19  C10        6.6120    3.4470   24.7240 C.2     9  INN9        0.2616
     20  O2         7.7960    3.2790   24.9950 O.2     9  INN9       -0.2715
     21  N2         5.6000    2.6910   25.1930 N.am    9  INN9       -0.1963
     22  C11        5.9030    1.3460   25.6820 C.3     9  INN9        0.1728
     23  C13        5.7370    0.2530   24.6130 C.2     9  INN9        0.2613
     24  O3         4.7900    0.2740   23.8200 O.2     9  INN9       -0.2715
     25  C12        5.0270    1.0170   26.8980 C.3     9  INN9        0.0334
     26  N4         5.6040   -2.0950   21.5140 N.3     9  INN9       -0.1294
     27  C15        6.6900   -1.4950   22.3100 C.3     9  INN9        0.1327
     28  C14        6.5150   -1.8720   23.7820 C.3     9  INN9        0.1356
     29  N3         6.6930   -0.6990   24.6430 N.am    9  INN9       -0.2024
@<TRIPOS>BOND
     1    16    15    1
     2    26    27    1
     3    18    15    1
     4    17    15    1
     5    27    28    1
     6    15    14    1
     7     3     2    2
     8    28    29    1
     9    14    13    1
    10    14    19    1
    11    24    23    2
    12     1     2    1
    13     1     8    1
    14     2     4   am
    15    13     6   am
    16     4     5    1
    17    23    29   am
    18    23    22    1
    19     6     8    1
    20     6     7    2
    21    19    20    2
    22    19    21   am
    23     8     9    1
    24    21    22    1
    25    22    25    1
    26     9    10    1
    27    11    10    1
    28    10    12    1
