@<TRIPOS>MOLECULE
2fv9_002_B_1.pdb
 32 32 0 0 0
SMALL
GASTEIGER

@<TRIPOS>ATOM
      1  C1        46.8220   28.7360   39.6060 C.3     2  0022        0.1726
      2  C2        47.3620   28.0340   38.3430 C.3     2  0022        0.0290
      3  C3        47.5920   29.0540   37.2270 C.3     2  0022        0.0022
      4  C4        48.4130   28.4900   36.0770 C.3     2  0022        0.0001
      5  C5        47.1640   31.0380   40.1700 C.2     2  0022        0.2420
      6  C6        46.6160   27.6990   40.7140 C.2     2  0022        0.2617
      7  C7        45.0330   26.1340   41.6460 C.3     2  0022        0.1978
      8  C8        44.1100   26.4530   42.8300 C.3     2  0022        0.0333
      9  C9        49.2550   34.1450   39.3140 C.2     2  0022        0.0873
     10  C10       48.2670   33.0140   39.1740 C.3     2  0022        0.0607
     11  C11       44.3710   25.0810   40.7680 C.2     2  0022        0.3842
     12  C12       46.3620   26.9550   37.9090 C.3     2  0022        0.0023
     13  N3        47.7210   29.8260   39.9930 N.am    2  0022       -0.1978
     14  O6        47.5720   27.2580   41.3530 O.2     2  0022       -0.2715
     15  O1        44.7760   23.9020   40.8430 O.co2   2  0022       -0.2437
     16  O2        49.7640   36.2780   39.7670 O.3     2  0022       -0.4026
     17  C13       44.8290   27.0700   44.0370 C.3     2  0022        0.0023
     18  C20       46.0700   26.2600   44.4160 C.3     2  0022        0.0001
     19  C21       43.8840   27.1450   45.2400 C.3     2  0022        0.0001
     20  N1        48.7580   35.3740   39.5170 N.am    2  0022       -0.2030
     21  O3        50.4620   33.9280   39.2410 O.2     2  0022       -0.5395
     22  C22       48.1640   32.1600   40.4390 C.3     2  0022        0.0888
     23  C23       47.7340   32.9890   41.6620 C.3     2  0022        0.0359
     24  O4        45.9630   31.2790   40.1090 O.2     2  0022       -0.2733
     25  N2        45.3280   27.3570   40.9080 N.am    2  0022       -0.1942
     26  O5        43.4500   25.4420   40.0020 O.co2   2  0022       -0.2437
     27  C14       47.8720   32.1800   42.9370 C.ar    2  0022       -0.0217
     28  C15       49.0780   32.2360   43.6910 C.ar    2  0022       -0.0043
     29  C16       49.1970   31.5090   44.9110 C.ar    2  0022       -0.0003
     30  C17       48.1080   30.7170   45.3760 C.ar    2  0022       -0.0000
     31  C18       46.9120   30.6330   44.6100 C.ar    2  0022       -0.0003
     32  C19       46.7920   31.3650   43.3900 C.ar    2  0022       -0.0043
@<TRIPOS>BOND
     1     4     3    1
     2     3     2    1
     3    12     2    1
     4     2     1    1
     5    10     9    1
     6    10    22    1
     7    21     9    2
     8     9    20   am
     9    20    16    1
    10     1    13    1
    11     1     6    1
    12    13     5   am
    13    26    11   ar
    14    24     5    2
    15     5    22    1
    16    22    23    1
    17     6    25   am
    18     6    14    2
    19    11    15   ar
    20    11     7    1
    21    25     7    1
    22     7     8    1
    23    23    27    1
    24     8    17    1
    25    27    32   ar
    26    27    28   ar
    27    32    31   ar
    28    28    29   ar
    29    17    18    1
    30    17    19    1
    31    31    30   ar
    32    29    30   ar
