@<TRIPOS>MOLECULE
2fva_PNS_A_1.pdb
 42 41 0 0 0
SMALL
GASTEIGER

@<TRIPOS>ATOM
      1  O23       16.5910    3.9290   -0.2500 O.3   101  PNS101     -0.1145
      2  P24       17.5470    4.4330   -1.4430 P.3   101  PNS101      0.5319
      3  O25       18.8130    3.6710   -1.3750 O.3   101  PNS101     -0.1145
      4  O26       17.5730    5.9130   -1.4230 O.2   101  PNS101     -0.2224
      5  O27       16.7450    3.9610   -2.7580 O.3   101  PNS101     -0.2830
      6  C28       16.9940    4.5810   -4.0120 C.3   101  PNS101      0.0671
      7  C29       16.0200    4.0210   -5.0540 C.3   101  PNS101      0.0235
      8  C30       16.3700    4.5800   -6.4360 C.3   101  PNS101     -0.0549
      9  C31       14.5920    4.4290   -4.6790 C.3   101  PNS101     -0.0549
     10  C32       16.1290    2.5000   -5.0990 C.3   101  PNS101      0.1380
     11  O33       15.7380    1.9760   -3.8360 O.3   101  PNS101     -0.3820
     12  C34       15.2150    1.9380   -6.1840 C.2   101  PNS101      0.2423
     13  O35       15.6420    1.7280   -7.3190 O.2   101  PNS101     -0.2730
     14  N36       13.9590    1.6980   -5.8270 N.am  101  PNS101     -0.3127
     15  C37       12.9940    1.1610   -6.7800 C.3   101  PNS101      0.0199
     16  C38       13.3060   -0.3060   -7.0810 C.3   101  PNS101      0.0395
     17  C39       13.3670   -1.1030   -5.7810 C.2   101  PNS101      0.2145
     18  O40       14.1630   -2.0320   -5.6480 O.2   101  PNS101     -0.2758
     19  N41       12.5220   -0.7320   -4.8250 N.am  101  PNS101     -0.3145
     20  C42       12.4880   -1.4180   -3.5400 C.3   101  PNS101      0.0214
     21  C43       13.8220   -1.2440   -2.8120 C.3   101  PNS101      0.0195
     22  S44       13.5920   -1.5430   -1.0630 S.3   101  PNS101     -0.0915
     23 H282       18.0080    4.3710   -4.3190 H     101  PNS101      0.0572
     24 H281       16.8570    5.6480   -3.9290 H     101  PNS101      0.0572
     25 H303       15.5820    4.3380   -7.1330 H     101  PNS101      0.0237
     26 H302       16.4740    5.6560   -6.3730 H     101  PNS101      0.0237
     27 H301       17.2980    4.1500   -6.7750 H     101  PNS101      0.0237
     28 H313       14.2800    3.8780   -3.8060 H     101  PNS101      0.0237
     29 H312       14.5640    5.4870   -4.4700 H     101  PNS101      0.0237
     30 H311       13.9280    4.2070   -5.5030 H     101  PNS101      0.0237
     31  H32       17.1510    2.2120   -5.3060 H     101  PNS101      0.0696
     32  H33       15.0610    1.3100   -3.9880 H     101  PNS101      0.2105
     33  H36       13.6730    1.8850   -4.9080 H     101  PNS101      0.1488
     34 H372       13.0430    1.7310   -7.6950 H     101  PNS101      0.0467
     35 H371       12.0000    1.2370   -6.3660 H     101  PNS101      0.0467
     36 H382       12.5330   -0.7140   -7.7140 H     101  PNS101      0.0374
     37 H381       14.2580   -0.3740   -7.5860 H     101  PNS101      0.0374
     38  H41       11.9090    0.0160   -4.9870 H     101  PNS101      0.1487
     39 H422       12.3030   -2.4690   -3.7010 H     101  PNS101      0.0470
     40 H421       11.6950   -1.0050   -2.9330 H     101  PNS101      0.0470
     41 H431       14.1850   -0.2380   -2.9600 H     101  PNS101      0.0400
     42 H432       14.5420   -1.9480   -3.2040 H     101  PNS101      0.0400
@<TRIPOS>BOND
     1    36    16    1
     2    34    15    1
     3    37    16    1
     4    13    12    2
     5    25     8    1
     6    16    15    1
     7    16    17    1
     8    15    35    1
     9    15    14    1
    10    27     8    1
    11     8    26    1
    12     8     7    1
    13    12    14   am
    14    12    10    1
    15    14    33    1
    16    17    18    2
    17    17    19   am
    18    30     9    1
    19    31    10    1
    20    10     7    1
    21    10    11    1
    22     7     9    1
    23     7     6    1
    24    38    19    1
    25    19    20    1
    26     9    29    1
    27     9    28    1
    28    23     6    1
    29     6    24    1
    30     6     5    1
    31    32    11    1
    32    39    20    1
    33    20    40    1
    34    20    21    1
    35    42    21    1
    36    41    21    1
    37    21    22    1
    38     5     2    1
    39     2     4    2
    40     2     3    1
    41     2     1    1
