@<TRIPOS>MOLECULE
2fvc_888_A_1.pdb
 29 32 0 0 0
SMALL
GASTEIGER

@<TRIPOS>ATOM
      1  C1         9.4220   43.8660   46.6730 C.2   901  888901      0.1612
      2  C2         8.7810   42.7530   46.0700 C.2   901  888901      0.0301
      3  C3         8.7180   42.6470   44.6610 C.2   901  888901     -0.0187
      4  C4         9.2970   43.6510   43.8480 C.3   901  888901      0.0536
      5  C5         9.9400   44.7690   44.4500 C.2   901  888901      0.0017
      6  C6         9.9920   44.8630   45.8540 C.2   901  888901      0.1562
      7  S11       10.7820   46.2330   46.6650 S.O2  901  888901      0.1112
      8  N12       10.4200   46.1220   48.2460 N.2   901  888901     -0.0613
      9  C13        9.9560   44.9680   48.8020 C.1   901  888901      0.1141
     10  N14        9.4990   43.9480   48.0190 N.2   901  888901     -0.3475
     11  C15        9.9960   44.7030   50.2850 C.ar  901  888901      0.1700
     12  C16       10.8600   45.4330   51.0770 C.ar  901  888901      0.2120
     13  C17       10.9310   45.1330   52.5230 C.ar  901  888901      0.0557
     14  C18       10.1030   44.0990   53.0960 C.ar  901  888901      0.0656
     15  N19        9.1890   43.3580   52.2830 N.ar  901  888901     -0.2948
     16  C20        9.1170   43.6210   50.9090 C.ar  901  888901      0.2744
     17  C21       11.8400   45.8670   53.3400 C.ar  901  888901      0.0047
     18  C22       11.9540   45.6010   54.7130 C.ar  901  888901      0.0002
     19  C23       11.1620   44.5950   55.2880 C.ar  901  888901      0.0015
     20  C24       10.2470   43.8590   54.4980 C.ar  901  888901      0.0174
     21  O29       11.6860   46.4310   50.5940 O.3   901  888901     -0.2856
     22  O30        8.3730   43.0060   50.1480 O.2   901  888901     -0.2661
     23  C31        8.3170   42.2770   52.8790 C.3   901  888901      0.1091
     24  C32        6.9650   42.6370   53.5720 C.3   901  888901      0.0246
     25  C35        6.0320   43.5710   52.7610 C.3   901  888901      0.0019
     26  C38        4.9230   44.1220   53.6690 C.3   901  888901      0.0001
     27  O46       10.1890   47.4500   46.2130 O.2   901  888901     -0.1456
     28  O47       12.1910   46.0730   46.5170 O.2   901  888901     -0.1456
     29  C7         5.3930   42.8330   51.5650 C.3   901  888901      0.0001
@<TRIPOS>BOND
     1     4     5    1
     2     4     3    1
     3     5     6    2
     4     3     2    2
     5     6     7    1
     6     6     1    1
     7     2     1    1
     8    27     7    2
     9    28     7    2
    10     7     8    1
    11     1    10    2
    12    10     9    2
    13     8     9    2
    14     9    11    1
    15    22    16    2
    16    11    16   ar
    17    11    12   ar
    18    21    12    1
    19    16    15   ar
    20    12    13   ar
    21    29    25    1
    22    15    23    1
    23    15    14   ar
    24    13    14   ar
    25    13    17   ar
    26    25    24    1
    27    25    26    1
    28    23    24    1
    29    14    20   ar
    30    17    18   ar
    31    20    19   ar
    32    18    19   ar
