@<TRIPOS>MOLECULE
2fvd_LIA_A_1.pdb
 30 32 0 0 0
SMALL
GASTEIGER

@<TRIPOS>ATOM
      1  N1         6.0060   26.4970    6.9800 N.3   299  LIA299     -0.1593
      2  C2         5.2280   26.2350    5.7370 C.3   299  LIA299      0.0972
      3  C3         4.4250   27.4970    5.3560 C.3   299  LIA299      0.0416
      4  C4         3.4740   27.9120    6.5080 C.3   299  LIA299      0.1075
      5  C5         4.2630   28.0220    7.8590 C.3   299  LIA299      0.0416
      6  C6         5.0840   26.7430    8.1290 C.3   299  LIA299      0.0972
      7  N7         2.8530   29.1930    6.1450 N.pl3 299  LIA299     -0.1638
      8  C8         1.7690   29.5320    6.9000 C.1   299  LIA299      0.1665
      9  N9         1.0690   28.5960    7.5970 N.2   299  LIA299     -0.1684
     10  C10        0.0490   28.9490    8.3170 C.2   299  LIA299      0.1189
     11  C11       -0.4000   30.3250    8.4220 C.2   299  LIA299      0.1069
     12  C12        0.3640   31.2870    7.6590 C.2   299  LIA299      0.2364
     13  N13        1.4370   30.8560    6.9140 N.2   299  LIA299     -0.3178
     14  C14       -1.5430   30.6550    9.2600 C.2   299  LIA299      0.2062
     15  O15       -1.9700   31.8210    9.3190 O.2   299  LIA299     -0.2862
     16  C16       -2.1970   29.6470   10.0640 C.ar  299  LIA299      0.1027
     17  C17       -3.5480   29.2590    9.7500 C.ar  299  LIA299      0.1733
     18  C18       -4.2120   28.2570   10.5240 C.ar  299  LIA299      0.1677
     19  C19       -3.5480   27.6250   11.6160 C.ar  299  LIA299      0.0351
     20  C20       -2.2140   27.9920   11.9500 C.ar  299  LIA299      0.0395
     21  C21       -1.5100   29.0040   11.1890 C.ar  299  LIA299      0.1441
     22  O22       -0.1880   29.4010   11.4900 O.3   299  LIA299     -0.4712
     23  C23        0.5550   28.3980   12.2270 C.3   299  LIA299      0.2525
     24  F24       -4.2020   29.8250    8.7400 F     299  LIA299     -0.2016
     25  F25       -5.4500   27.9070   10.2290 F     299  LIA299     -0.2018
     26  N26        0.0830   32.6030    7.6390 N.pl3 299  LIA299     -0.0920
     27  S27        7.0630   25.2110    7.3100 S.O2  299  LIA299      0.0457
     28  C28        6.1790   23.6620    7.7100 C.3   299  LIA299      0.1960
     29  O29        7.8710   25.5860    8.4490 O.2   299  LIA299     -0.1572
     30  O30        7.9110   25.0020    6.1680 O.2   299  LIA299     -0.1572
@<TRIPOS>BOND
     1     3     2    1
     2     3     4    1
     3     2     1    1
     4     7     4    1
     5     7     8    1
     6    30    27    2
     7     4     5    1
     8     8    13    2
     9     8     9    2
    10    13    12    2
    11     1    27    1
    12     1     6    1
    13    27    28    1
    14    27    29    2
    15     9    10    1
    16    26    12    1
    17    12    11    1
    18     5     6    1
    19    10    11    2
    20    11    14    1
    21    24    17    1
    22    14    15    2
    23    14    16    1
    24    17    16   ar
    25    17    18   ar
    26    16    21   ar
    27    25    18    1
    28    18    19   ar
    29    21    22    1
    30    21    20   ar
    31    22    23    1
    32    19    20   ar
