@<TRIPOS>MOLECULE
2fvf_DKA_A_1.pdb
 30 29 0 0 0
SMALL
GASTEIGER

@<TRIPOS>ATOM
      1  C1         2.8130    5.0020    7.9020 C.2   102  DKA102      0.1981
      2  O1         1.9890    5.8240    7.5690 O.2   102  DKA102     -0.2890
      3  C2         2.6590    3.5180    7.7510 C.3   102  DKA102      0.0134
      4  C3         1.5820    3.2070    6.7070 C.3   102  DKA102     -0.0459
      5  C4         2.0200    3.7470    5.3430 C.3   102  DKA102     -0.0527
      6  C5         0.9730    3.3830    4.2900 C.3   102  DKA102     -0.0530
      7  C6         1.4510    3.8520    2.9120 C.3   102  DKA102     -0.0531
      8  C7         0.5630    3.2440    1.8220 C.3   102  DKA102     -0.0531
      9  C8        -0.9090    3.5700    2.1100 C.3   102  DKA102     -0.0533
     10  C9        -1.7360    3.3920    0.8340 C.3   102  DKA102     -0.0559
     11  C10       -3.1960    3.7520    1.1160 C.3   102  DKA102     -0.0653
     12  H21        3.5990    3.0910    7.4330 H     102  DKA102      0.0346
     13  H22        2.3730    3.0900    8.7000 H     102  DKA102      0.0346
     14  H31        0.6540    3.6770    6.9960 H     102  DKA102      0.0269
     15  H32        1.4410    2.1380    6.6450 H     102  DKA102      0.0269
     16  H41        2.9700    3.3110    5.0700 H     102  DKA102      0.0265
     17  H42        2.1170    4.8210    5.3970 H     102  DKA102      0.0265
     18  H51        0.0410    3.8700    4.5300 H     102  DKA102      0.0265
     19  H52        0.8290    2.3130    4.2790 H     102  DKA102      0.0265
     20  H61        2.4720    3.5360    2.7580 H     102  DKA102      0.0265
     21  H62        1.3960    4.9300    2.8620 H     102  DKA102      0.0265
     22  H71        0.6960    2.1730    1.8070 H     102  DKA102      0.0265
     23  H72        0.8450    3.6540    0.8620 H     102  DKA102      0.0265
     24  H81       -0.9960    4.5910    2.4500 H     102  DKA102      0.0265
     25  H82       -1.2830    2.9020    2.8720 H     102  DKA102      0.0265
     26  H91       -1.6780    2.3640    0.5070 H     102  DKA102      0.0263
     27  H92       -1.3480    4.0390    0.0600 H     102  DKA102      0.0263
     28 H101       -3.2700    4.8070    1.3370 H     102  DKA102      0.0230
     29 H102       -3.5500    3.1810    1.9630 H     102  DKA102      0.0230
     30 H103       -3.7970    3.5220    0.2490 H     102  DKA102      0.0230
@<TRIPOS>BOND
     1    27    10    1
     2    30    11    1
     3    26    10    1
     4    10    11    1
     5    10     9    1
     6    23     8    1
     7    11    28    1
     8    11    29    1
     9    22     8    1
    10     8     9    1
    11     8     7    1
    12     9    24    1
    13     9    25    1
    14    20     7    1
    15    21     7    1
    16     7     6    1
    17    19     6    1
    18     6    18    1
    19     6     5    1
    20    16     5    1
    21     5    17    1
    22     5     4    1
    23    15     4    1
    24     4    14    1
    25     4     3    1
    26    12     3    1
    27     2     1    2
    28     3     1    1
    29     3    13    1
