@<TRIPOS>MOLECULE
2fvf_PNS_A_1.pdb
 42 41 0 0 0
SMALL
GASTEIGER

@<TRIPOS>ATOM
      1  O23       10.3300   10.7030    5.7750 O.2   101  PNS101     -0.2224
      2  P24       11.3410   10.4440    7.0050 P.3   101  PNS101      0.5319
      3  O25       12.6920   10.8830    6.5920 O.3   101  PNS101     -0.1145
      4  O26       11.1330    9.0630    7.4970 O.3   101  PNS101     -0.1145
      5  O27       10.7960   11.4650    8.1250 O.3   101  PNS101     -0.2830
      6  C28       10.2750   10.9760    9.3540 C.3   101  PNS101      0.0671
      7  C29        9.9670   12.1580   10.2810 C.3   101  PNS101      0.0235
      8  C30        9.0980   13.1840    9.5530 C.3   101  PNS101     -0.0549
      9  C31       11.2910   12.8080   10.7070 C.3   101  PNS101     -0.0549
     10  C32        9.2090   11.6670   11.5150 C.3   101  PNS101      0.1380
     11  O33        9.1200   12.7390   12.4370 O.3   101  PNS101     -0.3820
     12  C34        7.8020   11.2000   11.1380 C.2   101  PNS101      0.2423
     13  O35        7.6070   10.0640   10.7080 O.2   101  PNS101     -0.2730
     14  N36        6.8280   12.0900   11.3050 N.am  101  PNS101     -0.3127
     15  C37        5.4420   11.7670   10.9830 C.3   101  PNS101      0.0199
     16  C38        4.8590   10.8150   12.0310 C.3   101  PNS101      0.0395
     17  C39        5.2880    9.3800   11.7400 C.2   101  PNS101      0.2145
     18  O40        6.1120    8.8100   12.4540 O.2   101  PNS101     -0.2758
     19  N41        4.7190    8.8010   10.6860 N.am  101  PNS101     -0.3145
     20  C42        5.0480    7.4310   10.3090 C.3   101  PNS101      0.0214
     21  C43        4.6410    7.1710    8.8560 C.3   101  PNS101      0.0195
     22  S44        4.3400    5.4220    8.6240 S.3   101  PNS101     -0.0915
     23 H282       11.0050   10.3350    9.8170 H     101  PNS101      0.0572
     24 H281        9.3680   10.4160    9.1750 H     101  PNS101      0.0572
     25 H303        8.6860   13.8840   10.2670 H     101  PNS101      0.0237
     26 H302        9.7000   13.7190    8.8340 H     101  PNS101      0.0237
     27 H301        8.2930   12.6770    9.0420 H     101  PNS101      0.0237
     28 H313       11.0930   13.6070   11.4070 H     101  PNS101      0.0237
     29 H312       11.9220   12.0670   11.1750 H     101  PNS101      0.0237
     30 H311       11.7910   13.2080    9.8380 H     101  PNS101      0.0237
     31  H32        9.7470   10.8410   11.9670 H     101  PNS101      0.0696
     32  H33        8.2260   12.7570   12.7840 H     101  PNS101      0.2105
     33  H36        7.0460   12.9790   11.6530 H     101  PNS101      0.1488
     34 H372        5.4020   11.3020   10.0090 H     101  PNS101      0.0467
     35 H371        4.8590   12.6780   10.9670 H     101  PNS101      0.0467
     36 H382        5.2140   11.1000   13.0110 H     101  PNS101      0.0374
     37 H381        3.7810   10.8760   12.0110 H     101  PNS101      0.0374
     38  H41        4.0680    9.3040   10.1550 H     101  PNS101      0.1487
     39 H422        4.5190    6.7490   10.9570 H     101  PNS101      0.0470
     40 H421        6.1110    7.2740   10.4180 H     101  PNS101      0.0470
     41 H431        5.4340    7.4910    8.1960 H     101  PNS101      0.0400
     42 H432        3.7410    7.7230    8.6300 H     101  PNS101      0.0400
@<TRIPOS>BOND
     1     1     2    2
     2     3     2    1
     3     2     4    1
     4     2     5    1
     5     5     6    1
     6    41    21    1
     7    22    21    1
     8    42    21    1
     9    26     8    1
    10    21    20    1
    11    27     8    1
    12    24     6    1
    13     6    23    1
    14     6     7    1
    15     8    25    1
    16     8     7    1
    17    30     9    1
    18    34    15    1
    19    38    19    1
    20     7     9    1
    21     7    10    1
    22    20    40    1
    23    20    19    1
    24    20    39    1
    25    19    17   am
    26     9    29    1
    27     9    28    1
    28    13    12    2
    29    35    15    1
    30    15    14    1
    31    15    16    1
    32    12    14   am
    33    12    10    1
    34    14    33    1
    35    10    31    1
    36    10    11    1
    37    17    16    1
    38    17    18    2
    39    37    16    1
    40    16    36    1
    41    11    32    1
