@<TRIPOS>MOLECULE
2fvj_RO0_A_1.pdb
 40 44 0 0 0
SMALL
GASTEIGER

@<TRIPOS>ATOM
      1  C1         5.4340   24.4470   18.1230 C.ar  501  RO0501      0.0169
      2  C2         5.0600   23.1970   18.6710 C.ar  501  RO0501      0.0032
      3  C3         4.5710   25.5790   18.3140 C.ar  501  RO0501      0.0634
      4  C4         6.6670   24.5490   17.4030 C.ar  501  RO0501      0.0412
      5  C5         3.8210   23.1440   19.3790 C.ar  501  RO0501      0.0131
      6  C6         5.9060   22.0670   18.4990 C.ar  501  RO0501      0.0399
      7  C7         4.9350   26.9440   17.7730 C.3   501  RO0501      0.0721
      8  N8         3.4350   25.4660   18.9710 N.ar  501  RO0501     -0.2481
      9  C9         7.4630   23.4380   17.2530 C.ar  501  RO0501      0.1724
     10  C10        3.0520   24.2700   19.4920 C.ar  501  RO0501      0.0955
     11  C11        3.3260   21.8420   19.9590 C.3   501  RO0501      0.1007
     12  C12        7.0830   22.2070   17.8000 C.ar  501  RO0501      0.1724
     13  C13        4.6570   27.1300   16.3260 C.ar  501  RO0501     -0.0130
     14  O14        8.6410   23.4230   16.5700 O.3   501  RO0501     -0.4684
     15  N15        4.2250   21.2410   20.9440 N.3   501  RO0501     -0.2689
     16  O16        7.9920   21.2290   17.5860 O.3   501  RO0501     -0.4684
     17  C17        3.3370   27.0410   15.8910 C.ar  501  RO0501      0.0362
     18  C18        5.7330   27.4180   15.4290 C.ar  501  RO0501     -0.0006
     19  C19        9.0230   24.6810   16.0380 C.3   501  RO0501      0.2526
     20  C20        4.0970   22.0210   22.1860 C.3   501  RO0501      0.0727
     21  C21        3.8290   19.8260   21.1420 C.3   501  RO0501      0.0727
     22  C22        7.6510   19.9500   18.1260 C.3   501  RO0501      0.2526
     23  C23        3.1040   27.2080   14.5250 C.ar  501  RO0501      0.1721
     24  C24        5.4750   27.5950   14.0550 C.ar  501  RO0501      0.0397
     25  C25        4.9770   21.4260   23.2990 C.3   501  RO0501      0.0218
     26  C26        4.5600   19.1730   22.3350 C.3   501  RO0501      0.0218
     27  C27        4.1570   27.4790   13.6250 C.ar  501  RO0501      0.1724
     28  O28        1.8100   27.1190   14.0410 O.3   501  RO0501     -0.4684
     29  C29        4.4560   20.0260   23.5920 C.3   501  RO0501      0.0281
     30  O30        3.8430   27.6480   12.2890 O.3   501  RO0501     -0.4684
     31  C31        0.7680   26.8610   14.9770 C.3   501  RO0501      0.2526
     32  C32        5.1400   19.3460   24.7420 C.ar  501  RO0501      0.0115
     33  C33        4.9050   27.9280   11.3800 C.3   501  RO0501      0.2526
     34  C34        4.3690   18.7140   25.7280 C.ar  501  RO0501      0.1347
     35  C35        6.5270   19.3250   24.8250 C.ar  501  RO0501     -0.0013
     36  C36        4.9520   18.0610   26.8160 C.ar  501  RO0501      0.0366
     37  O37        2.9970   18.7800   25.6150 O.3   501  RO0501     -0.4717
     38  C38        7.1320   18.6690   25.9050 C.ar  501  RO0501     -0.0001
     39  C39        6.3490   18.0360   26.8820 C.ar  501  RO0501      0.0031
     40  C40        2.1890   18.1490   26.6110 C.3   501  RO0501      0.2525
@<TRIPOS>BOND
     1    33    30    1
     2    30    27    1
     3    27    24   ar
     4    27    23   ar
     5    28    23    1
     6    28    31    1
     7    24    18   ar
     8    23    17   ar
     9    18    13   ar
    10    17    13   ar
    11    19    14    1
    12    13     7    1
    13    14     9    1
    14     9     4   ar
    15     9    12   ar
    16     4     1   ar
    17    16    12    1
    18    16    22    1
    19     7     3    1
    20    12     6   ar
    21     1     3   ar
    22     1     2   ar
    23     3     8   ar
    24     6     2   ar
    25     2     5   ar
    26     8    10   ar
    27     5    10   ar
    28     5    11    1
    29    11    15    1
    30    15    21    1
    31    15    20    1
    32    21    26    1
    33    20    25    1
    34    26    29    1
    35    25    29    1
    36    29    32    1
    37    32    35   ar
    38    32    34   ar
    39    35    38   ar
    40    37    34    1
    41    37    40    1
    42    34    36   ar
    43    38    39   ar
    44    36    39   ar
