@<TRIPOS>MOLECULE
2fvl_NAP_A_1.pdb
 48 52 0 0 0
SMALL
GASTEIGER

@<TRIPOS>ATOM
      1  PA        43.7130   70.7690   84.6260 P.3   1001  NAP1001     0.2189
      2  O1A       42.8980   69.6500   85.1510 O.3   1001  NAP1001    -0.4371
      3  O2A       45.1170   70.8900   85.0300 O.2   1001  NAP1001    -0.5170
      4  O5B       42.8720   72.0580   85.0770 O.3   1001  NAP1001    -0.3112
      5  C5B       43.0580   73.2970   84.5160 C.3   1001  NAP1001     0.1813
      6  C4B       41.9160   74.1780   84.8640 C.3   1001  NAP1001     0.1820
      7  O4B       42.0280   74.4300   86.2840 O.3   1001  NAP1001    -0.3136
      8  C3B       42.1420   75.5090   84.1270 C.3   1001  NAP1001     0.2157
      9  O3B       40.8810   76.0550   83.7000 O.3   1001  NAP1001    -0.2175
     10  C2B       42.7750   76.3880   85.1910 C.3   1001  NAP1001     0.2314
     11  O2B       42.3700   77.7330   85.0020 O.3   1001  NAP1001    -0.2630
     12  C1B       42.1350   75.8820   86.4640 C.3   1001  NAP1001     0.3158
     13  N9A       42.9930   76.0480   87.6660 N.pl3 1001  NAP1001    -0.1439
     14  C8A       44.3180   75.8160   87.7380 C.3   1001  NAP1001     0.3377
     15  N7A       44.7370   76.0540   88.9780 N.2   1001  NAP1001    -0.2095
     16  C5A       43.6570   76.4400   89.6960 C.2   1001  NAP1001     0.2526
     17  C6A       43.4750   76.8160   91.0320 C.2   1001  NAP1001     0.4393
     18  N6A       44.5400   76.8300   91.8680 N.pl3 1001  NAP1001     0.2180
     19  N1A       42.2270   77.1760   91.4450 N.2   1001  NAP1001     0.0021
     20  C2A       41.1770   77.1550   90.5990 C.3   1001  NAP1001     0.5254
     21  N3A       41.3200   76.8030   89.3220 N.2   1001  NAP1001    -0.0055
     22  C4A       42.5480   76.4400   88.8550 C.2   1001  NAP1001     0.3518
     23  O3        43.4300   70.7840   83.0470 O.3   1001  NAP1001    -0.2703
     24  PN        44.2270   70.5760   81.7120 P.3   1001  NAP1001     0.2189
     25  O1N       44.8970   71.8390   81.3480 O.3   1001  NAP1001    -0.4371
     26  O2N       43.1640   70.0430   80.8370 O.2   1001  NAP1001    -0.5170
     27  O5D       45.3110   69.4180   81.8630 O.3   1001  NAP1001    -0.3112
     28  C5D       46.5830   69.6600   82.4820 C.3   1001  NAP1001     0.1813
     29  C4D       47.7280   69.4150   81.5030 C.3   1001  NAP1001     0.1799
     30  O4D       47.6310   68.0350   81.2460 O.3   1001  NAP1001    -0.3327
     31  C3D       47.5760   70.0220   80.1050 C.3   1001  NAP1001     0.2158
     32  O3D       48.0410   71.3580   80.0800 O.3   1001  NAP1001    -0.2175
     33  C2D       48.5520   69.1530   79.3640 C.3   1001  NAP1001     0.2309
     34  O2D       49.8890   69.5310   79.7490 O.3   1001  NAP1001    -0.2158
     35  C1D       48.2070   67.7890   79.9530 C.3   1001  NAP1001     0.2263
     36  N1N       47.1540   66.9970   79.2580 N.pl3 1001  NAP1001    -0.2787
     37  C2N       47.5550   65.8460   78.5510 C.3   1001  NAP1001     0.1244
     38  C3N       46.6190   65.0670   77.8760 C.2   1001  NAP1001     0.0544
     39  C7N       47.0530   63.8250   77.1400 C.2   1001  NAP1001     0.2818
     40  O7N       46.2930   63.2450   76.3860 O.2   1001  NAP1001    -0.2670
     41  N7N       48.2670   63.3920   77.3970 N.am  1001  NAP1001    -0.0839
     42  C4N       45.2670   65.4210   77.9130 C.2   1001  NAP1001     0.0033
     43  C5N       44.8570   66.5490   78.6240 C.2   1001  NAP1001     0.0157
     44  C6N       45.7940   67.3490   79.2820 C.2   1001  NAP1001     0.0633
     45  P2B       43.4480   78.9190   84.9550 P.3   1001  NAP1001     0.5328
     46  O1X       44.3160   78.6280   83.6350 O.2   1001  NAP1001    -0.2224
     47  O2X       42.5840   80.2130   84.6270 O.3   1001  NAP1001    -0.1145
     48  O3X       44.2660   79.0490   86.1690 O.3   1001  NAP1001    -0.1145
@<TRIPOS>BOND
     1    40    39    2
     2    39    41   am
     3    39    38    1
     4    38    42    2
     5    38    37    1
     6    42    43    1
     7    37    36    1
     8    43    44    2
     9    36    44    1
    10    36    35    1
    11    33    34    1
    12    33    35    1
    13    33    31    1
    14    35    30    1
    15    32    31    1
    16    31    29    1
    17    26    24    2
    18    30    29    1
    19    25    24    1
    20    29    28    1
    21    24    27    1
    22    24    23    1
    23    27    28    1
    24    23     1    1
    25    46    45    2
    26     9     8    1
    27     8     6    1
    28     8    10    1
    29     5     6    1
    30     5     4    1
    31     1     3    2
    32     1     4    1
    33     1     2    1
    34    47    45    1
    35     6     7    1
    36    45    11    1
    37    45    48    1
    38    11    10    1
    39    10    12    1
    40     7    12    1
    41    12    13    1
    42    13    14    1
    43    13    22    1
    44    14    15    1
    45    22    21    2
    46    22    16    1
    47    15    16    2
    48    21    20    1
    49    16    17    1
    50    20    19    1
    51    17    19    2
    52    17    18    1
