@<TRIPOS>MOLECULE
2fvv_IHP_A_1.pdb
 36 36 0 0 0
SMALL
GASTEIGER

@<TRIPOS>ATOM
      1  C1        18.0880    5.5630   14.8660 C.3   2360  IHP2360     0.1863
      2  C2        18.5700    4.9280   16.1970 C.3   2360  IHP2360     0.1863
      3  C3        19.2140    3.5520   15.9160 C.3   2360  IHP2360     0.1863
      4  C4        18.0680    2.7510   15.2700 C.3   2360  IHP2360     0.1863
      5  C5        17.6640    3.3090   13.9080 C.3   2360  IHP2360     0.1863
      6  C6        17.0380    4.7180   14.1140 C.3   2360  IHP2360     0.1863
      7  O11       17.4650    6.7910   15.1950 O.3   2360  IHP2360    -0.2675
      8  P1        18.3080    8.1600   15.2860 P.3   2360  IHP2360     0.5327
      9  O21       17.1570    9.2610   15.0160 O.3   2360  IHP2360    -0.1145
     10  O31       19.2070    8.3100   13.9910 O.2   2360  IHP2360    -0.2224
     11  O41       19.0610    8.3020   16.5260 O.3   2360  IHP2360    -0.1145
     12  O12       17.4590    4.6840   17.0450 O.3   2360  IHP2360    -0.2675
     13  P2        17.3610    5.3040   18.5380 P.3   2360  IHP2360     0.5327
     14  O22       17.5310    4.1930   19.5260 O.3   2360  IHP2360    -0.1145
     15  O32       18.4070    6.4680   18.5630 O.3   2360  IHP2360    -0.1145
     16  O42       15.9240    6.0170   18.5460 O.2   2360  IHP2360    -0.2224
     17  O13       19.4640    2.7840   17.1380 O.3   2360  IHP2360    -0.2675
     18  P3        21.0190    2.7780   17.5200 P.3   2360  IHP2360     0.5327
     19  O23       21.1480    1.7670   18.7220 O.3   2360  IHP2360    -0.1145
     20  O33       21.7370    2.0930   16.2600 O.2   2360  IHP2360    -0.2224
     21  O43       21.4240    4.1440   17.7650 O.3   2360  IHP2360    -0.1145
     22  O14       18.7780    1.5500   14.9560 O.3   2360  IHP2360    -0.2675
     23  P4        18.3890    0.0990   15.4370 P.3   2360  IHP2360     0.5327
     24  O24       17.5560    0.4000   16.7770 O.3   2360  IHP2360    -0.1145
     25  O34       19.7270   -0.5600   15.8860 O.3   2360  IHP2360    -0.1145
     26  O44       17.5900   -0.5120   14.3260 O.2   2360  IHP2360    -0.2224
     27  O15       16.5580    2.5140   13.5770 O.3   2360  IHP2360    -0.2675
     28  P5        16.2750    1.6350   12.3150 P.3   2360  IHP2360     0.5327
     29  O25       17.4250    0.5670   12.1090 O.3   2360  IHP2360    -0.1145
     30  O35       16.0610    2.6310   11.0730 O.2   2360  IHP2360    -0.2224
     31  O45       14.9620    0.8970   12.5390 O.3   2360  IHP2360    -0.1145
     32  O16       16.8030    5.1730   12.7930 O.3   2360  IHP2360    -0.2675
     33  P6        15.4770    5.7840   12.2000 P.3   2360  IHP2360     0.5327
     34  O26       14.8280    4.6760   11.2360 O.2   2360  IHP2360    -0.2224
     35  O36       14.5570    6.0890   13.4790 O.3   2360  IHP2360    -0.1145
     36  O46       15.7380    7.0150   11.3910 O.3   2360  IHP2360    -0.1145
@<TRIPOS>BOND
     1    30    28    2
     2    34    33    2
     3    36    33    1
     4    29    28    1
     5    33    32    1
     6    33    35    1
     7    28    31    1
     8    28    27    1
     9    32     6    1
    10    27     5    1
    11     5     6    1
    12     5     4    1
    13    10     8    2
    14     6     1    1
    15    26    23    2
    16     1     7    1
    17     1     2    1
    18    22     4    1
    19    22    23    1
    20     9     8    1
    21     7     8    1
    22     4     3    1
    23     8    11    1
    24    23    25    1
    25    23    24    1
    26     3     2    1
    27     3    17    1
    28     2    12    1
    29    20    18    2
    30    12    13    1
    31    17    18    1
    32    18    21    1
    33    18    19    1
    34    13    16    2
    35    13    15    1
    36    13    14    1
