@<TRIPOS>MOLECULE
2fvx_FMN_A_1.pdb
 31 33 0 0 0
SMALL
GASTEIGER

@<TRIPOS>ATOM
      1  N1        27.7280   14.2050   15.9910 N.2   139  FMN139     -0.2887
      2  C2        27.8100   13.9360   17.3220 C.1   139  FMN139      0.3669
      3  O2        26.8240   13.6760   17.9860 O.2   139  FMN139     -0.1744
      4  N3        29.0970   13.9610   17.9420 N.2   139  FMN139     -0.2300
      5  C4        30.2960   14.1570   17.2810 C.1   139  FMN139      0.2513
      6  O4        31.3720   14.1090   17.8720 O.2   139  FMN139     -0.2057
      7  C4A       30.1870   14.4210   15.8340 C.2   139  FMN139      0.2706
      8  N5        31.2890   14.5520   15.0880 N.2   139  FMN139     -0.3841
      9  C5A       31.1240   14.6510   13.7190 C.2   139  FMN139      0.1452
     10  C6        32.2430   14.6780   12.8540 C.2   139  FMN139      0.0252
     11  C7        32.1340   14.8580   11.4990 C.2   139  FMN139     -0.0375
     12  C7M       33.3600   14.8840   10.6160 C.3   139  FMN139      0.0268
     13  C8        30.8420   15.0030   10.9310 C.3   139  FMN139      0.0417
     14  C8M       30.6310   15.2930    9.4800 C.3   139  FMN139      0.0091
     15  C9        29.7230   14.8900   11.7450 C.2   139  FMN139     -0.0049
     16  C9A       29.8400   14.7570   13.1300 C.2   139  FMN139      0.0795
     17  N10       28.7280   14.6250   13.9620 N.pl3 139  FMN139     -0.2545
     18  C10       28.8250   14.4390   15.2960 C.2   139  FMN139      0.2449
     19  C1'       27.3830   14.6100   13.3510 C.3   139  FMN139      0.1336
     20  C2'       26.7710   15.9870   13.0670 C.3   139  FMN139      0.2048
     21  O2'       26.8250   16.8250   14.2240 O.3   139  FMN139     -0.2185
     22  C3'       25.3100   15.8140   12.6370 C.3   139  FMN139      0.2165
     23  O3'       25.2630   15.0940   11.4020 O.3   139  FMN139     -0.2175
     24  C4'       24.5230   17.1430   12.5030 C.3   139  FMN139      0.2147
     25  O4'       23.1520   16.8710   12.2070 O.3   139  FMN139     -0.2176
     26  C5'       25.0920   17.9950   11.3690 C.3   139  FMN139      0.1892
     27  O5'       24.4560   19.2370   11.3530 O.3   139  FMN139     -0.2674
     28  P         24.8180   20.2800   10.2130 P.3   139  FMN139      0.5327
     29  O1P       24.2780   21.5430   10.7470 O.3   139  FMN139     -0.1145
     30  O2P       24.2960   19.8340    8.9180 O.2   139  FMN139     -0.2224
     31  O3P       26.3530   20.3390   10.1470 O.3   139  FMN139     -0.1145
@<TRIPOS>BOND
     1    30    28    2
     2    14    13    1
     3    31    28    1
     4    28    29    1
     5    28    27    1
     6    12    11    1
     7    13    11    1
     8    13    15    1
     9    27    26    1
    10    26    24    1
    11    23    22    1
    12    11    10    2
    13    15    16    2
    14    25    24    1
    15    24    22    1
    16    22    20    1
    17    10     9    1
    18    20    19    1
    19    20    21    1
    20    16     9    1
    21    16    17    1
    22    19    17    1
    23     9     8    2
    24    17    18    1
    25     8     7    2
    26    18     7    1
    27    18     1    2
    28     7     5    1
    29     1     2    2
    30     5     6    2
    31     5     4    2
    32     2     4    2
    33     2     3    2
