@<TRIPOS>MOLECULE
2fw3_BUI_A_1.pdb
 28 27 0 0 0
SMALL
GASTEIGER

@<TRIPOS>ATOM
      1  O9        27.7370   10.0010   32.4040 O.co2 900  BUI900     -0.2456
      2  C3        26.4760    9.9220   32.2400 C.2   900  BUI900      0.3665
      3  O8        25.8540   10.7190   31.4910 O.co2 900  BUI900     -0.2456
      4  C2        25.6900    8.8300   32.9560 C.3   900  BUI900      0.1335
      5  C5        24.1790    9.1310   33.1180 C.3   900  BUI900      0.0881
      6  C10       23.8600   10.2710   34.1080 C.3   900  BUI900     -0.0506
      7  N6        22.5080   10.9210   33.9700 N.4   900  BUI900      0.3869
      8  C14       21.3620   10.0350   34.2790 C.3   900  BUI900     -0.0959
      9  C13       22.2860   11.5170   32.6320 C.3   900  BUI900     -0.0959
     10  C12       22.4240   11.9880   34.9730 C.3   900  BUI900     -0.0959
     11  N4        23.5840    7.9080   33.6690 N.am  900  BUI900     -0.1905
     12  C1        22.8390    7.1140   32.8520 C.2   900  BUI900      0.3391
     13  O7        22.6920    7.4560   31.6740 O.2   900  BUI900     -0.2492
     14  N11       22.2500    5.9720   33.3090 N.am  900  BUI900     -0.1872
     15  C15       21.4280    5.0230   32.5590 C.3   900  BUI900      0.1168
     16  C16       20.4290    4.4580   33.5690 C.3   900  BUI900      0.0235
     17  C24       18.9530    4.8750   33.4300 C.3   900  BUI900      0.0018
     18  C26       18.4310    4.7530   32.0110 C.3   900  BUI900      0.0001
     19  C27       16.9150    4.9990   31.9480 C.3   900  BUI900      0.0000
     20  C19       16.3310    4.8820   30.5350 C.3   900  BUI900      0.0000
     21  C20       15.4030    3.6680   30.4390 C.3   900  BUI900      0.0000
     22  C21       14.2870    3.8630   29.4110 C.3   900  BUI900      0.0000
     23  C22       13.1460    4.7240   29.9610 C.3   900  BUI900      0.0000
     24  C23       11.8080    4.0280   29.7190 C.3   900  BUI900      0.0000
     25  C25       10.5940    4.8650   30.1240 C.3   900  BUI900      0.0000
     26  C18        9.3370    4.1860   29.5970 C.3   900  BUI900      0.0000
     27  C17        8.0640    4.9930   29.8430 C.3   900  BUI900      0.0000
     28  C28        7.0850    4.2570   30.7270 C.3   900  BUI900      0.0000
@<TRIPOS>BOND
     1    22    23    1
     2    22    21    1
     3    26    27    1
     4    26    25    1
     5    24    23    1
     6    24    25    1
     7    27    28    1
     8    21    20    1
     9    20    19    1
    10     3     2   ar
    11    13    12    2
    12    19    18    1
    13    18    17    1
    14     2     1   ar
    15     2     4    1
    16    15    14    1
    17    15    16    1
    18     9     7    1
    19    12    14   am
    20    12    11   am
    21     4     5    1
    22     5    11    1
    23     5     6    1
    24    17    16    1
    25     7     6    1
    26     7     8    1
    27     7    10    1
