@<TRIPOS>MOLECULE
2fw4_HIS_A_1.pdb
 11 11 0 0 0
SMALL
GASTEIGER

@<TRIPOS>ATOM
      1  N         14.0550   33.6690   16.6790 N.3   500  HIS500     -0.1204
      2  CA        12.7180   34.3420   16.6780 C.3   500  HIS500      0.1999
      3  C         12.6810   35.4950   17.6950 C.2   500  HIS500      0.3822
      4  O         13.3740   36.5380   17.6460 O.co2 500  HIS500     -0.2440
      5  CB        11.6110   33.3170   16.9830 C.3   500  HIS500      0.0740
      6  CG        10.2730   33.6200   16.3610 C.2   500  HIS500      0.0651
      7  ND1       10.1260   34.2450   15.1400 N.2   500  HIS500     -0.2310
      8  CD2        9.0170   33.3280   16.7770 C.3   500  HIS500      0.1683
      9  CE1        8.8400   34.3370   14.8390 C.2   500  HIS500      0.1939
     10  NE2        8.1460   33.7790   15.8140 N.2   500  HIS500     -0.2440
     11  OXT       12.1200   35.7500   18.7300 O.co2 500  HIS500     -0.2440
@<TRIPOS>BOND
     1     9     7    1
     2     9    10    2
     3     7     6    2
     4    10     8    1
     5     6     8    1
     6     6     5    1
     7     2     1    1
     8     2     5    1
     9     2     3    1
    10     4     3   ar
    11     3    11   ar
