@<TRIPOS>MOLECULE
2fw5_HEM_A_1.pdb
 43 50 0 0 0
SMALL
GASTEIGER

@<TRIPOS>ATOM
      1 FE          8.9020    5.6600    4.1720 Fe    803  HEM803      0.0000
      2  CHA        6.0990    4.7150    2.7380 C.2   803  HEM803      0.0000
      3  CHB        9.8980    2.2510    4.4540 C.2   803  HEM803      0.0000
      4  CHC       11.9140    6.6080    5.3190 C.2   803  HEM803      0.0000
      5  CHD        7.7640    8.9700    4.4430 C.2   803  HEM803      0.0000
      6  NA         8.1820    3.7950    3.7120 N.ar  803  HEM803      0.0000
      7  C1A        6.9470    3.6710    3.0920 C.ar  803  HEM803      0.0000
      8  C2A        6.7160    2.2570    2.8640 C.ar  803  HEM803      0.0000
      9  C3A        7.7440    1.5620    3.3590 C.ar  803  HEM803      0.0000
     10  C4A        8.7020    2.5210    3.8670 C.ar  803  HEM803      0.0000
     11  CMA        7.9740    0.0130    3.3350 C.3   803  HEM803      0.0000
     12  CAA        5.4390    1.6680    2.1940 C.3   803  HEM803      0.0000
     13  CBA        4.3830    1.3780    3.2480 C.3   803  HEM803      0.0000
     14  CGA        3.2560    0.5540    2.5940 C.2   803  HEM803      0.0000
     15  O1A        3.3390   -0.7190    2.4780 O.co2 803  HEM803      0.0000
     16  O2A        2.2580    1.1920    2.1620 O.co2 803  HEM803      0.0000
     17  NB        10.5850    4.6270    4.7810 N.2   803  HEM803      0.0000
     18  C1B       10.8030    3.2470    4.8040 C.2   803  HEM803      0.0000
     19  C2B       12.1540    3.0260    5.3160 C.2   803  HEM803      0.0000
     20  C3B       12.7410    4.2440    5.5040 C.2   803  HEM803      0.0000
     21  C4B       11.7330    5.2670    5.2000 C.2   803  HEM803      0.0000
     22  CMB       12.8010    1.6380    5.4720 C.3   803  HEM803      0.0000
     23  CAB       14.1960    4.4870    5.9820 C.3   803  HEM803      0.0000
     24  CBB       15.2950    3.9360    5.3430 C.3   803  HEM803      0.0000
     25  NC         9.6830    7.4490    4.7730 N.ar  803  HEM803      0.0000
     26  C1C       10.9760    7.6000    5.2160 C.ar  803  HEM803      0.0000
     27  C2C       11.1870    8.9900    5.5660 C.ar  803  HEM803      0.0000
     28  C3C       10.0360    9.6400    5.2890 C.ar  803  HEM803      0.0000
     29  C4C        9.0630    8.6740    4.8390 C.ar  803  HEM803      0.0000
     30  CMC       12.5060    9.6260    6.0940 C.3   803  HEM803      0.0000
     31  CAC        9.7350   11.1550    5.4620 C.2   803  HEM803      0.0000
     32  CBC       10.4930   12.1560    4.8960 C.2   803  HEM803      0.0000
     33  ND         7.1930    6.7420    3.6750 N.2   803  HEM803      0.0000
     34  C1D        6.9280    8.0660    3.8810 C.2   803  HEM803      0.0000
     35  C2D        5.5990    8.3390    3.4250 C.2   803  HEM803      0.0000
     36  C3D        5.0880    7.0130    2.9100 C.2   803  HEM803      0.0000
     37  C4D        6.1470    6.0580    3.0950 C.2   803  HEM803      0.0000
     38  CMD        4.9170    9.7070    3.5070 C.3   803  HEM803      0.0000
     39  CAD        3.7220    6.7200    2.2710 C.3   803  HEM803      0.0000
     40  CBD        2.7440    6.3320    3.3280 C.3   803  HEM803      0.0000
     41  CGD        1.5430    5.9600    2.5200 C.2   803  HEM803      0.0000
     42  O1D        1.4680    6.3080    1.2910 O.co2 803  HEM803      0.0000
     43  O2D        0.6660    5.3240    3.1300 O.co2 803  HEM803      0.0000
@<TRIPOS>BOND
     1    42    41   ar
     2    16    14   ar
     3    12     8    1
     4    12    13    1
     5    39    36    1
     6    39    40    1
     7    15    14   ar
     8    41    43   ar
     9    41    40    1
    10    14    13    1
    11     2     7    2
    12     2    37    1
    13     8     7   ar
    14     8     9   ar
    15    36    37    1
    16    36    35    2
    17     7     6   ar
    18    37    33    2
    19    11     9    1
    20     9    10   ar
    21    35    38    1
    22    35    34    1
    23    33    34    1
    24    33     1    1
    25     6    10   ar
    26     6     1    1
    27    10     3    2
    28    34     5    2
    29     1    25    1
    30     1    17    1
    31     5    29    1
    32     3    18    1
    33    25    29   ar
    34    25    26   ar
    35    17    18    2
    36    17    21    1
    37    18    19    1
    38    29    28   ar
    39    32    31    2
    40    21     4    2
    41    21    20    1
    42    26     4    1
    43    26    27   ar
    44    28    31    1
    45    28    27   ar
    46    19    22    1
    47    19    20    2
    48    24    23    1
    49    20    23    1
    50    27    30    1
