@<TRIPOS>MOLECULE
2fw6_CIT_B_1.pdb
 13 12 0 0 0
SMALL
GASTEIGER

@<TRIPOS>ATOM
      1  C1        34.6890   65.5750 -149.1450 C.2   1002  CIT1002     0.3680
      2  O1        33.9320   66.4800 -149.5610 O.co2 1002  CIT1002    -0.2455
      3  O2        34.7490   65.2390 -147.9440 O.co2 1002  CIT1002    -0.2455
      4  C2        35.5570   64.8310 -150.1440 C.3   1002  CIT1002     0.1560
      5  C3        36.1100   65.7420 -151.2450 C.3   1002  CIT1002     0.2402
      6  O7        35.0110   66.3270 -151.9520 O.3   1002  CIT1002    -0.2129
      7  C4        36.9690   64.9060 -152.2020 C.3   1002  CIT1002     0.1560
      8  C5        36.1370   64.0340 -153.1270 C.2   1002  CIT1002     0.3680
      9  O3        36.1120   64.3180 -154.3430 O.co2 1002  CIT1002    -0.2455
     10  O4        35.5020   63.0730 -152.6420 O.co2 1002  CIT1002    -0.2455
     11  C6        36.9590   66.8610 -150.6430 C.2   1002  CIT1002     0.3927
     12  O5        37.9510   66.5270 -149.9660 O.co2 1002  CIT1002    -0.2429
     13  O6        36.6350   68.0530 -150.8640 O.co2 1002  CIT1002    -0.2429
@<TRIPOS>BOND
     1     9     8   ar
     2     8    10   ar
     3     8     7    1
     4     7     5    1
     5     6     5    1
     6     5    11    1
     7     5     4    1
     8    13    11   ar
     9    11    12   ar
    10     4     1    1
    11     2     1   ar
    12     1     3   ar
