@<TRIPOS>MOLECULE
2fwi_AIR_A_1.pdb
 19 20 0 0 0
SMALL
GASTEIGER

@<TRIPOS>ATOM
      1  N1        34.4980   36.4470 -130.6150 N.ar  1001  AIR1001    -0.2702
      2  C2        33.6940   35.5130 -130.0770 C.ar  1001  AIR1001     0.1814
      3  N3        33.2150   34.7220 -131.0390 N.ar  1001  AIR1001    -0.2208
      4  C4        33.7320   35.1730 -132.1890 C.ar  1001  AIR1001     0.1365
      5  C5        34.5050   36.2270 -131.9270 C.ar  1001  AIR1001     0.1735
      6  N6        35.1770   36.9560 -132.8360 N.pl3 1001  AIR1001    -0.1072
      7  C1'       35.2310   37.5270 -129.9330 C.3   1001  AIR1001     0.2408
      8  C2'       34.3790   38.2150 -128.9040 C.3   1001  AIR1001     0.2337
      9  C3'       35.4760   38.9800 -128.1510 C.3   1001  AIR1001     0.2161
     10  C4'       36.6820   38.0610 -128.3090 C.3   1001  AIR1001     0.1803
     11  O4'       36.2800   36.9770 -129.1530 O.3   1001  AIR1001    -0.3306
     12  O2'       33.5120   39.0340 -129.6710 O.3   1001  AIR1001    -0.2155
     13  O3'       35.7640   40.2920 -128.6530 O.3   1001  AIR1001    -0.2175
     14  C5'       37.2710   37.4830 -127.0280 C.3   1001  AIR1001     0.1859
     15  O5'       36.2460   36.6770 -126.3970 O.3   1001  AIR1001    -0.2675
     16  P         36.5610   35.5610 -125.2860 P.3   1001  AIR1001     0.5327
     17  O6        37.0650   36.1690 -124.0430 O.3   1001  AIR1001    -0.1145
     18  O7        37.5740   34.4940 -125.9140 O.2   1001  AIR1001    -0.2224
     19  O8        35.2180   34.6880 -125.0900 O.3   1001  AIR1001    -0.1145
@<TRIPOS>BOND
     1     6     5    1
     2     4     5   ar
     3     4     3   ar
     4     5     1   ar
     5     3     2   ar
     6     1     2   ar
     7     1     7    1
     8     7    11    1
     9     7     8    1
    10    12     8    1
    11    11    10    1
    12     8     9    1
    13    13     9    1
    14    10     9    1
    15    10    14    1
    16    14    15    1
    17    15    16    1
    18    18    16    2
    19    16    19    1
    20    16    17    1
