@<TRIPOS>MOLECULE
2fwj_AIR_A_1.pdb
 19 20 0 0 0
SMALL
GASTEIGER

@<TRIPOS>ATOM
      1  N1        33.5950   36.5050 -131.6340 N.ar  1001  AIR1001    -0.2702
      2  C2        32.8170   35.6000 -131.0550 C.ar  1001  AIR1001     0.1814
      3  N3        32.1260   34.9440 -131.9900 N.ar  1001  AIR1001    -0.2208
      4  C4        32.4810   35.4430 -133.1680 C.ar  1001  AIR1001     0.1365
      5  C5        33.3890   36.3890 -132.9460 C.ar  1001  AIR1001     0.1735
      6  N6        34.0230   37.0400 -133.9170 N.pl3 1001  AIR1001    -0.1072
      7  C1'       34.5300   37.4440 -130.9540 C.3   1001  AIR1001     0.2408
      8  C2'       33.8570   38.3750 -129.9400 C.3   1001  AIR1001     0.2337
      9  C3'       34.9960   38.6830 -128.9620 C.3   1001  AIR1001     0.2161
     10  C4'       36.1280   37.7330 -129.3670 C.3   1001  AIR1001     0.1803
     11  O4'       35.4870   36.7220 -130.1630 O.3   1001  AIR1001    -0.3306
     12  O2'       33.3740   39.5620 -130.5760 O.3   1001  AIR1001    -0.2155
     13  O3'       35.4420   40.0390 -129.0550 O.3   1001  AIR1001    -0.2175
     14  C5'       36.7670   37.1130 -128.1200 C.3   1001  AIR1001     0.1859
     15  O5'       35.8200   36.2470 -127.4800 O.3   1001  AIR1001    -0.2675
     16  P         36.1660   35.5330 -126.0750 P.3   1001  AIR1001     0.5327
     17  O6        37.2290   34.3640 -126.4110 O.2   1001  AIR1001    -0.2224
     18  O7        34.8080   34.7960 -125.6010 O.3   1001  AIR1001    -0.1145
     19  O8        36.6870   36.5020 -125.0810 O.3   1001  AIR1001    -0.1145
@<TRIPOS>BOND
     1     6     5    1
     2     4     5   ar
     3     4     3   ar
     4     5     1   ar
     5     3     2   ar
     6     1     2   ar
     7     1     7    1
     8     7    11    1
     9     7     8    1
    10    12     8    1
    11    11    10    1
    12     8     9    1
    13    10     9    1
    14    10    14    1
    15    13     9    1
    16    14    15    1
    17    15    16    1
    18    17    16    2
    19    16    18    1
    20    16    19    1
