@<TRIPOS>MOLECULE
2fwn_TDP_A_1.pdb
 26 27 0 0 0
SMALL
GASTEIGER

@<TRIPOS>ATOM
      1  N1'       10.2170   45.3480   22.1740 N.2   530  TDP530     -0.1861
      2  C2'        9.5090   44.2380   21.8200 C.1   530  TDP530      0.0663
      3  C2A        8.0360   44.3320   21.6260 C.3   530  TDP530      0.1291
      4  N3'       10.1220   43.0630   21.6000 N.2   530  TDP530     -0.3368
      5  C4'       11.4590   42.9600   21.7640 C.2   530  TDP530      0.2292
      6  N4'       12.0420   41.8110   21.4740 N.pl3 530  TDP530     -0.0925
      7  C5'       12.2500   44.0790   22.2470 C.2   530  TDP530      0.0654
      8  C6'       11.5620   45.2890   22.3660 C.2   530  TDP530      0.1115
      9  C35       13.7310   43.9970   22.5020 C.3   530  TDP530      0.1237
     10  N3        14.0630   43.0600   23.5890 N.pl3 530  TDP530     -0.2970
     11  C2        14.8860   41.8970   23.2890 C.3   530  TDP530      0.1543
     12  S1        15.2210   41.0730   24.7710 S.3   530  TDP530     -0.0951
     13  C5        14.8150   42.5030   25.6720 C.2   530  TDP530      0.0164
     14  C4        14.1820   43.4250   24.9300 C.2   530  TDP530      0.0279
     15  C4A       13.5770   44.7170   25.3970 C.3   530  TDP530      0.0473
     16  C5A       15.0110   42.5040   27.2190 C.3   530  TDP530      0.0661
     17  C5B       13.9050   41.7550   27.9480 C.3   530  TDP530      0.1544
     18  O5G       14.2540   41.8760   29.3540 O.3   530  TDP530     -0.3134
     19  P1        13.7090   40.8220   30.3980 P.3   530  TDP530      0.2230
     20  O11       14.6570   39.5710   30.2830 O.3   530  TDP530     -0.2261
     21  O12       13.8770   41.4800   31.7320 O.3   530  TDP530     -0.4370
     22  O13       12.3430   40.3740   30.0570 O.2   530  TDP530     -0.5169
     23  P2        16.2820   39.4210   30.4260 P.3   530  TDP530      0.5373
     24  O21       16.7230   40.3620   31.5330 O.3   530  TDP530     -0.1143
     25  O22       16.4910   37.9770   30.7670 O.3   530  TDP530     -0.1143
     26  O23       16.8380   39.7920   29.0660 O.2   530  TDP530     -0.2221
@<TRIPOS>BOND
     1     6     5    1
     2     4     5    2
     3     4     2    2
     4     3     2    1
     5     5     7    1
     6     2     1    2
     7     1     8    1
     8     7     8    2
     9     7     9    1
    10     9    10    1
    11    11    10    1
    12    11    12    1
    13    10    14    1
    14    12    13    1
    15    14    15    1
    16    14    13    2
    17    13    16    1
    18    16    17    1
    19    17    18    1
    20    26    23    2
    21    18    19    1
    22    22    19    2
    23    20    19    1
    24    20    23    1
    25    19    21    1
    26    23    25    1
    27    23    24    1
