@<TRIPOS>MOLECULE
2fwp_CIT_B_1.pdb
 13 12 0 0 0
SMALL
GASTEIGER

@<TRIPOS>ATOM
      1  C1        34.7920   65.6470 -149.0640 C.2   1002  CIT1002     0.3680
      2  O1        34.0920   66.5850 -149.5070 O.co2 1002  CIT1002    -0.2455
      3  O2        34.7590   65.2790 -147.8690 O.co2 1002  CIT1002    -0.2455
      4  C2        35.7050   64.9020 -150.0250 C.3   1002  CIT1002     0.1560
      5  C3        36.2340   65.7960 -151.1560 C.3   1002  CIT1002     0.2402
      6  O7        35.1300   66.3790 -151.8590 O.3   1002  CIT1002    -0.2129
      7  C4        37.0720   64.9520 -152.1230 C.3   1002  CIT1002     0.1560
      8  C5        36.2170   64.1020 -153.0530 C.2   1002  CIT1002     0.3680
      9  O3        36.1480   64.4290 -154.2550 O.co2 1002  CIT1002    -0.2455
     10  O4        35.6100   63.1170 -152.5840 O.co2 1002  CIT1002    -0.2455
     11  C6        37.0990   66.9190 -150.5950 C.2   1002  CIT1002     0.3927
     12  O5        38.0890   66.6060 -149.9060 O.co2 1002  CIT1002    -0.2429
     13  O6        36.7770   68.0980 -150.8600 O.co2 1002  CIT1002    -0.2429
@<TRIPOS>BOND
     1     9     8   ar
     2     8    10   ar
     3     8     7    1
     4     7     5    1
     5     6     5    1
     6     5    11    1
     7     5     4    1
     8    13    11   ar
     9    11    12   ar
    10     4     1    1
    11     2     1   ar
    12     1     3   ar
