@<TRIPOS>MOLECULE
2fwp_ICR_A_1.pdb
 22 23 0 0 0
SMALL
GASTEIGER

@<TRIPOS>ATOM
      1  O6'       37.5670   34.2540 -126.9960 O.2   1001  ICR1001    -0.2224
      2  P         36.4310   35.3100 -126.5630 P.3   1001  ICR1001     0.5327
      3  O7'       35.1180   34.4350 -126.2470 O.3   1001  ICR1001    -0.1145
      4  O8'       36.8420   36.1650 -125.4250 O.3   1001  ICR1001    -0.1145
      5  O5'       36.0760   36.1520 -127.8890 O.3   1001  ICR1001    -0.2675
      6  C5'       37.0690   36.9640 -128.5200 C.3   1001  ICR1001     0.1860
      7  C4'       36.4880   37.6120 -129.7770 C.3   1001  ICR1001     0.1823
      8  O4'       35.9070   36.5930 -130.6090 O.3   1001  ICR1001    -0.3136
      9  C3'       35.3430   38.5630 -129.4150 C.3   1001  ICR1001     0.2184
     10  O3'       35.6300   39.8730 -129.9130 O.3   1001  ICR1001    -0.2174
     11  C2'       34.1510   37.9760 -130.1710 C.3   1001  ICR1001     0.2569
     12  O2'       33.3560   39.0360 -130.7080 O.3   1001  ICR1001    -0.2130
     13  C1'       34.8700   37.2780 -131.3250 C.3   1001  ICR1001     0.3180
     14  N1        33.9560   36.3350 -132.0130 N.pl3 1001  ICR1001    -0.1496
     15  C2        32.8890   35.7380 -131.4810 C.3   1001  ICR1001     0.3013
     16  N3        32.5000   34.7070 -132.2300 N.3   1001  ICR1001    -0.1510
     17  C4        32.9300   34.9780 -133.6080 C.3   1001  ICR1001     0.2897
     18  C7        31.8150   35.6880 -134.3820 C.2   1001  ICR1001     0.3925
     19  O9        32.1380   36.3050 -135.4210 O.co2 1001  ICR1001    -0.2434
     20  O8        30.6550   35.5940 -133.9280 O.co2 1001  ICR1001    -0.2434
     21  C5        34.0570   35.9560 -133.2830 C.2   1001  ICR1001     0.3824
     22  N6        34.9980   36.3690 -134.1280 N.2   1001  ICR1001     0.1902
@<TRIPOS>BOND
     1    19    18   ar
     2    18    20   ar
     3    18    17    1
     4    22    21    2
     5    17    21    1
     6    17    16    1
     7    21    14    1
     8    16    15    1
     9    14    15    1
    10    14    13    1
    11    13     8    1
    12    13    11    1
    13    12    11    1
    14     8     7    1
    15    11     9    1
    16    10     9    1
    17     7     9    1
    18     7     6    1
    19     6     5    1
    20     5     2    1
    21     1     2    2
    22     2     3    1
    23     2     4    1
