@<TRIPOS>MOLECULE
2fwt_HEM_A_1.pdb
 43 50 0 0 0
SMALL
GASTEIGER

@<TRIPOS>ATOM
      1 FE         72.5340   49.4370   15.4640 Fe    803  HEM803      0.0000
      2  CHA       75.0390   47.1490   15.4660 C.2   803  HEM803      0.0000
      3  CHB       73.5620   50.6260   12.4420 C.2   803  HEM803      0.0000
      4  CHC       69.7950   51.4630   15.3130 C.2   803  HEM803      0.0000
      5  CHD       71.8180   48.7090   18.7080 C.2   803  HEM803      0.0000
      6  NA        74.0150   48.9670   14.1910 N.ar  803  HEM803      0.0000
      7  C1A       74.9340   47.9550   14.3530 C.ar  803  HEM803      0.0000
      8  C2A       75.7880   47.9220   13.2150 C.ar  803  HEM803      0.0000
      9  C3A       75.3950   48.8990   12.3780 C.ar  803  HEM803      0.0000
     10  C4A       74.2680   49.5760   12.9760 C.ar  803  HEM803      0.0000
     11  CMA       76.0600   49.2410   11.0350 C.3   803  HEM803      0.0000
     12  CAA       76.9580   46.9340   12.9790 C.3   803  HEM803      0.0000
     13  CBA       76.4280   45.8080   12.1060 C.3   803  HEM803      0.0000
     14  CGA       77.4580   44.6930   11.9010 C.2   803  HEM803      0.0000
     15  O1A       77.8740   44.4860   10.7490 O.co2 803  HEM803      0.0000
     16  O2A       77.8850   44.0090   12.8610 O.co2 803  HEM803      0.0000
     17  NB        71.8070   50.7880   14.1450 N.2   803  HEM803      0.0000
     18  C1B       72.3890   51.1380   12.9340 C.2   803  HEM803      0.0000
     19  C2B       71.5670   52.1150   12.2730 C.2   803  HEM803      0.0000
     20  C3B       70.5100   52.3530   13.0620 C.2   803  HEM803      0.0000
     21  C4B       70.6600   51.5220   14.2500 C.2   803  HEM803      0.0000
     22  CMB       71.9110   52.7020   10.8970 C.3   803  HEM803      0.0000
     23  CAB       69.2910   53.2670   12.7950 C.3   803  HEM803      0.0000
     24  CBB       68.6170   53.1690   11.5840 C.3   803  HEM803      0.0000
     25  NC        71.1020   49.9760   16.7820 N.ar  803  HEM803      0.0000
     26  C1C       70.0310   50.8160   16.5000 C.ar  803  HEM803      0.0000
     27  C2C       69.2070   50.9000   17.6910 C.ar  803  HEM803      0.0000
     28  C3C       69.7460   50.1380   18.6540 C.ar  803  HEM803      0.0000
     29  C4C       70.9550   49.5620   18.0870 C.ar  803  HEM803      0.0000
     30  CMC       67.9420   51.7440   17.7580 C.3   803  HEM803      0.0000
     31  CAC       69.2150   49.8930   20.0870 C.2   803  HEM803      0.0000
     32  CBC       67.8770   49.6980   20.3310 C.2   803  HEM803      0.0000
     33  ND        73.2730   48.1770   16.8200 N.2   803  HEM803      0.0000
     34  C1D       72.8530   48.0690   18.1360 C.2   803  HEM803      0.0000
     35  C2D       73.7340   47.1620   18.8670 C.2   803  HEM803      0.0000
     36  C3D       74.7360   46.6710   17.8860 C.2   803  HEM803      0.0000
     37  C4D       74.3720   47.3370   16.6420 C.2   803  HEM803      0.0000
     38  CMD       73.6400   46.7750   20.3400 C.3   803  HEM803      0.0000
     39  CAD       75.9020   45.6810   18.1310 C.3   803  HEM803      0.0000
     40  CBD       77.1960   46.4500   18.4260 C.3   803  HEM803      0.0000
     41  CGD       78.4440   45.6180   18.1070 C.2   803  HEM803      0.0000
     42  O1D       78.4120   44.3700   17.8640 O.co2 803  HEM803      0.0000
     43  O2D       79.5440   46.2180   18.0590 O.co2 803  HEM803      0.0000
@<TRIPOS>BOND
     1    15    14   ar
     2    22    19    1
     3    11     9    1
     4    24    23    1
     5    14    13    1
     6    14    16   ar
     7    13    12    1
     8    19    18    1
     9    19    20    2
    10     9    10   ar
    11     9     8   ar
    12     3    18    1
    13     3    10    2
    14    23    20    1
    15    18    17    2
    16    10     6   ar
    17    12     8    1
    18    20    21    1
    19     8     7   ar
    20    17    21    1
    21    17     1    1
    22     6     7   ar
    23     6     1    1
    24    21     4    2
    25     7     2    2
    26     4    26    1
    27     1    25    1
    28     1    33    1
    29     2    37    1
    30    26    25   ar
    31    26    27   ar
    32    37    33    2
    33    37    36    1
    34    25    29   ar
    35    33    34    1
    36    27    30    1
    37    27    28   ar
    38    42    41   ar
    39    36    39    1
    40    36    35    2
    41    43    41   ar
    42    29    28   ar
    43    29     5    1
    44    41    40    1
    45    39    40    1
    46    34     5    2
    47    34    35    1
    48    28    31    1
    49    35    38    1
    50    31    32    2
