@<TRIPOS>MOLECULE
2fww_C1R_A_1.pdb
 11 11 0 0 0
SMALL
GASTEIGER

@<TRIPOS>ATOM
      1  C1        72.4390    4.9290   84.8340 C.3   999  C1R999      0.0887
      2  C2        71.5150    6.1080   85.2640 C.3   999  C1R999      0.0189
      3  C3        72.0300    7.4930   84.7240 C.3   999  C1R999      0.0029
      4  C4        73.5540    7.6930   85.0560 C.3   999  C1R999      0.0189
      5  C5        74.4300    6.4830   84.6540 C.3   999  C1R999      0.0887
      6  N6        73.8750    5.1930   85.1870 N.3   999  C1R999     -0.2181
      7  C7        71.2370    8.6780   85.3120 C.3   999  C1R999      0.0005
      8  C8        69.7710    8.8260   84.8180 C.3   999  C1R999      0.0082
      9  C9        69.1570   10.2210   85.0900 C.3   999  C1R999      0.0722
     10  O12       69.1850   10.2330   87.4480 O.2   999  C1R999     -0.2883
     11  C10       69.5110   10.8480   86.4390 C.2   999  C1R999      0.2074
@<TRIPOS>BOND
     1     5     4    1
     2     5     6    1
     3     3     4    1
     4     3     2    1
     5     3     7    1
     6     8     9    1
     7     8     7    1
     8     1     6    1
     9     1     2    1
    10     9    11    1
    11    11    10    2
