@<TRIPOS>MOLECULE
2fwy_H64_A_1.pdb
 28 31 0 0 0
SMALL
GASTEIGER

@<TRIPOS>ATOM
      1  C97        5.3730    5.8070   26.8060 C.3   1001  H641001     0.0188
      2  C95        3.9740    5.4860   27.3370 C.3   1001  H641001     0.0729
      3  C96        3.9300    4.0400   27.8350 C.3   1001  H641001     0.0188
      4  N94        2.9760    5.6620   26.2710 N.3   1001  H641001    -0.2193
      5  C93        2.5120    7.0570   26.2210 C.3   1001  H641001     0.0929
      6  C92        3.5710    7.9560   25.5800 C.3   1001  H641001     0.0701
      7  C91        3.3000    9.4330   25.8800 C.3   1001  H641001     0.2120
      8  N9         2.0790    9.9150   25.2200 N.pl3 1001  H641001    -0.1367
      9  C4         0.8610    9.9490   25.7530 C.2   1001  H641001     0.3676
     10  N3         0.3330    9.5220   26.9070 N.2   1001  H641001    -0.0039
     11  C2        -0.9500    9.7050   27.1660 C.3   1001  H641001     0.5255
     12  N1        -1.7520   10.3100   26.3070 N.2   1001  H641001     0.0030
     13  C6        -1.2920   10.7590   25.1310 C.2   1001  H641001     0.4517
     14  N6        -2.1070   11.3640   24.2710 N.pl3 1001  H641001     0.2193
     15  C5         0.0500   10.5850   24.8190 C.2   1001  H641001     0.3070
     16  N7         0.7950   10.9010   23.7640 N.2   1001  H641001    -0.3444
     17  C8         2.0320   10.4820   24.0180 C.2   1001  H641001     0.3087
     18  S          3.3930   10.6440   22.9300 S.3   1001  H641001    -0.0129
     19  C1'        4.3230   11.8880   23.7360 C.ar  1001  H641001     0.0446
     20  C6'        3.6620   12.9870   24.2740 C.ar  1001  H641001     0.0473
     21  C5'        4.3840   14.0110   24.8770 C.ar  1001  H641001     0.1770
     22  O3'        4.0040   15.1810   25.4580 O.3   1001  H641001    -0.4346
     23  C'2        5.1620   16.0040   25.2600 C.3   1001  H641001     0.4294
     24  O1'        6.2220   15.0760   25.5300 O.3   1001  H641001    -0.4346
     25  C4'        5.7720   13.9370   24.9370 C.ar  1001  H641001     0.1769
     26  C3'        6.4310   12.8380   24.4010 C.ar  1001  H641001     0.0474
     27  C2'        5.7110   11.8090   23.8020 C.ar  1001  H641001     0.0439
     28 BR          6.6380   10.2970   23.1340 Br    1001  H641001    -0.0484
@<TRIPOS>BOND
     1    18    19    1
     2    18    17    1
     3    28    27    1
     4    19    27   ar
     5    19    20   ar
     6    16    17    2
     7    16    15    2
     8    27    26   ar
     9    17     8    1
    10    14    13    1
    11    20    21   ar
    12    26    25   ar
    13    15    13    1
    14    15     9    1
    15    21    25   ar
    16    21    22    1
    17    25    24    1
    18    13    12    2
    19     8     9    1
    20     8     7    1
    21    23    22    1
    22    23    24    1
    23     6     7    1
    24     6     5    1
    25     9    10    2
    26     5     4    1
    27     4     2    1
    28    12    11    1
    29     1     2    1
    30    10    11    1
    31     2     3    1
