@<TRIPOS>MOLECULE
2fwz_H71_A_1.pdb
 28 31 0 0 0
SMALL
GASTEIGER

@<TRIPOS>ATOM
      1  C96        2.3670    5.2300   28.4990 C.3   1001  H711001     0.0188
      2  C95        1.8480    4.9660   27.0850 C.3   1001  H711001     0.0729
      3  C97        0.3730    5.3590   26.9650 C.3   1001  H711001     0.0188
      4  N94        2.6460    5.7280   26.1140 N.3   1001  H711001    -0.2193
      5  C93        2.4460    7.1690   26.3230 C.3   1001  H711001     0.0929
      6  C92        3.5090    7.9660   25.5650 C.3   1001  H711001     0.0701
      7  C91        3.3810    9.4550   25.8880 C.3   1001  H711001     0.2120
      8  N9         2.1650   10.0230   25.2820 N.pl3 1001  H711001    -0.1367
      9  C4         0.9500   10.0700   25.8350 C.2   1001  H711001     0.3676
     10  N3         0.4310    9.6260   26.9860 N.2   1001  H711001    -0.0039
     11  C2        -0.8470    9.8180   27.2610 C.3   1001  H711001     0.5255
     12  N1        -1.6490   10.4480   26.4220 N.2   1001  H711001     0.0030
     13  C6        -1.1930   10.9170   25.2500 C.2   1001  H711001     0.4517
     14  N6        -2.0210   11.5340   24.4120 N.pl3 1001  H711001     0.2193
     15  C5         0.1440   10.7340   24.9260 C.2   1001  H711001     0.3070
     16  N7         0.8870   11.0630   23.8630 N.2   1001  H711001    -0.3444
     17  C8         2.1170   10.6170   24.1040 C.2   1001  H711001     0.3087
     18  S          3.4950   10.7990   23.0330 S.3   1001  H711001    -0.0129
     19  C1'        4.3930   12.0430   23.8670 C.ar  1001  H711001     0.0437
     20  C6'        3.7310   13.1550   24.3640 C.ar  1001  H711001     0.0473
     21  C5'        4.4350   14.1620   25.0020 C.ar  1001  H711001     0.1770
     22  O3'        4.0540   15.3480   25.5500 O.3   1001  H711001    -0.4346
     23  C'2        5.2370   16.1460   25.4200 C.3   1001  H711001     0.4294
     24  O1'        6.2530   15.1930   25.7630 O.3   1001  H711001    -0.4346
     25  C4'        5.8220   14.0610   25.1460 C.ar  1001  H711001     0.1769
     26  C3'        6.4870   12.9460   24.6520 C.ar  1001  H711001     0.0465
     27  C2'        5.7840   11.9360   24.0150 C.ar  1001  H711001     0.0394
     28  I          6.8040   10.2360   23.3020 I     1001  H711001    -0.0419
@<TRIPOS>BOND
     1    18    19    1
     2    18    17    1
     3    28    27    1
     4    16    17    2
     5    16    15    2
     6    19    27   ar
     7    19    20   ar
     8    27    26   ar
     9    17     8    1
    10    20    21   ar
    11    14    13    1
    12    26    25   ar
    13    15    13    1
    14    15     9    1
    15    21    25   ar
    16    21    22    1
    17    25    24    1
    18    13    12    2
    19     8     9    1
    20     8     7    1
    21    23    22    1
    22    23    24    1
    23     6     7    1
    24     6     5    1
    25     9    10    2
    26     4     5    1
    27     4     2    1
    28    12    11    1
    29     3     2    1
    30    10    11    1
    31     2     1    1
