@<TRIPOS>MOLECULE
2fx2_FMN_A_1.pdb
 31 33 0 0 0
SMALL
GASTEIGER

@<TRIPOS>ATOM
      1  N1        26.2620   13.8160   83.2790 N.2   149  FMN149     -0.2887
      2  C2        25.2190   14.4910   83.6750 C.1   149  FMN149      0.3669
      3  O2        25.2120   15.0750   84.7020 O.2   149  FMN149     -0.1744
      4  N3        24.0790   14.6010   82.8330 N.2   149  FMN149     -0.2300
      5  C4        23.9980   13.9920   81.5750 C.1   149  FMN149      0.2513
      6  O4        22.9140   14.1760   80.9640 O.2   149  FMN149     -0.2057
      7  C4A       25.0690   13.2790   81.0620 C.2   149  FMN149      0.2706
      8  N5        25.1950   12.7160   79.9350 N.2   149  FMN149     -0.3841
      9  C5A       26.2630   12.0830   79.5410 C.2   149  FMN149      0.1452
     10  C6        26.2660   11.6440   78.1860 C.2   149  FMN149      0.0252
     11  C7        27.3950   11.0640   77.7490 C.2   149  FMN149     -0.0375
     12  C7M       27.5480   10.5970   76.2570 C.3   149  FMN149      0.0268
     13  C8        28.6040   10.8490   78.5140 C.3   149  FMN149      0.0417
     14  C8M       29.8170   10.2450   77.9250 C.3   149  FMN149      0.0091
     15  C9        28.5340   11.2330   79.8630 C.2   149  FMN149     -0.0049
     16  C9A       27.4690   11.8750   80.3780 C.2   149  FMN149      0.0795
     17  N10       27.3170   12.5210   81.6730 N.pl3 149  FMN149     -0.2545
     18  C10       26.2310   13.1850   82.0500 C.2   149  FMN149      0.2449
     19  C1'       28.6110   12.2060   82.3280 C.3   149  FMN149      0.1336
     20  C2'       28.5070   10.9150   83.3220 C.3   149  FMN149      0.2048
     21  O2'       27.3960   10.7930   84.2090 O.3   149  FMN149     -0.2185
     22  C3'       29.7950   10.9730   84.1270 C.3   149  FMN149      0.2165
     23  O3'       30.7990   10.5310   83.1970 O.3   149  FMN149     -0.2175
     24  C4'       29.8230    9.8530   85.2920 C.3   149  FMN149      0.2147
     25  O4'       31.1980    9.9360   85.8920 O.3   149  FMN149     -0.2176
     26  C5'       29.7740    8.4740   84.7700 C.3   149  FMN149      0.1892
     27  O5'       29.5270    7.6330   85.9130 O.3   149  FMN149     -0.2674
     28  P         29.5870    6.1890   86.0300 P.3   149  FMN149      0.5327
     29  O1P       28.4670    5.4710   85.1190 O.2   149  FMN149     -0.2224
     30  O2P       29.3530    5.5600   87.3850 O.3   149  FMN149     -0.1145
     31  O3P       30.8680    5.5530   85.6370 O.3   149  FMN149     -0.1145
@<TRIPOS>BOND
     1    12    11    1
     2    11    10    2
     3    11    13    1
     4    14    13    1
     5    10     9    1
     6    13    15    1
     7     9     8    2
     8     9    16    1
     9    15    16    2
    10     8     7    2
    11    16    17    1
    12     6     5    2
    13     7     5    1
    14     7    18    1
    15     5     4    2
    16    17    18    1
    17    17    19    1
    18    18     1    2
    19    19    20    1
    20     4     2    2
    21    23    22    1
    22     1     2    2
    23    20    22    1
    24    20    21    1
    25     2     3    2
    26    22    24    1
    27    26    24    1
    28    26    27    1
    29    29    28    2
    30    24    25    1
    31    31    28    1
    32    27    28    1
    33    28    30    1
