@<TRIPOS>MOLECULE
2fx3_GDP_A_1.pdb
 28 30 0 0 0
SMALL
GASTEIGER

@<TRIPOS>ATOM
      1  PB       -49.4500   23.4290    8.7360 P.3   999  GDP999      0.5373
      2  O1B      -49.7870   24.4520    7.7150 O.2   999  GDP999     -0.2221
      3  O2B      -48.1570   23.8310    9.3540 O.3   999  GDP999     -0.1143
      4  O3B      -49.3420   22.0680    8.1540 O.3   999  GDP999     -0.1143
      5  O3A      -50.5760   23.3730    9.8480 O.3   999  GDP999     -0.2261
      6  PA       -50.4170   24.1950   11.1960 P.3   999  GDP999      0.2231
      7  O1A      -49.6040   23.4390   12.1760 O.3   999  GDP999     -0.4370
      8  O2A      -49.8710   25.5570   10.9350 O.2   999  GDP999     -0.5169
      9  O5'      -51.9140   24.3460   11.6750 O.3   999  GDP999     -0.3111
     10  C5'      -52.8110   25.1000   10.8820 C.3   999  GDP999      0.1813
     11  C4'      -53.9070   25.6430   11.7380 C.3   999  GDP999      0.1799
     12  O4'      -54.4920   24.5180   12.4210 O.3   999  GDP999     -0.3326
     13  C3'      -53.4280   26.6300   12.8040 C.3   999  GDP999      0.2158
     14  O3'      -54.1440   27.8620   12.6050 O.3   999  GDP999     -0.2175
     15  C2'      -53.7380   25.9520   14.1460 C.3   999  GDP999      0.2310
     16  O2'      -54.3200   26.7730   15.1410 O.3   999  GDP999     -0.2158
     17  C1'      -54.7270   24.8580   13.7600 C.3   999  GDP999      0.2293
     18  N9       -54.5490   23.6580   14.5590 N.pl3 999  GDP999     -0.2354
     19  C8       -53.3970   22.9270   14.7140 C.3   999  GDP999      0.2246
     20  N7       -53.5240   21.9500   15.5690 N.2   999  GDP999     -0.2322
     21  C5       -54.8410   22.0460   16.0020 C.2   999  GDP999      0.2182
     22  C6       -55.5630   21.2610   16.9360 C.1   999  GDP999      0.2372
     23  O6       -55.1650   20.2900   17.5970 O.2   999  GDP999     -0.2069
     24  N1       -56.8800   21.7080   17.0720 N.2   999  GDP999     -0.2485
     25  C2       -57.4280   22.7820   16.4040 C.1   999  GDP999      0.2531
     26  N2       -58.7170   23.0680   16.6640 N.pl3 999  GDP999     -0.0226
     27  N3       -56.7580   23.5220   15.5360 N.2   999  GDP999     -0.3074
     28  C4       -55.4820   23.0990   15.3840 C.2   999  GDP999      0.2300
@<TRIPOS>BOND
     1     2     1    2
     2     4     1    1
     3     1     3    1
     4     1     5    1
     5     5     6    1
     6    10     9    1
     7    10    11    1
     8     8     6    2
     9     6     9    1
    10     6     7    1
    11    11    12    1
    12    11    13    1
    13    12    17    1
    14    14    13    1
    15    13    15    1
    16    17    15    1
    17    17    18    1
    18    15    16    1
    19    18    19    1
    20    18    28    1
    21    19    20    1
    22    28    27    2
    23    28    21    1
    24    27    25    2
    25    20    21    2
    26    21    22    1
    27    25    26    1
    28    25    24    2
    29    22    24    2
    30    22    23    2
