@<TRIPOS>MOLECULE
2fx4_C1R_A_1.pdb
 11 11 0 0 0
SMALL
GASTEIGER

@<TRIPOS>ATOM
      1  C1        44.4080   -4.2560   25.5880 C.3   246  C1R246      0.0887
      2  C2        44.6270   -3.3710   26.8610 C.3   246  C1R246      0.0189
      3  C3        43.8260   -2.0760   26.7590 C.3   246  C1R246      0.0029
      4  C4        44.2500   -1.3550   25.4740 C.3   246  C1R246      0.0189
      5  C5        44.0150   -2.2670   24.2440 C.3   246  C1R246      0.0887
      6  N6        44.8130   -3.5310   24.3320 N.3   246  C1R246     -0.2181
      7  C7        44.1520   -1.1160   27.9450 C.3   246  C1R246      0.0005
      8  C8        43.7730   -1.7260   29.3050 C.3   246  C1R246      0.0082
      9  C9        43.7570   -0.6420   30.4290 C.3   246  C1R246      0.0722
     10  O12       46.1220    0.0040   30.5520 O.2   246  C1R246     -0.2883
     11  C10       44.9660    0.3430   30.3500 C.2   246  C1R246      0.2074
@<TRIPOS>BOND
     1     5     6    1
     2     5     4    1
     3     6     1    1
     4     4     3    1
     5     1     2    1
     6     3     2    1
     7     3     7    1
     8     7     8    1
     9     8     9    1
    10    11     9    1
    11    11    10    2
