@<TRIPOS>MOLECULE
2fx6_270_A_1.pdb
 10 11 0 0 0
SMALL
GASTEIGER

@<TRIPOS>ATOM
      1  N1        44.4200   -2.3760   25.6810 N.2   246  270246     -0.3232
      2  C1        44.1210   -3.6080   25.3470 C.1   246  270246      0.2416
      3  C2        44.1430   -2.2660   26.9430 C.ar  246  270246      0.1754
      4  C3        44.2820   -1.1670   27.7600 C.ar  246  270246      0.0357
      5  C4        43.9050   -1.3490   29.0980 C.ar  246  270246      0.0028
      6  C5        43.4110   -2.5950   29.5450 C.ar  246  270246      0.0028
      7  C6        43.2860   -3.7060   28.6680 C.ar  246  270246      0.0357
      8  C7        43.6700   -3.4780   27.3690 C.ar  246  270246      0.1754
      9  N3        43.6570   -4.3030   26.3630 N.2   246  270246     -0.3232
     10  N2        44.3670   -4.0970   24.1710 N.pl3 246  270246     -0.0232
@<TRIPOS>BOND
     1    10     2    1
     2     2     1    2
     3     2     9    2
     4     1     3    2
     5     9     8    2
     6     3     8   ar
     7     3     4   ar
     8     8     7   ar
     9     4     5   ar
    10     7     6   ar
    11     5     6   ar
