@<TRIPOS>MOLECULE
2fxg_HEM_A_1.pdb
 43 50 0 0 0
SMALL
GASTEIGER

@<TRIPOS>ATOM
      1  CHA      -10.5710  -61.4110  -39.6550 C.2   1500  HEM1500     0.0000
      2  CHB       -9.9960  -65.3890  -36.9830 C.2   1500  HEM1500     0.0000
      3  CHC      -14.7480  -66.2530  -36.8280 C.2   1500  HEM1500     0.0000
      4  CHD      -15.3810  -62.2410  -39.5150 C.2   1500  HEM1500     0.0000
      5  C1A       -9.9910  -62.3690  -38.8650 C.2   1500  HEM1500     0.0000
      6  C2A       -8.6070  -62.4710  -38.4690 C.2   1500  HEM1500     0.0000
      7  C3A       -8.4210  -63.5860  -37.7590 C.2   1500  HEM1500     0.0000
      8  C4A       -9.7240  -64.2020  -37.6350 C.2   1500  HEM1500     0.0000
      9  CMA       -7.0960  -64.1010  -37.1380 C.3   1500  HEM1500     0.0000
     10  CAA       -7.5320  -61.4710  -38.8620 C.3   1500  HEM1500     0.0000
     11  CBA       -7.4540  -60.2030  -38.0380 C.3   1500  HEM1500     0.0000
     12  CGA       -6.5460  -59.2950  -38.8330 C.2   1500  HEM1500     0.0000
     13  O1A       -5.3520  -59.6790  -39.0020 O.co2 1500  HEM1500     0.0000
     14  O2A       -6.9930  -58.2440  -39.3770 O.co2 1500  HEM1500     0.0000
     15  C1B      -11.2100  -65.9660  -36.7280 C.ar  1500  HEM1500     0.0000
     16  C2B      -11.4000  -67.1710  -35.9500 C.ar  1500  HEM1500     0.0000
     17  C3B      -12.7460  -67.3980  -35.8630 C.ar  1500  HEM1500     0.0000
     18  C4B      -13.4050  -66.3810  -36.6290 C.ar  1500  HEM1500     0.0000
     19  CMB      -10.1950  -67.8950  -35.3160 C.3   1500  HEM1500     0.0000
     20  CAB      -13.5040  -68.5500  -35.1650 C.2   1500  HEM1500     0.0000
     21  CBB      -13.0150  -69.7850  -35.2850 C.2   1500  HEM1500     0.0000
     22  C1C      -15.3530  -65.1730  -37.4560 C.2   1500  HEM1500     0.0000
     23  C2C      -16.7740  -64.8660  -37.5010 C.2   1500  HEM1500     0.0000
     24  C3C      -16.9550  -63.7140  -38.2530 C.2   1500  HEM1500     0.0000
     25  C4C      -15.6400  -63.3020  -38.7090 C.2   1500  HEM1500     0.0000
     26  CMC      -17.7930  -65.7080  -36.7410 C.3   1500  HEM1500     0.0000
     27  CAC      -18.2400  -62.9140  -38.5990 C.2   1500  HEM1500     0.0000
     28  CBC      -19.3170  -63.6100  -39.0030 C.2   1500  HEM1500     0.0000
     29  C1D      -14.1530  -61.7610  -39.9300 C.ar  1500  HEM1500     0.0000
     30  C2D      -13.9650  -60.8510  -41.0370 C.ar  1500  HEM1500     0.0000
     31  C3D      -12.4720  -60.5610  -41.0710 C.ar  1500  HEM1500     0.0000
     32  C4D      -11.9010  -61.3710  -40.0170 C.ar  1500  HEM1500     0.0000
     33  CMD      -15.0620  -60.2650  -41.9620 C.3   1500  HEM1500     0.0000
     34  CAD      -11.7390  -59.6700  -42.0800 C.3   1500  HEM1500     0.0000
     35  CBD      -11.3240  -58.3500  -41.4000 C.3   1500  HEM1500     0.0000
     36  CGD      -10.8480  -57.2800  -42.3500 C.2   1500  HEM1500     0.0000
     37  O1D      -10.1740  -56.3370  -41.8560 O.co2 1500  HEM1500     0.0000
     38  O2D      -11.1610  -57.3550  -43.5610 O.co2 1500  HEM1500     0.0000
     39  NA       -10.6340  -63.4510  -38.3210 N.2   1500  HEM1500     0.0000
     40  NB       -12.4420  -65.5260  -37.1510 N.ar  1500  HEM1500     0.0000
     41  NC       -14.6910  -64.2180  -38.2060 N.2   1500  HEM1500     0.0000
     42  ND       -12.9300  -62.0580  -39.3410 N.ar  1500  HEM1500     0.0000
     43 FE        -12.6320  -64.0000  -38.4690 Fe    1500  HEM1500     0.0000
@<TRIPOS>BOND
     1    38    36   ar
     2    36    37   ar
     3    36    35    1
     4    34    35    1
     5    34    31    1
     6    33    30    1
     7    31    30   ar
     8    31    32   ar
     9    30    29   ar
    10    32     1    2
    11    32    42   ar
    12    29     4    2
    13    29    42   ar
    14     1     5    1
    15     4    25    1
    16    14    12   ar
    17    42    43    1
    18    28    27    2
    19    13    12   ar
    20     5     6    1
    21     5    39    2
    22    10     6    1
    23    10    11    1
    24    12    11    1
    25    25    24    1
    26    25    41    2
    27    27    24    1
    28     6     7    2
    29    43    39    1
    30    43    41    1
    31    43    40    1
    32    39     8    1
    33    24    23    2
    34    41    22    1
    35     7     8    1
    36     7     9    1
    37     8     2    2
    38    23    22    1
    39    23    26    1
    40    22     3    2
    41    40    15   ar
    42    40    18   ar
    43     2    15    1
    44     3    18    1
    45    15    16   ar
    46    18    17   ar
    47    16    17   ar
    48    16    19    1
    49    17    20    1
    50    21    20    2
