@<TRIPOS>MOLECULE
2fxh_HEM_A_1.pdb
 43 50 0 0 0
SMALL
GASTEIGER

@<TRIPOS>ATOM
      1  CHA      -10.3400  -61.3100  -39.3880 C.2   1500  HEM1500     0.0000
      2  CHB       -9.7040  -65.2140  -36.5380 C.2   1500  HEM1500     0.0000
      3  CHC      -14.5060  -65.9500  -36.5800 C.2   1500  HEM1500     0.0000
      4  CHD      -15.1650  -62.0420  -39.3750 C.2   1500  HEM1500     0.0000
      5  C1A       -9.7770  -62.2370  -38.5400 C.2   1500  HEM1500     0.0000
      6  C2A       -8.3970  -62.2680  -38.1280 C.2   1500  HEM1500     0.0000
      7  C3A       -8.2080  -63.3490  -37.3590 C.2   1500  HEM1500     0.0000
      8  C4A       -9.4760  -64.0280  -37.2260 C.2   1500  HEM1500     0.0000
      9  CMA       -6.9040  -63.8090  -36.6760 C.3   1500  HEM1500     0.0000
     10  CAA       -7.3490  -61.2430  -38.5650 C.3   1500  HEM1500     0.0000
     11  CBA       -7.3310  -59.9280  -37.7960 C.3   1500  HEM1500     0.0000
     12  CGA       -6.3490  -59.0430  -38.5380 C.2   1500  HEM1500     0.0000
     13  O1A       -5.1460  -59.4100  -38.6220 O.co2 1500  HEM1500     0.0000
     14  O2A       -6.7770  -57.9870  -39.0750 O.co2 1500  HEM1500     0.0000
     15  C1B      -10.9490  -65.7970  -36.3560 C.ar  1500  HEM1500     0.0000
     16  C2B      -11.2050  -67.0140  -35.6350 C.ar  1500  HEM1500     0.0000
     17  C3B      -12.5380  -67.2320  -35.6440 C.ar  1500  HEM1500     0.0000
     18  C4B      -13.1640  -66.1370  -36.3660 C.ar  1500  HEM1500     0.0000
     19  CMB      -10.0680  -67.8660  -34.9960 C.3   1500  HEM1500     0.0000
     20  CAB      -13.3000  -68.4050  -34.9930 C.2   1500  HEM1500     0.0000
     21  CBB      -12.8020  -69.6310  -35.0690 C.2   1500  HEM1500     0.0000
     22  C1C      -15.1150  -64.9140  -37.2590 C.2   1500  HEM1500     0.0000
     23  C2C      -16.5360  -64.6780  -37.3350 C.2   1500  HEM1500     0.0000
     24  C3C      -16.7350  -63.5760  -38.1080 C.2   1500  HEM1500     0.0000
     25  C4C      -15.4260  -63.0940  -38.5260 C.2   1500  HEM1500     0.0000
     26  CMC      -17.5370  -65.5820  -36.5890 C.3   1500  HEM1500     0.0000
     27  CAC      -18.0330  -62.8570  -38.5150 C.2   1500  HEM1500     0.0000
     28  CBC      -19.1290  -63.5230  -38.8460 C.2   1500  HEM1500     0.0000
     29  C1D      -13.9210  -61.5880  -39.7610 C.ar  1500  HEM1500     0.0000
     30  C2D      -13.7000  -60.6160  -40.8060 C.ar  1500  HEM1500     0.0000
     31  C3D      -12.2140  -60.3950  -40.8000 C.ar  1500  HEM1500     0.0000
     32  C4D      -11.6680  -61.2420  -39.7660 C.ar  1500  HEM1500     0.0000
     33  CMD      -14.7370  -59.9310  -41.7420 C.3   1500  HEM1500     0.0000
     34  CAD      -11.4590  -59.4590  -41.7560 C.3   1500  HEM1500     0.0000
     35  CBD      -11.1650  -58.1300  -41.0820 C.3   1500  HEM1500     0.0000
     36  CGD      -10.6430  -57.1290  -42.0660 C.2   1500  HEM1500     0.0000
     37  O1D       -9.9490  -56.1810  -41.6120 O.co2 1500  HEM1500     0.0000
     38  O2D      -10.9400  -57.2700  -43.2840 O.co2 1500  HEM1500     0.0000
     39  NA       -10.4070  -63.3410  -37.9630 N.2   1500  HEM1500     0.0000
     40  NB       -12.1600  -65.2870  -36.7920 N.ar  1500  HEM1500     0.0000
     41  NC       -14.4800  -63.9240  -37.9800 N.2   1500  HEM1500     0.0000
     42  ND       -12.7000  -61.9180  -39.1630 N.ar  1500  HEM1500     0.0000
     43 FE        -12.4200  -63.7730  -38.2140 Fe    1500  HEM1500     0.0000
@<TRIPOS>BOND
     1    38    36   ar
     2    36    37   ar
     3    36    35    1
     4    34    35    1
     5    34    31    1
     6    33    30    1
     7    30    31   ar
     8    30    29   ar
     9    31    32   ar
    10    32     1    2
    11    32    42   ar
    12    29     4    2
    13    29    42   ar
    14     1     5    1
    15     4    25    1
    16    42    43    1
    17    14    12   ar
    18    28    27    2
    19    13    12   ar
    20    10     6    1
    21    10    11    1
    22     5     6    1
    23     5    39    2
    24    12    11    1
    25    25    24    1
    26    25    41    2
    27    27    24    1
    28    43    41    1
    29    43    39    1
    30    43    40    1
    31     6     7    2
    32    24    23    2
    33    41    22    1
    34    39     8    1
    35     7     8    1
    36     7     9    1
    37    23    22    1
    38    23    26    1
    39    22     3    2
    40     8     2    2
    41    40    18   ar
    42    40    15   ar
    43     3    18    1
    44     2    15    1
    45    18    17   ar
    46    15    16   ar
    47    17    16   ar
    48    17    20    1
    49    16    19    1
    50    21    20    2
