@<TRIPOS>MOLECULE
2fxj_HEM_A_1.pdb
 43 50 0 0 0
SMALL
GASTEIGER

@<TRIPOS>ATOM
      1  CHA      -10.1980  -61.6340  -39.1610 C.2   1500  HEM1500     0.0000
      2  CHB       -9.6450  -65.4680  -36.2590 C.2   1500  HEM1500     0.0000
      3  CHC      -14.4220  -66.2900  -36.2980 C.2   1500  HEM1500     0.0000
      4  CHD      -15.0350  -62.3420  -39.0900 C.2   1500  HEM1500     0.0000
      5  C1A       -9.6380  -62.5160  -38.2800 C.2   1500  HEM1500     0.0000
      6  C2A       -8.2700  -62.5400  -37.8080 C.2   1500  HEM1500     0.0000
      7  C3A       -8.1200  -63.6510  -37.0430 C.2   1500  HEM1500     0.0000
      8  C4A       -9.3900  -64.3250  -36.9700 C.2   1500  HEM1500     0.0000
      9  CMA       -6.8670  -64.1210  -36.2610 C.3   1500  HEM1500     0.0000
     10  CAA       -7.1630  -61.5390  -38.1660 C.3   1500  HEM1500     0.0000
     11  CBA       -7.2140  -60.1590  -37.5020 C.3   1500  HEM1500     0.0000
     12  CGA       -6.2050  -59.2880  -38.2280 C.2   1500  HEM1500     0.0000
     13  O1A       -4.9830  -59.6480  -38.2120 O.co2 1500  HEM1500     0.0000
     14  O2A       -6.6410  -58.2700  -38.8420 O.co2 1500  HEM1500     0.0000
     15  C1B      -10.8890  -66.0330  -36.0770 C.ar  1500  HEM1500     0.0000
     16  C2B      -11.1500  -67.2620  -35.3530 C.ar  1500  HEM1500     0.0000
     17  C3B      -12.4730  -67.4820  -35.3450 C.ar  1500  HEM1500     0.0000
     18  C4B      -13.0750  -66.4370  -36.1060 C.ar  1500  HEM1500     0.0000
     19  CMB      -10.0380  -68.0890  -34.6700 C.3   1500  HEM1500     0.0000
     20  CAB      -13.2390  -68.6430  -34.7120 C.2   1500  HEM1500     0.0000
     21  CBB      -12.7240  -69.8900  -34.7420 C.2   1500  HEM1500     0.0000
     22  C1C      -15.0110  -65.2440  -36.9650 C.2   1500  HEM1500     0.0000
     23  C2C      -16.4340  -64.9450  -36.9960 C.2   1500  HEM1500     0.0000
     24  C3C      -16.6090  -63.8700  -37.8090 C.2   1500  HEM1500     0.0000
     25  C4C      -15.2920  -63.4150  -38.2470 C.2   1500  HEM1500     0.0000
     26  CMC      -17.4890  -65.7740  -36.2670 C.3   1500  HEM1500     0.0000
     27  CAC      -17.8860  -63.1220  -38.1720 C.2   1500  HEM1500     0.0000
     28  CBC      -18.9980  -63.7310  -38.5440 C.2   1500  HEM1500     0.0000
     29  C1D      -13.8050  -61.8840  -39.5000 C.ar  1500  HEM1500     0.0000
     30  C2D      -13.5850  -60.9220  -40.5500 C.ar  1500  HEM1500     0.0000
     31  C3D      -12.1070  -60.6890  -40.5560 C.ar  1500  HEM1500     0.0000
     32  C4D      -11.5320  -61.5600  -39.5290 C.ar  1500  HEM1500     0.0000
     33  CMD      -14.6020  -60.2370  -41.4810 C.3   1500  HEM1500     0.0000
     34  CAD      -11.3760  -59.7780  -41.5390 C.3   1500  HEM1500     0.0000
     35  CBD      -10.9570  -58.5020  -40.8360 C.3   1500  HEM1500     0.0000
     36  CGD      -10.4590  -57.4820  -41.8240 C.2   1500  HEM1500     0.0000
     37  O1D       -9.8170  -56.5190  -41.3540 O.co2 1500  HEM1500     0.0000
     38  O2D      -10.7300  -57.6340  -43.0440 O.co2 1500  HEM1500     0.0000
     39  NA       -10.2990  -63.6280  -37.7290 N.2   1500  HEM1500     0.0000
     40  NB       -12.0710  -65.5530  -36.5500 N.ar  1500  HEM1500     0.0000
     41  NC       -14.3660  -64.2900  -37.7250 N.2   1500  HEM1500     0.0000
     42  ND       -12.5700  -62.2340  -38.9170 N.ar  1500  HEM1500     0.0000
     43 FE        -12.3170  -63.9840  -37.8770 Fe    1500  HEM1500     0.0000
@<TRIPOS>BOND
     1    38    36   ar
     2    36    37   ar
     3    36    35    1
     4    34    35    1
     5    34    31    1
     6    33    30    1
     7    31    30   ar
     8    31    32   ar
     9    30    29   ar
    10    32     1    2
    11    32    42   ar
    12    29     4    2
    13    29    42   ar
    14     1     5    1
    15     4    25    1
    16    42    43    1
    17    14    12   ar
    18    28    27    2
    19     5     6    1
    20     5    39    2
    21    25    24    1
    22    25    41    2
    23    12    13   ar
    24    12    11    1
    25    27    24    1
    26    10     6    1
    27    10    11    1
    28    43    39    1
    29    43    41    1
    30    43    40    1
    31    24    23    2
    32     6     7    2
    33    39     8    1
    34    41    22    1
    35     7     8    1
    36     7     9    1
    37    23    22    1
    38    23    26    1
    39     8     2    2
    40    22     3    2
    41    40    18   ar
    42    40    15   ar
    43     3    18    1
    44     2    15    1
    45    18    17   ar
    46    15    16   ar
    47    16    17   ar
    48    16    19    1
    49    17    20    1
    50    21    20    2
