@<TRIPOS>MOLECULE
2fxl_2AL_A_1.pdb
 11 11 0 0 0
SMALL
GASTEIGER

@<TRIPOS>ATOM
      1  C4        31.5960   26.4480   39.1270 C.2   302  2AL302      0.3182
      2  C5        32.7330   25.9380   38.3380 C.1   302  2AL302      0.2650
      3  O5        33.0860   26.0010   37.1810 O.2   302  2AL302     -0.2044
      4  N7        33.6010   25.2270   39.2150 N.2   302  2AL302     -0.2288
      5  C8        33.0720   25.4220   40.4940 C.1   302  2AL302      0.3676
      6  O8        33.6130   25.0150   41.4890 O.2   302  2AL302     -0.1744
      7  N9        31.8710   26.1320   40.4780 N.2   302  2AL302     -0.2772
      8  N3        30.2510   26.3030   38.6650 N.am  302  2AL302     -0.1175
      9  C2        29.7970   27.6050   38.2310 C.2   302  2AL302      0.3659
     10  N1        30.6960   28.5790   38.3200 N.am  302  2AL302     -0.0675
     11  O2        28.6530   27.7110   37.8400 O.2   302  2AL302     -0.2470
@<TRIPOS>BOND
     1     3     2    2
     2    11     9    2
     3     9    10   am
     4     9     8   am
     5     2     1    1
     6     2     4    2
     7     8     1    1
     8     1     7    2
     9     4     5    2
    10     7     5    2
    11     5     6    2
