@<TRIPOS>MOLECULE
2fxr_C3A_A_1.pdb
 41 45 0 0 0
SMALL
GASTEIGER

@<TRIPOS>ATOM
      1  C2         1.8100   18.3770   71.4840 C.2   999  C3A999      0.0208
      2  C5        -0.3230   21.1540   70.4240 C.2   999  C3A999      0.4215
      3  C1         3.0780   18.5930   71.1310 C.2   999  C3A999     -0.0011
      4  C3         0.7880   19.4620   71.6510 C.3   999  C3A999      0.2366
      5  O4         0.6050   20.1570   70.3700 O.3   999  C3A999     -0.4285
      6  O6        -0.9670   21.4720   71.4340 O.2   999  C3A999     -0.2246
      7  C8        -1.4500   22.8230   68.9160 C.3   999  C3A999      0.1445
      8  C9        -0.8320   23.9540   68.0420 C.3   999  C3A999      0.0256
      9  N7        -0.4670   21.7330   69.1890 N.am  999  C3A999     -0.1667
     10  C10        0.3650   24.6560   68.7080 C.3   999  C3A999      0.0034
     11  C11        0.9390   25.7870   67.8480 C.3   999  C3A999      0.0189
     12  C12        1.5810   25.3580   66.5290 C.3   999  C3A999      0.0202
     13  C13        2.5060   26.5180   66.1730 C.3   999  C3A999      0.0887
     14  N14        2.5690   27.3610   67.4060 N.3   999  C3A999     -0.2181
     15  C15        2.0770   26.5030   68.5210 C.3   999  C3A999      0.0887
     16  C16       -2.7390   22.1420   68.2560 C.3   999  C3A999      0.2700
     17  O17       -3.6200   23.0780   67.8580 O.3   999  C3A999     -0.2037
     18  C18       -3.4040   21.2530   69.2830 C.1   999  C3A999      0.1355
     19  N19       -4.4300   21.6110   70.0820 N.2   999  C3A999     -0.0092
     20  O20       -4.6540   20.4510   70.8580 O.2   999  C3A999     -0.3154
     21  C21       -3.7340   19.5200   70.4390 C.2   999  C3A999      0.2978
     22  C22       -3.7360   18.1920   71.1030 C.3   999  C3A999      0.1288
     23  C23       -5.0430   17.4360   70.9940 C.ar  999  C3A999     -0.0117
     24  C24       -6.1540   17.7660   71.8320 C.ar  999  C3A999     -0.0036
     25  C25       -7.3720   17.0500   71.7300 C.ar  999  C3A999      0.0043
     26  C26       -7.5070   15.9820   70.7870 C.ar  999  C3A999      0.0550
     27  C27       -6.4060   15.6450   69.9410 C.ar  999  C3A999      0.0043
     28  C28       -5.1880   16.3680   70.0470 C.ar  999  C3A999     -0.0036
     29  C29       -8.7910   15.2530   70.7270 C.2   999  C3A999      0.2647
     30  O30       -9.6270   15.4580   71.5750 O.2   999  C3A999     -0.2684
     31  N31       -8.9480   14.3600   69.6820 N.am  999  C3A999     -0.2027
     32  C32      -10.1290   13.5440   69.4380 C.3   999  C3A999      0.1043
     33  C33      -10.1320   12.8710   68.0460 C.3   999  C3A999      0.0480
     34  C34      -11.0750   11.7360   68.2690 C.ar  999  C3A999     -0.0243
     35  C35      -11.7960   10.9820   67.3070 C.ar  999  C3A999     -0.0045
     36  C36      -12.6400    9.9350   67.7680 C.ar  999  C3A999     -0.0003
     37  C37      -12.7540    9.6580   69.1690 C.ar  999  C3A999     -0.0003
     38  C38      -12.0230   10.4260   70.1250 C.ar  999  C3A999     -0.0045
     39  C39      -11.1880   11.4610   69.6590 C.ar  999  C3A999     -0.0243
     40  C40      -10.3290   12.3960   70.4630 C.3   999  C3A999      0.0480
     41  N41       -2.9480   19.9570   69.4800 N.2   999  C3A999     -0.3142
@<TRIPOS>BOND
     1    13    12    1
     2    13    14    1
     3    12    11    1
     4    35    36   ar
     5    35    34   ar
     6    14    15    1
     7    36    37   ar
     8    11    15    1
     9    11    10    1
    10    17    16    1
    11     8    10    1
    12     8     7    1
    13    33    34    1
    14    33    32    1
    15    16     7    1
    16    16    18    1
    17    34    39   ar
    18     7     9    1
    19    37    38   ar
    20     9     2   am
    21    18    41    2
    22    18    19    2
    23    32    31    1
    24    32    40    1
    25    41    21    2
    26    39    38   ar
    27    39    40    1
    28    31    29   am
    29    27    28   ar
    30    27    26   ar
    31    28    23   ar
    32    19    20    1
    33     5     2    1
    34     5     4    1
    35     2     6    2
    36    21    20    1
    37    21    22    1
    38    29    26    1
    39    29    30    2
    40    26    25   ar
    41    23    22    1
    42    23    24   ar
    43     3     1    2
    44     1     4    1
    45    25    24   ar
