@<TRIPOS>MOLECULE
2fxs_RDA_A_1.pdb
 28 29 0 0 0
SMALL
GASTEIGER

@<TRIPOS>ATOM
      1  C7        19.4390   35.7150    7.9830 C.3   1001  RDA1001     0.2560
      2  O4        19.5700   34.8980    6.8150 O.3   1001  RDA1001    -0.4413
      3  C6        18.3630   34.6030    6.2580 C.2   1001  RDA1001     0.3442
      4  O3        17.3240   35.0640    6.7280 O.2   1001  RDA1001    -0.2448
      5  C5        18.3240   33.7300    5.0000 C.ar  1001  RDA1001     0.1115
      6  C4        17.3560   32.7330    4.9060 C.ar  1001  RDA1001     0.2048
      7  O2        16.4430   32.5690    5.9000 O.3   1001  RDA1001    -0.2862
      8  C3        17.3310   31.8790    3.8090 C.ar  1001  RDA1001     0.0851
      9  C2        18.2870   32.0340    2.8100 C.ar  1001  RDA1001     0.2090
     10  O1        18.2990   31.1870    1.7460 O.3   1001  RDA1001    -0.2856
     11  C1        19.2470   33.0350    2.9110 C.ar  1001  RDA1001     0.0929
     12 CL         20.3870   33.2070    1.6210 Cl    1001  RDA1001    -0.0792
     13  C8        19.2860   33.9000    4.0050 C.ar  1001  RDA1001     0.0014
     14  C9        20.3420   35.0080    4.0990 C.3   1001  RDA1001     0.0373
     15  C10       21.6830   34.4570    4.5910 C.3   1001  RDA1001     0.0919
     16  C11       22.7690   35.5340    4.6240 C.2   1001  RDA1001     0.2460
     17  O5        23.2910   35.9330    3.5840 O.2   1001  RDA1001    -0.2730
     18  N1        23.0650   35.9930    5.8390 N.am  1001  RDA1001    -0.1758
     19  C12       23.9910   36.9160    6.0970 C.2   1001  RDA1001     0.1155
     20  C18       24.8080   37.4450    5.1010 C.2   1001  RDA1001     0.0650
     21  C17       25.8140   38.3530    5.4210 C.2   1001  RDA1001     0.2308
     22  O8        26.5400   38.8020    4.5330 O.2   1001  RDA1001    -0.2833
     23  C15       26.0100   38.7420    6.7430 C.2   1001  RDA1001     0.1807
     24  O7        27.0150   39.5990    7.0650 O.2   1001  RDA1001    -0.4681
     25  C16       26.5750   40.9610    7.0320 C.3   1001  RDA1001     0.2526
     26  C14       25.1900   38.2190    7.7410 C.2   1001  RDA1001     0.0836
     27  C13       24.1860   37.3120    7.4180 C.2   1001  RDA1001     0.2141
     28  O6        23.4610   36.8620    8.3050 O.2   1001  RDA1001    -0.2851
@<TRIPOS>BOND
     1    12    11    1
     2    10     9    1
     3     9    11   ar
     4     9     8   ar
     5    11    13   ar
     6    17    16    2
     7     8     6   ar
     8    13    14    1
     9    13     5   ar
    10    14    15    1
    11    22    21    2
    12    15    16    1
    13    16    18   am
    14     6     5   ar
    15     6     7    1
    16     5     3    1
    17    20    21    1
    18    20    19    2
    19    21    23    1
    20    18    19    1
    21    19    27    1
    22     3     4    2
    23     3     2    1
    24    23    24    1
    25    23    26    2
    26     2     1    1
    27    25    24    1
    28    27    26    1
    29    27    28    2
