@<TRIPOS>MOLECULE
2fxu_ATP_A_1.pdb
 31 33 0 0 0
SMALL
GASTEIGER

@<TRIPOS>ATOM
      1  PG        20.8330    0.6630   26.7890 P.3   401  ATP401      0.5373
      2  O1G       21.9020    0.7600   25.6980 O.2   401  ATP401     -0.2221
      3  O2G       21.2850    0.9250   28.2100 O.3   401  ATP401     -0.1143
      4  O3G       19.9820   -0.5810   26.7010 O.3   401  ATP401     -0.1143
      5  PB        18.2800    2.2090   26.5560 P.3   401  ATP401      0.2277
      6  O1B       17.6740    1.1250   27.3430 O.3   401  ATP401     -0.4368
      7  O2B       18.0910    3.6090   26.9680 O.2   401  ATP401     -0.5168
      8  O3B       19.8710    1.9670   26.4230 O.3   401  ATP401     -0.2258
      9  PA        16.4670    1.7330   24.3610 P.3   401  ATP401      0.2189
     10  O1A       16.2970    0.2760   24.1290 O.2   401  ATP401     -0.5170
     11  O2A       15.4320    2.4830   25.1590 O.3   401  ATP401     -0.4371
     12  O3A       17.8760    2.0110   24.9860 O.3   401  ATP401     -0.2700
     13  O5'       16.6550    2.4240   22.9060 O.3   401  ATP401     -0.3112
     14  C5'       16.9530    3.8440   22.7620 C.3   401  ATP401      0.1813
     15  C4'       17.8040    3.9170   21.5060 C.3   401  ATP401      0.1821
     16  O4'       17.0580    3.3760   20.4230 O.3   401  ATP401     -0.3135
     17  C3'       18.2080    5.3150   21.1050 C.3   401  ATP401      0.2184
     18  O3'       19.5600    5.3180   20.6170 O.3   401  ATP401     -0.2174
     19  C2'       17.2360    5.6690   20.0290 C.3   401  ATP401      0.2570
     20  O2'       17.6850    6.7010   19.1560 O.3   401  ATP401     -0.2130
     21  C1'       17.1250    4.3140   19.3540 C.3   401  ATP401      0.3186
     22  N9        15.9290    4.1740   18.5170 N.pl3 401  ATP401     -0.1439
     23  C8        14.6550    4.2850   18.9290 C.3   401  ATP401      0.3377
     24  N7        13.7960    4.0960   17.9180 N.2   401  ATP401     -0.2095
     25  C5        14.5580    3.8500   16.8150 C.2   401  ATP401      0.2526
     26  C6        14.2820    3.5770   15.4430 C.2   401  ATP401      0.4393
     27  N6        13.0210    3.5480   15.0170 N.pl3 401  ATP401      0.2180
     28  N1        15.3010    3.4080   14.6250 N.2   401  ATP401      0.0021
     29  C2        16.5800    3.4370   15.0940 C.3   401  ATP401      0.5254
     30  N3        16.9460    3.6860   16.3660 N.2   401  ATP401     -0.0055
     31  C4        15.9410    3.8860   17.2330 C.2   401  ATP401      0.3518
@<TRIPOS>BOND
     1    28    29    1
     2    28    26    2
     3    27    26    1
     4    29    30    1
     5    26    25    1
     6    30    31    2
     7    25    31    1
     8    25    24    2
     9    31    22    1
    10    24    23    1
    11    22    23    1
    12    22    21    1
    13    20    19    1
    14    21    19    1
    15    21    16    1
    16    19    17    1
    17    16    15    1
    18    18    17    1
    19    17    15    1
    20    15    14    1
    21    14    13    1
    22    13     9    1
    23    10     9    2
    24     9    12    1
    25     9    11    1
    26    12     5    1
    27     2     1    2
    28     8     5    1
    29     8     1    1
    30     5     7    2
    31     5     6    1
    32     4     1    1
    33     1     3    1
