@<TRIPOS>MOLECULE
2fxu_BID_A_1.pdb
 50 52 0 0 0
SMALL
GASTEIGER

@<TRIPOS>ATOM
      1  O5        14.2060  -12.9030   37.1060 O.2   402  BID402     -0.2733
      2  C18       14.1450  -13.6130   36.1170 C.2   402  BID402      0.2435
      3  C16       14.9100  -13.2100   34.8880 C.3   402  BID402      0.1103
      4  C17       14.2890  -11.9090   34.3280 C.3   402  BID402      0.0123
      5  C15       16.4200  -13.1110   35.1420 C.3   402  BID402      0.1821
      6  O4        16.7020  -11.9690   35.9460 O.3   402  BID402     -0.2207
      7  C14       16.9360  -14.4070   35.7850 C.3   402  BID402      0.1484
      8  N1        18.3900  -14.3980   35.9460 N.am  402  BID402     -0.2026
      9  C13       19.2530  -14.8950   35.0720 C.2   402  BID402      0.2439
     10  O3        18.8500  -15.3550   34.0040 O.2   402  BID402     -0.2733
     11  C12       20.7270  -14.8180   35.3960 C.3   402  BID402      0.1162
     12  C11       21.3760  -16.1950   35.3760 C.3   402  BID402      0.1242
     13  C9        22.8710  -16.1350   35.6890 C.3   402  BID402      0.0278
     14  C10       23.6060  -15.1710   34.7820 C.3   402  BID402      0.0025
     15  C8        23.1220  -15.8010   37.1530 C.3   402  BID402      0.0049
     16  C7        22.4060  -16.7970   38.0370 C.3   402  BID402      0.0301
     17  O2        20.7060  -17.0560   36.3090 O.3   402  BID402     -0.3578
     18  C6        20.9190  -16.8690   37.7130 C.3   402  BID402      0.1228
     19  C5        20.3280  -18.0630   38.4590 C.3   402  BID402      0.0986
     20  C4        18.8430  -17.9100   38.7180 C.2   402  BID402      0.1753
     21  O1        18.3510  -16.7980   38.7610 O.2   402  BID402     -0.2913
     22  C3        17.9560  -19.0770   38.9350 C.2   402  BID402      0.0330
     23  C2        18.3940  -20.3380   38.9170 C.2   402  BID402     -0.0229
     24  C1        17.4290  -21.4790   39.1430 C.3   402  BID402      0.0308
     25  N2        13.4460  -14.7330   36.0670 N.am  402  BID402     -0.2054
     26  C19       12.6480  -15.2540   37.1700 C.3   402  BID402      0.1152
     27  C20       11.5820  -16.1680   36.5890 C.3   402  BID402      0.0259
     28  C21       10.5960  -16.6390   37.6570 C.3   402  BID402      0.0315
     29  C22        9.5280  -17.5070   37.0230 C.3   402  BID402      0.1176
     30  C23        8.4390  -17.9690   37.9930 C.3   402  BID402      0.0275
     31  C24        7.6670  -16.7860   38.5830 C.3   402  BID402      0.0025
     32  C25        7.5490  -18.9770   37.2710 C.3   402  BID402      0.0074
     33  C26        8.3760  -20.1140   36.6740 C.3   402  BID402      0.0563
     34  C27        9.4710  -19.5690   35.7580 C.3   402  BID402      0.1867
     35  O6        10.2180  -18.6530   36.5480 O.3   402  BID402     -0.3368
     36  C28       10.4530  -20.6510   35.3200 C.3   402  BID402      0.0563
     37  C29       11.4970  -20.1190   34.3430 C.3   402  BID402      0.0075
     38  C30       10.7760  -19.4760   33.1660 C.3   402  BID402      0.0298
     39  C31        9.8600  -18.3890   33.6990 C.3   402  BID402      0.1176
     40  O7         8.8850  -18.9710   34.5970 O.3   402  BID402     -0.3368
     41  C32        9.1100  -17.7360   32.5690 C.3   402  BID402      0.0300
     42  C33        8.3550  -16.4850   33.0120 C.3   402  BID402      0.0068
     43  C34        7.7170  -15.7120   31.8470 C.3   402  BID402      0.0216
     44  C35        7.1380  -14.3600   32.2750 C.3   402  BID402      0.0047
     45  C36        6.6240  -16.5560   31.2220 C.2   402  BID402     -0.0325
     46  C37        6.6480  -17.0360   29.9610 C.2   402  BID402     -0.0184
     47  C38        7.7600  -16.7640   28.9730 C.3   402  BID402      0.0286
     48  C39        5.5000  -17.8720   29.4540 C.3   402  BID402      0.1701
     49  C40        5.9740  -19.3010   29.2200 C.3   402  BID402      0.0401
     50  O8         5.0180  -17.3110   28.2270 O.3   402  BID402     -0.2187
@<TRIPOS>BOND
     1    50    48    1
     2    47    46    1
     3    49    48    1
     4    48    46    1
     5    46    45    2
     6    45    43    1
     7    43    44    1
     8    43    42    1
     9    41    42    1
    10    41    39    1
    11    38    39    1
    12    38    37    1
    13    39    40    1
    14    10     9    2
    15     4     3    1
    16    37    36    1
    17    40    34    1
    18    14    13    1
    19     3     5    1
    20     3     2    1
    21     9    11    1
    22     9     8   am
    23     5     7    1
    24     5     6    1
    25    36    34    1
    26    12    11    1
    27    12    13    1
    28    12    17    1
    29    13    15    1
    30    34    35    1
    31    34    33    1
    32     7     8    1
    33    25     2   am
    34    25    26    1
    35     2     1    2
    36    17    18    1
    37    35    29    1
    38    27    26    1
    39    27    28    1
    40    33    32    1
    41    29    28    1
    42    29    30    1
    43    15    16    1
    44    32    30    1
    45    18    16    1
    46    18    19    1
    47    30    31    1
    48    19    20    1
    49    20    21    2
    50    20    22    1
    51    23    22    2
    52    23    24    1
