@<TRIPOS>MOLECULE
2fxv_5GP_A_1.pdb
 24 26 0 0 0
SMALL
GASTEIGER

@<TRIPOS>ATOM
      1  P         12.6590   14.4740    3.5030 P.3   200  5GP200      0.5327
      2  O1P       12.2320   13.9340    4.9310 O.3   200  5GP200     -0.1145
      3  O2P       13.1780   13.3790    2.6650 O.2   200  5GP200     -0.2224
      4  O3P       11.4670   15.1680    3.0130 O.3   200  5GP200     -0.1145
      5  O5'       13.7590   15.5460    3.7430 O.3   200  5GP200     -0.2675
      6  C5'       13.5470   16.7260    4.4830 C.3   200  5GP200      0.1859
      7  C4'       14.5560   17.0370    5.5450 C.3   200  5GP200      0.1801
      8  O4'       15.7680   17.2010    4.7830 O.3   200  5GP200     -0.3326
      9  C3'       14.3770   18.3820    6.3030 C.3   200  5GP200      0.2158
     10  O3'       14.3820   18.0940    7.7590 O.3   200  5GP200     -0.2175
     11  C2'       15.5370   19.2450    5.8950 C.3   200  5GP200      0.2310
     12  O2'       16.4000   19.6660    6.9470 O.3   200  5GP200     -0.2158
     13  C1'       16.3470   18.5020    4.8670 C.3   200  5GP200      0.2293
     14  N9        16.2410   18.9010    3.4150 N.pl3 200  5GP200     -0.2354
     15  C8        15.7090   18.3920    2.2660 C.3   200  5GP200      0.2246
     16  N7        15.8760   19.1140    1.1880 N.2   200  5GP200     -0.2322
     17  C5        16.5800   20.2140    1.5990 C.2   200  5GP200      0.2182
     18  C6        17.0800   21.3340    0.9930 C.1   200  5GP200      0.2372
     19  O6        16.9360   21.5310   -0.2320 O.2   200  5GP200     -0.2069
     20  N1        17.7950   22.3300    1.7430 N.2   200  5GP200     -0.2485
     21  C2        18.0170   22.1990    3.1420 C.1   200  5GP200      0.2531
     22  N2        18.6750   23.1200    3.8290 N.pl3 200  5GP200     -0.0226
     23  N3        17.5220   21.0620    3.7920 N.2   200  5GP200     -0.3074
     24  C4        16.8060   20.0780    3.0000 C.2   200  5GP200      0.2300
@<TRIPOS>BOND
     1    19    18    2
     2    18    17    1
     3    18    20    2
     4    16    17    2
     5    16    15    1
     6    17    24    1
     7    20    21    2
     8    15    14    1
     9     3     1    2
    10    24    14    1
    11    24    23    2
    12     4     1    1
    13    21    23    2
    14    21    22    1
    15    14    13    1
    16     1     5    1
    17     1     2    1
    18     5     6    1
    19     6     7    1
    20     8    13    1
    21     8     7    1
    22    13    11    1
    23     7     9    1
    24    11     9    1
    25    11    12    1
    26     9    10    1
