@<TRIPOS>MOLECULE
2fy4_COA_A_1.pdb
 48 50 0 0 0
SMALL
GASTEIGER

@<TRIPOS>ATOM
      1  N1A       29.0480   -5.8470   77.8070 N.2   2000  COA2000     0.0021
      2  C2A       29.6740   -5.7120   76.6520 C.3   2000  COA2000     0.5254
      3  N3A       29.0210   -5.7750   75.5020 N.2   2000  COA2000    -0.0055
      4  C4A       27.6940   -5.9810   75.4700 C.2   2000  COA2000     0.3518
      5  C5A       27.0040   -6.1370   76.6650 C.2   2000  COA2000     0.2526
      6  C6A       27.7200   -6.0590   77.8570 C.2   2000  COA2000     0.4393
      7  N6A       27.0890   -6.1660   79.0180 N.pl3 2000  COA2000     0.2180
      8  N7A       25.7220   -6.3090   76.3730 N.2   2000  COA2000    -0.2095
      9  C8A       25.6030   -6.2540   75.0470 C.3   2000  COA2000     0.3377
     10  N9A       26.7980   -6.0560   74.4930 N.pl3 2000  COA2000    -0.1439
     11  C1B       27.0740   -5.9660   73.0390 C.3   2000  COA2000     0.3185
     12  C2B       26.5530   -7.1810   72.2710 C.3   2000  COA2000     0.2543
     13  O2B       27.4860   -8.2570   72.3820 O.3   2000  COA2000    -0.2131
     14  C3B       26.5420   -6.6000   70.8600 C.3   2000  COA2000     0.1928
     15  O3B       27.8660   -6.4380   70.3520 O.3   2000  COA2000    -0.2673
     16  P3B       28.0600   -6.7300   68.7840 P.3   2000  COA2000     0.5327
     17  O7A       27.0730   -7.7320   68.3170 O.3   2000  COA2000    -0.1145
     18  O8A       27.9440   -5.3280   68.0020 O.2   2000  COA2000    -0.2224
     19  O9A       29.5910   -7.2170   68.6700 O.3   2000  COA2000    -0.1145
     20  C4B       25.9470   -5.2230   71.1230 C.3   2000  COA2000     0.1795
     21  O4B       26.5110   -4.8120   72.3860 O.3   2000  COA2000    -0.3136
     22  C5B       24.4400   -5.3730   71.3240 C.3   2000  COA2000     0.1812
     23  O5B       24.0800   -4.1400   71.9310 O.3   2000  COA2000    -0.3112
     24  P1A       22.7580   -3.9690   72.8210 P.3   2000  COA2000     0.2189
     25  O1A       22.5490   -5.0570   73.8060 O.3   2000  COA2000    -0.4371
     26  O2A       22.8260   -2.5580   73.2640 O.2   2000  COA2000    -0.5170
     27  O3A       21.6960   -3.9090   71.6140 O.3   2000  COA2000    -0.2703
     28  P2A       20.7370   -5.0320   70.9800 P.3   2000  COA2000     0.2188
     29  O4A       20.7950   -6.3380   71.6720 O.3   2000  COA2000    -0.4371
     30  O5A       21.0970   -4.9240   69.5480 O.2   2000  COA2000    -0.5170
     31  O6A       19.3280   -4.2750   71.1760 O.3   2000  COA2000    -0.3138
     32  CBP       16.9880   -4.4520   71.5340 C.3   2000  COA2000     0.0645
     33  CCP       18.3670   -4.6090   72.1770 C.3   2000  COA2000     0.1519
     34  CDP       15.9050   -4.7770   72.5650 C.3   2000  COA2000     0.0056
     35  CEP       16.8130   -3.0090   71.0520 C.3   2000  COA2000     0.0056
     36  CAP       16.9330   -5.4140   70.3420 C.3   2000  COA2000     0.2312
     37  OAP       16.8920   -6.7580   70.8270 O.3   2000  COA2000    -0.2131
     38  C9P       15.7020   -5.2050   69.4590 C.2   2000  COA2000     0.2719
     39  O9P       14.6280   -5.7460   69.7130 O.2   2000  COA2000    -0.2706
     40  N8P       15.9090   -4.4210   68.4040 N.am  2000  COA2000    -0.2028
     41  C7P       14.8320   -4.1210   67.4510 C.3   2000  COA2000     0.1248
     42  C6P       14.4380   -2.6440   67.5030 C.3   2000  COA2000     0.1102
     43  C5P       13.2540   -2.4270   66.5610 C.2   2000  COA2000     0.2432
     44  O5P       12.3620   -3.2650   66.4830 O.2   2000  COA2000    -0.2733
     45  N4P       13.2860   -1.3030   65.8450 N.am  2000  COA2000    -0.2044
     46  C3P       12.2060   -0.9730   64.9070 C.3   2000  COA2000     0.1276
     47  C2P       10.9560   -0.6340   65.7210 C.3   2000  COA2000     0.0920
     48  S1P        9.5110   -0.3910   64.6290 S.3   2000  COA2000    -0.0802
@<TRIPOS>BOND
     1    48    47    1
     2    46    47    1
     3    46    45    1
     4    45    43   am
     5    44    43    2
     6    43    42    1
     7    41    42    1
     8    41    40    1
     9    18    16    2
    10    17    16    1
    11    40    38   am
    12    19    16    1
    13    16    15    1
    14    38    39    2
    15    38    36    1
    16    30    28    2
    17    36    37    1
    18    36    32    1
    19    15    14    1
    20    14    20    1
    21    14    12    1
    22    28    31    1
    23    28    27    1
    24    28    29    1
    25    35    32    1
    26    20    22    1
    27    20    21    1
    28    31    33    1
    29    22    23    1
    30    32    33    1
    31    32    34    1
    32    27    24    1
    33    23    24    1
    34    12    13    1
    35    12    11    1
    36    21    11    1
    37    24    26    2
    38    24    25    1
    39    11    10    1
    40    10     9    1
    41    10     4    1
    42     9     8    1
    43     4     3    2
    44     4     5    1
    45     3     2    1
    46     8     5    2
    47     2     1    1
    48     5     6    1
    49     1     6    2
    50     6     7    1
