@<TRIPOS>MOLECULE
2fyb_UDP_A_1.pdb
 25 26 0 0 0
SMALL
GASTEIGER

@<TRIPOS>ATOM
      1  N1        27.4590   19.6190    1.6970 N.am  403  UDP403     -0.1766
      2  C2        27.6050   20.2770    0.4630 C.1   403  UDP403      0.2845
      3  N3        28.9020   20.4370    0.0170 N.2   403  UDP403     -0.2452
      4  C4        30.0680   20.0110    0.6570 C.1   403  UDP403      0.2182
      5  C5        29.8670   19.3330    1.9120 C.2   403  UDP403      0.1242
      6  C6        28.6150   19.1570    2.3900 C.2   403  UDP403      0.0929
      7  O2        26.6410   20.6590   -0.1250 O.2   403  UDP403     -0.1918
      8  O4        31.1370   20.2310    0.1240 O.2   403  UDP403     -0.2085
      9  C1'       26.0390   19.4520    2.2100 C.3   403  UDP403      0.2401
     10  C2'       25.1270   18.5400    1.4560 C.3   403  UDP403      0.2319
     11  O2'       23.7480   18.9130    1.6030 O.3   403  UDP403     -0.2157
     12  C3'       25.4620   17.2390    2.0950 C.3   403  UDP403      0.2158
     13  C4'       25.4940   17.5870    3.5890 C.3   403  UDP403      0.1799
     14  O4'       26.1980   18.8750    3.5040 O.3   403  UDP403     -0.3320
     15  O3'       24.5260   16.2140    1.7590 O.3   403  UDP403     -0.2175
     16  C5'       26.2700   16.5610    4.3540 C.3   403  UDP403      0.1813
     17  O5'       27.6490   16.4780    3.9710 O.3   403  UDP403     -0.3111
     18  PA        28.3790   15.1000    3.6120 P.3   403  UDP403      0.2231
     19  O1A       27.7250   14.5270    2.4150 O.2   403  UDP403     -0.5169
     20  O2A       29.8520   15.2430    3.5070 O.3   403  UDP403     -0.4370
     21  O3A       28.0060   14.2760    4.9780 O.3   403  UDP403     -0.2261
     22  PB        28.6280   14.3380    6.4500 P.3   403  UDP403      0.5373
     23  O1B       27.2930   13.9630    7.2840 O.3   403  UDP403     -0.1143
     24  O2B       29.6120   13.1750    6.4970 O.2   403  UDP403     -0.2221
     25  O3B       29.4780   15.5690    6.6720 O.3   403  UDP403     -0.1143
@<TRIPOS>BOND
     1     7     2    2
     2     3     2    2
     3     3     4    2
     4     8     4    2
     5     2     1   am
     6     4     5    1
     7    10    11    1
     8    10    12    1
     9    10     9    1
    10     1     9    1
    11     1     6    1
    12    15    12    1
    13     5     6    2
    14    12    13    1
    15     9    14    1
    16    19    18    2
    17    14    13    1
    18    20    18    1
    19    13    16    1
    20    18    17    1
    21    18    21    1
    22    17    16    1
    23    21    22    1
    24    22    24    2
    25    22    25    1
    26    22    23    1
