@<TRIPOS>MOLECULE
2fyc_UDP_B_1.pdb
 25 26 0 0 0
SMALL
GASTEIGER

@<TRIPOS>ATOM
      1  N1        14.0460   -2.1800   49.4690 N.am  405  UDP405     -0.1766
      2  C2        14.6110   -1.1310   50.2330 C.1   405  UDP405      0.2845
      3  N3        13.9770    0.0940   50.0950 N.2   405  UDP405     -0.2452
      4  C4        12.8520    0.3790   49.2850 C.1   405  UDP405      0.2182
      5  C5        12.3440   -0.7480   48.5480 C.2   405  UDP405      0.1242
      6  C6        12.9180   -1.9370   48.6480 C.2   405  UDP405      0.0929
      7  O2        15.5890   -1.3600   50.9380 O.2   405  UDP405     -0.1918
      8  O4        12.3870    1.5070   49.2470 O.2   405  UDP405     -0.2085
      9  C1'       14.7180   -3.5220   49.5920 C.3   405  UDP405      0.2401
     10  C2'       14.5820   -4.3250   50.8560 C.3   405  UDP405      0.2319
     11  O2'       15.7940   -5.0490   51.2320 O.3   405  UDP405     -0.2157
     12  C3'       13.4020   -5.1970   50.4740 C.3   405  UDP405      0.2158
     13  C4'       13.7320   -5.5990   49.0600 C.3   405  UDP405      0.1799
     14  O4'       14.1810   -4.3220   48.5390 O.3   405  UDP405     -0.3320
     15  O3'       13.2200   -6.3390   51.3000 O.3   405  UDP405     -0.2175
     16  C5'       12.5570   -6.2300   48.3340 C.3   405  UDP405      0.1813
     17  O5'       11.3980   -5.4500   48.0080 O.3   405  UDP405     -0.3111
     18  PA        10.1050   -6.0570   47.2620 P.3   405  UDP405      0.2231
     19  O1A        9.3480   -4.9610   46.5970 O.2   405  UDP405     -0.5169
     20  O2A        9.2450   -6.9690   48.0800 O.3   405  UDP405     -0.4370
     21  O3A       10.9240   -7.0150   46.1670 O.3   405  UDP405     -0.2261
     22  PB        10.5560   -8.4460   45.6570 P.3   405  UDP405      0.5373
     23  O1B       11.8000   -8.6870   44.6700 O.2   405  UDP405     -0.2221
     24  O2B       10.6700   -9.3010   46.8800 O.3   405  UDP405     -0.1143
     25  O3B        9.1210   -8.5360   45.2670 O.3   405  UDP405     -0.1143
@<TRIPOS>BOND
     1    23    22    2
     2    25    22    1
     3    22    21    1
     4    22    24    1
     5    21    18    1
     6    19    18    2
     7    18    17    1
     8    18    20    1
     9    17    16    1
    10    16    13    1
    11    14    13    1
    12    14     9    1
    13     5     6    2
    14     5     4    1
    15     6     1    1
    16    13    12    1
    17     8     4    2
    18     4     3    2
    19     1     9    1
    20     1     2   am
    21     9    10    1
    22     3     2    2
    23     2     7    2
    24    12    10    1
    25    12    15    1
    26    10    11    1
