@<TRIPOS>MOLECULE
2fyc_GDU_B_1.pdb
 36 38 0 0 0
SMALL
GASTEIGER

@<TRIPOS>ATOM
      1  N1         5.9490   -5.7960   32.4290 N.am  403  GDU403     -0.1766
      2  C2         6.4830   -6.3790   33.5960 C.1   403  GDU403      0.2845
      3  N3         6.6000   -7.7640   33.5640 N.2   403  GDU403     -0.2452
      4  C4         6.2460   -8.6180   32.5010 C.1   403  GDU403      0.2182
      5  C5         5.7090   -7.9440   31.3430 C.2   403  GDU403      0.1242
      6  C6         5.5790   -6.6210   31.3290 C.2   403  GDU403      0.0929
      7  O2         6.8010   -5.6470   34.5460 O.2   403  GDU403     -0.1918
      8  O4         6.3960   -9.8190   32.6010 O.2   403  GDU403     -0.2085
      9  C1D        5.8040   -4.2790   32.4290 C.3   403  GDU403      0.2401
     10  C2D        7.0400   -3.4550   32.4930 C.3   403  GDU403      0.2319
     11  O2D        6.8230   -2.1800   33.1260 O.3   403  GDU403     -0.2157
     12  C3D        7.3640   -3.3760   31.0210 C.3   403  GDU403      0.2158
     13  C4D        6.0290   -3.0770   30.3860 C.3   403  GDU403      0.1799
     14  O4D        5.2110   -3.9830   31.1600 O.3   403  GDU403     -0.3320
     15  O3D        8.3290   -2.3870   30.6870 O.3   403  GDU403     -0.2175
     16  C5D        6.0840   -3.3920   28.9070 C.3   403  GDU403      0.1813
     17  O5D        6.3780   -4.7690   28.5600 O.3   403  GDU403     -0.3112
     18  PA         7.6220   -5.1660   27.6680 P.3   403  GDU403      0.2189
     19  O1A        8.8040   -4.4120   28.1500 O.3   403  GDU403     -0.4371
     20  O2A        7.8120   -6.6300   27.4980 O.2   403  GDU403     -0.5170
     21  O3A        7.0790   -4.6020   26.2200 O.3   403  GDU403     -0.2703
     22  PB         7.6520   -3.4680   25.3070 P.3   403  GDU403      0.2208
     23  O1B        7.7100   -4.2130   23.9230 O.2   403  GDU403     -0.5170
     24  O2B        9.0170   -3.1780   25.7830 O.3   403  GDU403     -0.4371
     25  O3B        6.8490   -2.2360   25.6500 O.3   403  GDU403     -0.2857
     26  C1'        6.0350   -1.5650   24.6870 C.3   403  GDU403      0.2742
     27  C2'        5.6220   -0.2000   25.2760 C.3   403  GDU403      0.2409
     28  C3'        4.7020   -0.4440   26.4820 C.3   403  GDU403      0.2198
     29  C4'        3.4480   -1.1890   25.9880 C.3   403  GDU403      0.2144
     30  C5'        3.8500   -2.5530   25.3640 C.3   403  GDU403      0.1835
     31  C6'        2.8380   -3.2960   24.5030 C.3   403  GDU403      0.2142
     32  O2'        6.7310    0.5520   25.7560 O.3   403  GDU403     -0.2149
     33  O3'        4.2230    0.7670   27.0570 O.3   403  GDU403     -0.2174
     34  O4'        2.7040   -0.4830   25.0310 O.3   403  GDU403     -0.2176
     35  O5'        4.8290   -2.2940   24.2670 O.3   403  GDU403     -0.3254
     36  O6'        1.8950   -4.0770   25.2130 O.3   403  GDU403     -0.2176
@<TRIPOS>BOND
     1    23    22    2
     2    35    26    1
     3    35    30    1
     4    31    36    1
     5    31    30    1
     6    26    27    1
     7    26    25    1
     8    34    29    1
     9    27    32    1
    10    27    28    1
    11    22    25    1
    12    22    24    1
    13    22    21    1
    14    30    29    1
    15    29    28    1
    16    21    18    1
    17    28    33    1
    18    20    18    2
    19    18    19    1
    20    18    17    1
    21    17    16    1
    22    16    13    1
    23    13    12    1
    24    13    14    1
    25    15    12    1
    26    12    10    1
    27    14     9    1
    28     6     5    2
    29     6     1    1
    30     5     4    1
    31     1     9    1
    32     1     2   am
    33     9    10    1
    34    10    11    1
    35     4     8    2
    36     4     3    2
    37     3     2    2
    38     2     7    2
