@<TRIPOS>MOLECULE
2fyd_UDP_B_1.pdb
 25 26 0 0 0
SMALL
GASTEIGER

@<TRIPOS>ATOM
      1  N1         6.2850   -5.8290   32.7650 N.am  406  UDP406     -0.1766
      2  C2         6.8280   -6.4260   33.9280 C.1   406  UDP406      0.2845
      3  N3         6.9820   -7.8020   33.8680 N.2   406  UDP406     -0.2452
      4  C4         6.6550   -8.6330   32.7890 C.1   406  UDP406      0.2182
      5  C5         6.1140   -7.9520   31.6380 C.2   406  UDP406      0.1242
      6  C6         5.9500   -6.6350   31.6530 C.2   406  UDP406      0.0929
      7  O2         7.1120   -5.7270   34.8660 O.2   406  UDP406     -0.1918
      8  O4         6.8290   -9.8260   32.8690 O.2   406  UDP406     -0.2085
      9  C1'        6.0940   -4.3280   32.8040 C.3   406  UDP406      0.2401
     10  C2'        7.3020   -3.4620   32.8300 C.3   406  UDP406      0.2319
     11  O2'        7.1330   -2.2050   33.5360 O.3   406  UDP406     -0.2157
     12  C3'        7.5160   -3.3440   31.3630 C.3   406  UDP406      0.2158
     13  C4'        6.0990   -3.0370   30.7910 C.3   406  UDP406      0.1799
     14  O4'        5.3920   -4.0190   31.5790 O.3   406  UDP406     -0.3320
     15  O3'        8.5300   -2.4070   31.0190 O.3   406  UDP406     -0.2175
     16  C5'        6.0340   -3.2870   29.2640 C.3   406  UDP406      0.1813
     17  O5'        7.1770   -4.0070   29.0130 O.3   406  UDP406     -0.3111
     18  PA         8.0400   -4.6620   27.9390 P.3   406  UDP406      0.2231
     19  O1A        9.3610   -4.1390   28.4010 O.3   406  UDP406     -0.4370
     20  O2A        8.0290   -6.1280   27.8270 O.2   406  UDP406     -0.5169
     21  O3A        7.7240   -4.1800   26.4020 O.3   406  UDP406     -0.2261
     22  PB         8.3780   -3.0510   25.5690 P.3   406  UDP406      0.5373
     23  O1B        7.7310   -3.4470   24.1870 O.2   406  UDP406     -0.2221
     24  O2B        9.8410   -3.3260   25.7330 O.3   406  UDP406     -0.1143
     25  O3B        8.1650   -1.7260   26.1670 O.3   406  UDP406     -0.1143
@<TRIPOS>BOND
     1    23    22    2
     2    22    24    1
     3    22    25    1
     4    22    21    1
     5    21    18    1
     6    20    18    2
     7    18    19    1
     8    18    17    1
     9    17    16    1
    10    16    13    1
    11    13    12    1
    12    13    14    1
    13    15    12    1
    14    12    10    1
    15    14     9    1
    16     5     6    2
    17     5     4    1
    18     6     1    1
    19     1     9    1
    20     1     2   am
    21     4     8    2
    22     4     3    2
    23     9    10    1
    24    10    11    1
    25     3     2    2
    26     2     7    2
