@<TRIPOS>MOLECULE
2fyd_NGA_B_1.pdb
 14 14 0 0 0
SMALL
GASTEIGER

@<TRIPOS>ATOM
      1  C1         5.7120   -1.1600   23.6510 C.3   404  NGA404      0.1665
      2  C2         5.8740   -0.1420   24.8050 C.3   404  NGA404      0.1576
      3  C3         5.2100   -0.5380   26.1590 C.3   404  NGA404      0.2069
      4  C4         3.8830   -1.3550   26.0050 C.3   404  NGA404      0.2134
      5  C5         4.0240   -2.4540   24.9550 C.3   404  NGA404      0.1809
      6  C6         2.9460   -3.4570   24.5540 C.3   404  NGA404      0.2141
      7  C7         8.3400    0.7290   24.3860 C.2   404  NGA404      0.2420
      8  C8         8.7080   -0.3690   23.3520 C.3   404  NGA404      0.0964
      9  N2         7.0720    0.7600   24.9650 N.am  404  NGA404     -0.2019
     10  O3         4.8770    0.5280   27.0820 O.3   404  NGA404     -0.2184
     11  O4         2.8900   -0.5820   25.4560 O.3   404  NGA404     -0.2176
     12  O5         4.6740   -2.0230   23.6300 O.3   404  NGA404     -0.3489
     13  O6         2.3760   -4.1960   25.6060 O.3   404  NGA404     -0.2176
     14  O7         9.1730    1.5750   24.7050 O.2   404  NGA404     -0.2733
@<TRIPOS>BOND
     1     8     7    1
     2    12     1    1
     3    12     5    1
     4     1     2    1
     5     7    14    2
     6     7     9   am
     7     6     5    1
     8     6    13    1
     9     2     9    1
    10     2     3    1
    11     5     4    1
    12    11     4    1
    13     4     3    1
    14     3    10    1
