@<TRIPOS>MOLECULE
2fyd_BGC_B_1.pdb
 12 12 0 0 0
SMALL
GASTEIGER

@<TRIPOS>ATOM
      1  C2         2.2640   -2.1760   19.3250 C.3   403  BGC403      0.2434
      2  C3         2.3920   -1.2890   20.5490 C.3   403  BGC403      0.2199
      3  C4         3.8510   -1.0780   20.9000 C.3   403  BGC403      0.2144
      4  C5         4.6120   -0.5320   19.6870 C.3   403  BGC403      0.1836
      5  C6         6.1090   -0.3200   19.9100 C.3   403  BGC403      0.2142
      6  C1         3.0800   -1.5860   18.1760 C.3   403  BGC403      0.3024
      7  O1         3.0370   -2.4430   17.0870 O.3   403  BGC403     -0.1869
      8  O2         0.9010   -2.2770   18.9550 O.3   403  BGC403     -0.2148
      9  O3         1.7400   -1.9000   21.6450 O.3   403  BGC403     -0.2174
     10  O4         3.9210   -0.1570   21.9680 O.3   403  BGC403     -0.2176
     11  O5         4.4570   -1.4270   18.5700 O.3   403  BGC403     -0.3236
     12  O6         6.7430   -1.4680   20.4660 O.3   403  BGC403     -0.2176
@<TRIPOS>BOND
     1     7     6    1
     2     6    11    1
     3     6     1    1
     4    11     4    1
     5     8     1    1
     6     1     2    1
     7     4     5    1
     8     4     3    1
     9     5    12    1
    10     2     3    1
    11     2     9    1
    12     3    10    1
