@<TRIPOS>MOLECULE
2fye_BCQ_A_1.pdb
 45 48 0 0 0
SMALL
GASTEIGER

@<TRIPOS>ATOM
      1  N3        34.5620    4.1330   49.6480 N.am  281  BCQ281     -0.2577
      2  O6        32.8270    1.7970   49.6070 O.3   281  BCQ281     -0.3501
      3  C2        34.2890    3.2920   50.8800 C.3   281  BCQ281      0.1271
      4  C3        32.9840    2.5160   50.8300 C.3   281  BCQ281      0.1637
      5  C4        34.1830    3.4620   48.3520 C.3   281  BCQ281      0.1271
      6  C5        32.9010    2.6520   48.4440 C.3   281  BCQ281      0.1637
      7  C1        34.9930    5.4050   49.7310 C.2   281  BCQ281      0.3238
      8  O1        35.3620    5.8560   50.8180 O.2   281  BCQ281     -0.2508
      9  N         35.1260    6.1440   48.6350 N.am  281  BCQ281     -0.1789
     10  CA        35.5670    7.5290   48.7510 C.3   281  BCQ281      0.1977
     11  O         33.2640    8.1160   48.9160 O.2   281  BCQ281     -0.2714
     12  C         34.4050    8.3230   49.3200 C.2   281  BCQ281      0.2630
     13  C03       35.9540    8.1000   47.3860 C.3   281  BCQ281      0.1822
     14  C09       36.9350    5.9000   46.0030 C.3   281  BCQ281      0.1813
     15  S04       37.5220    7.4660   46.7190 S.O2  281  BCQ281     -0.0034
     16  C12       38.1040    5.0470   45.6200 C.ar  281  BCQ281      0.0510
     17  C16       38.9650    5.2860   44.6000 C.ar  281  BCQ281      0.1521
     18  C13       38.6940    4.1250   46.4150 C.ar  281  BCQ281      0.0983
     19  C18       38.7580    6.2860   43.4650 C.3   281  BCQ281      0.0751
     20  C17       38.2310    3.7260   47.8020 C.3   281  BCQ281      0.0554
     21  N14       39.8970    3.7980   45.8470 N.ar  281  BCQ281     -0.0820
     22  O15       39.9550    4.3610   44.6720 O.2   281  BCQ281     -0.3584
     23  O05       38.3880    7.1840   47.8120 O.2   281  BCQ281     -0.1726
     24  O06       37.9370    8.3190   45.6480 O.2   281  BCQ281     -0.1726
     25  N2        34.6590    9.1010   50.3630 N.am  281  BCQ281     -0.2056
     26  CA2       33.6290    9.9920   50.8740 C.3   281  BCQ281      0.0975
     27  CB2       33.4460    9.7810   52.3800 C.3   281  BCQ281      0.0264
     28  CG2       32.7900    8.1510   54.2090 C.ar  281  BCQ281     -0.0221
     29  CD1       31.6700    8.7040   54.8470 C.ar  281  BCQ281     -0.0043
     30  CD2       33.7200    7.4100   54.9560 C.ar  281  BCQ281     -0.0043
     31  CE1       31.4870    8.5160   56.2080 C.ar  281  BCQ281     -0.0003
     32  CE2       33.5290    7.2290   56.3140 C.ar  281  BCQ281     -0.0003
     33  CZ        32.4150    7.7790   56.9400 C.ar  281  BCQ281     -0.0000
     34  CB8       33.0030    8.3610   52.7250 C.3   281  BCQ281      0.0281
     35  C7A       35.1350   11.9340   51.4020 C.3   281  BCQ281      0.1577
     36  CT        33.9540   11.4520   50.5590 C.3   281  BCQ281      0.0474
     37  C4A       36.5950   13.1440   53.5670 C.ar  281  BCQ281      0.1057
     38  C1A       38.7030   12.9000   55.4220 C.ar  281  BCQ281      0.0001
     39  C2A       38.4430   14.1270   54.8210 C.ar  281  BCQ281      0.0013
     40  C3A       37.3940   14.2490   53.9010 C.ar  281  BCQ281      0.0183
     41  C5A       36.8700   11.9070   54.1820 C.ar  281  BCQ281      0.0183
     42  C6A       37.9200   11.7900   55.1080 C.ar  281  BCQ281      0.0013
     43  S1        35.1630   13.3330   52.5690 S.O2  281  BCQ281      0.0087
     44  O1A       35.3450   14.5220   51.8160 O.2   281  BCQ281     -0.1686
     45  O2        34.0470   13.2620   53.4690 O.2   281  BCQ281     -0.1686
@<TRIPOS>BOND
     1    19    17    1
     2    17    22   ar
     3    17    16   ar
     4    22    21   ar
     5    16    14    1
     6    16    18   ar
     7    24    15    2
     8    21    18   ar
     9    14    15    1
    10    18    20    1
    11    15    13    1
    12    15    23    2
    13    13    10    1
    14     5     6    1
    15     5     1    1
    16     6     2    1
    17     9    10    1
    18     9     7   am
    19    10    12    1
    20    11    12    2
    21    12    25   am
    22     2     4    1
    23     1     7   am
    24     1     3    1
    25     7     8    2
    26    25    26    1
    27    36    26    1
    28    36    35    1
    29     4     3    1
    30    26    27    1
    31    35    43    1
    32    44    43    2
    33    27    34    1
    34    43    45    2
    35    43    37    1
    36    34    28    1
    37    37    40   ar
    38    37    41   ar
    39    40    39   ar
    40    41    42   ar
    41    28    29   ar
    42    28    30   ar
    43    39    38   ar
    44    29    31   ar
    45    30    32   ar
    46    42    38   ar
    47    31    33   ar
    48    32    33   ar
