@<TRIPOS>MOLECULE
2fyf_PLP_A_1.pdb
 16 16 0 0 0
SMALL
GASTEIGER

@<TRIPOS>ATOM
      1  N1        66.4320   36.1350    1.4020 N.ar  1377  PLP1377    -0.2452
      2  C2        66.7420   35.2780    2.4230 C.ar  1377  PLP1377     0.0979
      3  C2A       68.1110   34.6920    2.4600 C.3   1377  PLP1377     0.0555
      4  C3        65.8000   35.0350    3.4010 C.ar  1377  PLP1377     0.2073
      5  O3        66.1000   34.2120    4.4240 O.3   1377  PLP1377    -0.2856
      6  C4        64.5330   35.6110    3.3000 C.ar  1377  PLP1377     0.0506
      7  C4A       63.3780   35.1630    4.1780 C.3   1377  PLP1377     0.2116
      8  O4A       63.2650   35.8560    5.1900 O.3   1377  PLP1377    -0.2151
      9  C5        64.2570   36.4880    2.2680 C.ar  1377  PLP1377     0.0286
     10  C6        65.2050   36.7630    1.3010 C.ar  1377  PLP1377     0.0966
     11  C5A       62.9660   37.2960    2.2330 C.3   1377  PLP1377     0.1816
     12  O4P       62.8610   38.1140    3.3950 O.3   1377  PLP1377    -0.2653
     13  P         61.5370   38.9860    3.6580 P.3   1377  PLP1377     0.5329
     14  O1P       60.5060   38.0370    4.1670 O.3   1377  PLP1377    -0.1145
     15  O2P       61.1360   39.5400    2.3210 O.2   1377  PLP1377    -0.2224
     16  O3P       61.9930   40.0310    4.6230 O.3   1377  PLP1377    -0.1145
@<TRIPOS>BOND
     1    10     1   ar
     2    10     9   ar
     3     1     2   ar
     4    11     9    1
     5    11    12    1
     6     9     6   ar
     7    15    13    2
     8     2     3    1
     9     2     4   ar
    10     6     4   ar
    11     6     7    1
    12    12    13    1
    13     4     5    1
    14    13    14    1
    15    13    16    1
    16     7     8    1
