@<TRIPOS>MOLECULE
2fyk_ADP_A_1.pdb
 27 29 0 0 0
SMALL
GASTEIGER

@<TRIPOS>ATOM
      1  PB       -16.8420  -14.7780   -4.9290 P.3   1301  ADP1301     0.5373
      2  O1B      -16.2640  -13.9900   -6.0270 O.2   1301  ADP1301    -0.2221
      3  O2B      -16.7200  -16.2570   -5.1630 O.3   1301  ADP1301    -0.1143
      4  O3B      -16.3200  -14.3990   -3.5060 O.3   1301  ADP1301    -0.1143
      5  PA       -19.5140  -13.9960   -4.0030 P.3   1301  ADP1301     0.2231
      6  O1A      -20.7930  -14.3170   -4.7050 O.2   1301  ADP1301    -0.5169
      7  O2A      -19.3200  -14.5710   -2.6290 O.3   1301  ADP1301    -0.4370
      8  O3A      -18.4070  -14.4900   -5.0180 O.3   1301  ADP1301    -0.2261
      9  O5'      -19.6930  -12.4100   -3.9570 O.3   1301  ADP1301    -0.3111
     10  C5'      -18.7070  -11.4450   -3.3940 C.3   1301  ADP1301     0.1813
     11  C4'      -18.2690  -11.5950   -1.9260 C.3   1301  ADP1301     0.1821
     12  O4'      -17.2470  -10.6100   -1.7220 O.3   1301  ADP1301    -0.3135
     13  C3'      -19.2840  -11.2760   -0.8030 C.3   1301  ADP1301     0.2184
     14  O3'      -19.9350  -12.5010   -0.3900 O.3   1301  ADP1301    -0.2174
     15  C2'      -18.4170  -10.5850    0.2870 C.3   1301  ADP1301     0.2570
     16  O2'      -17.8560  -11.5020    1.2440 O.3   1301  ADP1301    -0.2130
     17  C1'      -17.2730   -9.9470   -0.4740 C.3   1301  ADP1301     0.3186
     18  N9       -17.4850   -8.4540   -0.7390 N.pl3 1301  ADP1301    -0.1439
     19  C8       -18.5900   -7.6830   -0.4850 C.3   1301  ADP1301     0.3377
     20  N7       -18.4240   -6.4090   -0.8450 N.2   1301  ADP1301    -0.2095
     21  C5       -17.1630   -6.3750   -1.3500 C.2   1301  ADP1301     0.2526
     22  C6       -16.3950   -5.2860   -1.8990 C.2   1301  ADP1301     0.4393
     23  N6       -16.7930   -4.0710   -2.0300 N.pl3 1301  ADP1301     0.2180
     24  N1       -15.1200   -5.6440   -2.3190 N.2   1301  ADP1301     0.0021
     25  C2       -14.6110   -6.9380   -2.2160 C.3   1301  ADP1301     0.5254
     26  N3       -15.3190   -7.9560   -1.7070 N.2   1301  ADP1301    -0.0055
     27  C4       -16.5660   -7.6280   -1.2890 C.2   1301  ADP1301     0.3518
@<TRIPOS>BOND
     1     2     1    2
     2     3     1    1
     3     8     1    1
     4     8     5    1
     5     1     4    1
     6     6     5    2
     7     5     9    1
     8     5     7    1
     9     9    10    1
    10    10    11    1
    11    24    25    1
    12    24    22    2
    13    25    26    1
    14    23    22    1
    15    11    12    1
    16    11    13    1
    17    22    21    1
    18    12    17    1
    19    26    27    2
    20    21    27    1
    21    21    20    2
    22    27    18    1
    23    20    19    1
    24    13    14    1
    25    13    15    1
    26    18    19    1
    27    18    17    1
    28    17    15    1
    29    15    16    1
