@<TRIPOS>MOLECULE
2fyk_BTN_A_1.pdb
 16 17 0 0 0
SMALL
GASTEIGER

@<TRIPOS>ATOM
      1  C11      -19.1970  -11.1190   -7.0660 C.2   1401  BTN1401     0.3649
      2  O11      -19.6950  -12.2360   -6.8310 O.co2 1401  BTN1401    -0.2457
      3  O12      -18.1030  -10.7450   -6.5270 O.co2 1401  BTN1401    -0.2457
      4  C10      -19.8750  -10.1610   -7.9880 C.3   1401  BTN1401     0.1141
      5  C9       -20.1050   -8.7970   -7.4100 C.3   1401  BTN1401     0.0118
      6  C8       -20.7160   -7.8580   -8.4120 C.3   1401  BTN1401     0.0015
      7  C7       -20.9600   -6.4730   -7.8580 C.3   1401  BTN1401     0.0129
      8  C2       -21.5800   -5.5120   -8.8650 C.3   1401  BTN1401     0.0729
      9  S1       -21.6930   -3.8300   -8.2920 S.3   1401  BTN1401    -0.1369
     10  C6       -22.5240   -3.4260   -9.8420 C.3   1401  BTN1401     0.0848
     11  C5       -23.5830   -4.5520   -9.9410 C.3   1401  BTN1401     0.1509
     12  N1       -24.7810   -4.2780   -9.1230 N.2   1401  BTN1401    -0.1859
     13  C3       -24.9330   -5.2350   -8.1860 C.1   1401  BTN1401     0.2386
     14  O3       -25.9710   -5.2820   -7.2210 O.2   1401  BTN1401    -0.2023
     15  N2       -23.9410   -6.1740   -8.2720 N.2   1401  BTN1401    -0.1860
     16  C4       -23.0200   -5.8650   -9.3420 C.3   1401  BTN1401     0.1500
@<TRIPOS>BOND
     1    11    10    1
     2    11    16    1
     3    11    12    1
     4    10     9    1
     5    16     8    1
     6    16    15    1
     7    12    13    2
     8     8     9    1
     9     8     7    1
    10     6     7    1
    11     6     5    1
    12    15    13    2
    13    13    14    2
    14     4     5    1
    15     4     1    1
    16     1     2   ar
    17     1     3   ar
