@<TRIPOS>MOLECULE
2fyn_LOP_A_1.pdb
 45 44 0 0 0
SMALL
GASTEIGER

@<TRIPOS>ATOM
      1  N1        79.9480  116.2440  124.0600 N.3   504  LOP504     -0.1286
      2  C1        80.9500  116.4120  125.1000 C.3   504  LOP504      0.1417
      3  C2        80.4800  117.3890  126.1550 C.3   504  LOP504      0.1696
      4  O1        81.4920  117.5450  127.1920 O.3   504  LOP504     -0.3125
      5  P1        80.9260  117.3710  128.6700 P.3   504  LOP504      0.2141
      6  O2        82.0930  116.5640  129.3560 O.3   504  LOP504     -0.3100
      7  O3        79.6950  116.5310  128.6660 O.2   504  LOP504     -0.5172
      8  O4        80.8350  118.7140  129.3230 O.3   504  LOP504     -0.4373
      9  C3        82.1600  115.2020  128.8510 C.3   504  LOP504      0.1964
     10  C4        83.2640  114.4130  129.5370 C.3   504  LOP504      0.2420
     11  C5        82.6990  113.6000  130.7380 C.3   504  LOP504      0.2543
     12  O5        83.8310  113.4640  128.6110 O.3   504  LOP504     -0.4457
     13  O6        83.5510  112.4480  130.8770 O.3   504  LOP504     -0.4444
     14  C6        85.2020  113.5410  128.4180 C.2   504  LOP504      0.3171
     15  O7        85.8990  114.4150  128.9400 O.2   504  LOP504     -0.2501
     16  C7        85.8410  112.4580  127.6050 C.3   504  LOP504      0.1096
     17  C8        86.3150  111.3100  128.5230 C.3   504  LOP504      0.0116
     18  C9        86.8450  110.1820  127.6240 C.3   504  LOP504      0.0006
     19  C10       87.3830  108.9300  128.3440 C.3   504  LOP504      0.0000
     20  C11       87.6010  107.7800  127.3170 C.3   504  LOP504      0.0003
     21  C12       88.2920  106.5900  128.0090 C.3   504  LOP504      0.0047
     22  C13       88.3470  105.2750  127.2110 C.3   504  LOP504      0.0257
     23  C14       89.1260  104.2530  128.0690 C.2   504  LOP504     -0.0307
     24  C15       89.2300  102.9370  127.7890 C.2   504  LOP504     -0.0307
     25  C16       88.5720  102.2200  126.5630 C.3   504  LOP504      0.0257
     26  C17       88.9100  100.7190  126.6870 C.3   504  LOP504      0.0047
     27  C18       88.4270   99.6530  125.6770 C.3   504  LOP504      0.0003
     28  C19       89.1460   98.4810  126.3480 C.3   504  LOP504      0.0000
     29  C20       89.1570   97.0230  125.9020 C.3   504  LOP504      0.0000
     30  C21       90.0540   96.4950  127.0370 C.3   504  LOP504      0.0000
     31  C22       90.3630   95.0060  127.1200 C.3   504  LOP504      0.0000
     32  C23       91.2630   94.7570  128.3430 C.3   504  LOP504      0.0000
     33  C24       83.2390  111.5260  131.8180 C.2   504  LOP504      0.3171
     34  O8        82.2610  111.6310  132.5470 O.2   504  LOP504     -0.2501
     35  C25       84.1460  110.3370  131.9440 C.3   504  LOP504      0.1096
     36  C26       85.0490  110.4580  133.1670 C.3   504  LOP504      0.0116
     37  C27       85.9530  109.2360  133.2400 C.3   504  LOP504      0.0006
     38  C28       86.8730  109.2370  134.4700 C.3   504  LOP504      0.0000
     39  C29       87.5050  107.8520  134.4050 C.3   504  LOP504      0.0000
     40  C30       88.4040  107.3760  135.5380 C.3   504  LOP504      0.0000
     41  C31       88.7410  105.9550  135.0700 C.3   504  LOP504      0.0000
     42  C32       89.7170  105.2970  136.0260 C.3   504  LOP504      0.0000
     43  C33       90.2050  103.9030  135.5630 C.3   504  LOP504      0.0000
     44  C34       91.2790  103.4420  136.5800 C.3   504  LOP504      0.0000
     45  C35       91.9500  102.1390  136.1730 C.3   504  LOP504      0.0000
@<TRIPOS>BOND
     1     1     2    1
     2     2     3    1
     3    27    28    1
     4    27    26    1
     5    29    28    1
     6    29    30    1
     7     3     4    1
     8    25    26    1
     9    25    24    1
    10    30    31    1
    11    31    32    1
    12     4     5    1
    13    22    21    1
    14    22    23    1
    15    20    21    1
    16    20    19    1
    17    16    14    1
    18    16    17    1
    19    18    19    1
    20    18    17    1
    21    24    23    2
    22    14    12    1
    23    14    15    2
    24    12    10    1
    25     7     5    2
    26     5     8    1
    27     5     6    1
    28     9     6    1
    29     9    10    1
    30    10    11    1
    31    11    13    1
    32    13    33    1
    33    33    35    1
    34    33    34    2
    35    35    36    1
    36    36    37    1
    37    37    38    1
    38    39    38    1
    39    39    40    1
    40    41    40    1
    41    41    42    1
    42    43    42    1
    43    43    44    1
    44    45    44    1
