@<TRIPOS>MOLECULE
2fyn_HEM_A_1.pdb
 43 50 0 0 0
SMALL
GASTEIGER

@<TRIPOS>ATOM
      1 FE         74.3990  100.4330  134.8680 Fe    501  HEM501      0.0000
      2  CHA       72.6520  102.7080  133.0430 C.2   501  HEM501      0.0000
      3  CHB       73.8610   98.0900  132.3740 C.2   501  HEM501      0.0000
      4  CHC       76.4830   98.2570  136.3980 C.2   501  HEM501      0.0000
      5  CHD       74.7630  102.6740  137.4170 C.2   501  HEM501      0.0000
      6  NA        73.4710  100.4060  133.1000 N.ar  501  HEM501      0.0000
      7  C1A       72.8550  101.4610  132.4630 C.ar  501  HEM501      0.0000
      8  C2A       72.3950  101.0840  131.1350 C.ar  501  HEM501      0.0000
      9  C3A       72.7080   99.7850  130.9710 C.ar  501  HEM501      0.0000
     10  C4A       73.3690   99.3610  132.1690 C.ar  501  HEM501      0.0000
     11  CMA       72.4260   98.9440  129.7660 C.3   501  HEM501      0.0000
     12  CAA       71.7930  101.9930  130.0900 C.3   501  HEM501      0.0000
     13  CBA       72.8410  102.3760  129.0240 C.3   501  HEM501      0.0000
     14  CGA       73.9840  103.2090  129.5800 C.2   501  HEM501      0.0000
     15  O1A       75.1780  102.8270  129.4290 O.co2 501  HEM501      0.0000
     16  O2A       73.6630  104.2590  130.1680 O.co2 501  HEM501      0.0000
     17  NB        74.9720   98.5570  134.5050 N.2   501  HEM501      0.0000
     18  C1B       74.6250   97.7150  133.4590 C.2   501  HEM501      0.0000
     19  C2B       75.2880   96.4520  133.5490 C.2   501  HEM501      0.0000
     20  C3B       76.1030   96.5200  134.6190 C.2   501  HEM501      0.0000
     21  C4B       75.8740   97.8230  135.2220 C.2   501  HEM501      0.0000
     22  CMB       75.0530   95.2410  132.6460 C.3   501  HEM501      0.0000
     23  CAB       77.0910   95.6110  134.9690 C.3   501  HEM501      0.0000
     24  CBB       76.4670   94.2850  135.3290 C.3   501  HEM501      0.0000
     25  NC        75.3590  100.4250  136.5910 N.ar  501  HEM501      0.0000
     26  C1C       76.2560   99.4770  137.0340 C.ar  501  HEM501      0.0000
     27  C2C       76.9490   99.9080  138.2400 C.ar  501  HEM501      0.0000
     28  C3C       76.4380  101.1760  138.5500 C.ar  501  HEM501      0.0000
     29  C4C       75.4640  101.4670  137.5200 C.ar  501  HEM501      0.0000
     30  CMC       78.0810   99.1170  138.9410 C.3   501  HEM501      0.0000
     31  CAC       76.8300  102.0870  139.5530 C.3   501  HEM501      0.0000
     32  CBC       77.0860  101.3710  140.8670 C.3   501  HEM501      0.0000
     33  ND        73.8410  102.2870  135.1410 N.2   501  HEM501      0.0000
     34  C1D       73.9810  103.0500  136.3060 C.2   501  HEM501      0.0000
     35  C2D       73.2640  104.3020  136.2060 C.2   501  HEM501      0.0000
     36  C3D       72.6940  104.3330  134.9680 C.2   501  HEM501      0.0000
     37  C4D       73.0620  103.0750  134.3180 C.2   501  HEM501      0.0000
     38  CMD       73.1470  105.3480  137.2870 C.3   501  HEM501      0.0000
     39  CAD       71.8260  105.4690  134.3800 C.3   501  HEM501      0.0000
     40  CBD       70.3190  105.1480  134.3800 C.3   501  HEM501      0.0000
     41  CGD       69.4170  106.3340  133.9810 C.2   501  HEM501      0.0000
     42  O1D       69.8380  107.1160  133.0750 O.co2 501  HEM501      0.0000
     43  O2D       68.2910  106.4580  134.5690 O.co2 501  HEM501      0.0000
@<TRIPOS>BOND
     1    13    14    1
     2    13    12    1
     3    15    14   ar
     4    14    16   ar
     5    11     9    1
     6    12     8    1
     7     9     8   ar
     8     9    10   ar
     9     8     7   ar
    10    10     3    2
    11    10     6   ar
    12     3    18    1
    13     7     2    2
    14     7     6   ar
    15    22    19    1
    16     2    37    1
    17    42    41   ar
    18     6     1    1
    19    18    19    1
    20    18    17    2
    21    19    20    2
    22    41    40    1
    23    41    43   ar
    24    37    36    1
    25    37    33    2
    26    40    39    1
    27    39    36    1
    28    17     1    1
    29    17    21    1
    30    20    23    1
    31    20    21    1
    32     1    33    1
    33     1    25    1
    34    36    35    2
    35    23    24    1
    36    33    34    1
    37    21     4    2
    38    35    34    1
    39    35    38    1
    40    34     5    2
    41     4    26    1
    42    25    26   ar
    43    25    29   ar
    44    26    27   ar
    45     5    29    1
    46    29    28   ar
    47    27    28   ar
    48    27    30    1
    49    28    31    1
    50    31    32    1
