@<TRIPOS>MOLECULE
2fyn_SMA_A_1.pdb
 37 38 0 0 0
SMALL
GASTEIGER

@<TRIPOS>ATOM
      1  C2        92.0560   93.2870  148.2360 C.ar  503  SMA503      0.1220
      2  C3        92.7810   93.6130  149.3860 C.ar  503  SMA503      0.0475
      3  C3M       92.2980   94.7050  150.3380 C.3   503  SMA503      0.0373
      4  C4        93.9870   92.9230  149.6570 C.ar  503  SMA503      0.2002
      5  C4A       94.4440   91.9050  148.7730 C.ar  503  SMA503      0.1105
      6  C5        95.6590   91.1770  148.9940 C.ar  503  SMA503      0.1479
      7  C5M       97.7410   92.0810  149.6280 C.3   503  SMA503      0.2525
      8  C6        96.0350   90.1600  148.0880 C.ar  503  SMA503      0.0774
      9  C7        95.2620   89.8720  146.9990 C.ar  503  SMA503      0.1835
     10  C7M       97.0170   88.9170  145.5540 C.3   503  SMA503      0.2526
     11  C8        94.1030   90.5920  146.7740 C.ar  503  SMA503      0.2636
     12  C8A       93.6940   91.5870  147.6350 C.ar  503  SMA503      0.1925
     13  C9        90.7820   94.0180  147.8620 C.3   503  SMA503      0.0644
     14  C10       89.4850   93.3940  148.2670 C.3   503  SMA503      0.0104
     15  C11       88.4060   93.9030  147.2890 C.3   503  SMA503      0.0278
     16  C12       86.9610   93.5930  147.7840 C.3   503  SMA503      0.1179
     17  C13       86.8080   92.0870  148.1250 C.3   503  SMA503      0.0586
     18  C14       85.4620   91.7670  148.8480 C.3   503  SMA503      0.1395
     19  C15       85.4110   90.3390  149.2840 C.2   503  SMA503      0.0029
     20  C16       84.4800   89.4680  148.9640 C.2   503  SMA503     -0.0022
     21  C17       84.6250   88.1370  149.5020 C.2   503  SMA503     -0.0006
     22  C18       83.6380   87.2790  149.3190 C.2   503  SMA503     -0.0046
     23  C19       83.6320   85.9170  149.8150 C.2   503  SMA503     -0.0261
     24  C20       82.4800   85.2350  149.6300 C.2   503  SMA503     -0.0300
     25  C21       82.2800   83.7990  150.0770 C.3   503  SMA503      0.0304
     26  C22       88.5620   95.4430  147.0070 C.3   503  SMA503      0.0025
     27  C23       85.5740   95.3740  148.6420 C.3   503  SMA503      0.1740
     28  C24       86.9680   91.2490  146.8230 C.3   503  SMA503      0.0054
     29  C25       83.4000   92.7980  148.7930 C.3   503  SMA503      0.1745
     30  C26       84.7960   85.3510  150.6180 C.3   503  SMA503      0.0307
     31  O1        92.5100   92.2830  147.3750 O.2   503  SMA503     -0.4544
     32  O4        94.6410   93.2100  150.6710 O.2   503  SMA503     -0.2866
     33  O5        96.5130   91.4590  150.1350 O.3   503  SMA503     -0.4711
     34  O7        95.6600   88.7900  146.0920 O.3   503  SMA503     -0.4680
     35  O8        93.2880   90.3100  145.6390 O.3   503  SMA503     -0.2800
     36  O12       86.6350   94.4100  148.9680 O.3   503  SMA503     -0.3535
     37  O14       84.3520   92.0500  148.0080 O.3   503  SMA503     -0.3491
@<TRIPOS>BOND
     1    10    34    1
     2    35    11    1
     3    34     9    1
     4    11     9   ar
     5    11    12   ar
     6    28    17    1
     7     9     8   ar
     8    26    15    1
     9    15    16    1
    10    15    14    1
    11    31    12   ar
    12    31     1   ar
    13    12     5   ar
    14    16    17    1
    15    16    36    1
    16    13     1    1
    17    13    14    1
    18    37    29    1
    19    37    18    1
    20     8     6   ar
    21    17    18    1
    22     1     2   ar
    23    27    36    1
    24     5     6   ar
    25     5     4   ar
    26    18    19    1
    27    20    19    2
    28    20    21    1
    29     6    33    1
    30    22    21    2
    31    22    23    1
    32     2     4   ar
    33     2     3    1
    34     7    33    1
    35    24    23    2
    36    24    25    1
    37     4    32    2
    38    23    30    1
