@<TRIPOS>MOLECULE
2fyp_RDE_A_1.pdb
 12 12 0 0 0
SMALL
GASTEIGER

@<TRIPOS>ATOM
      1  OAQ     -119.5150  -40.6950   52.1180 O.co2 1001  RDE1001    -0.2404
      2  CAR     -119.3640  -40.2440   53.2720 C.2   1001  RDE1001     0.3909
      3  OAE     -118.6950  -40.8180   54.1600 O.co2 1001  RDE1001    -0.2404
      4  CAX     -120.0170  -38.9000   53.6100 C.ar  1001  RDE1001     0.1196
      5  CAK     -120.2600  -38.5680   54.9390 C.ar  1001  RDE1001     0.0244
      6  CAV     -120.8900  -37.3680   55.2560 C.ar  1001  RDE1001     0.0969
      7 CLAH     -121.2360  -36.9990   56.9110 Cl    1001  RDE1001    -0.0789
      8  CAT     -121.2680  -36.4920   54.2430 C.ar  1001  RDE1001     0.2093
      9  OAF     -121.8480  -35.3000   54.5520 O.3   1001  RDE1001    -0.2856
     10  CAI     -121.0260  -36.8220   52.9120 C.ar  1001  RDE1001     0.0851
     11  CAU     -120.4040  -38.0260   52.5960 C.ar  1001  RDE1001     0.2053
     12  OAG     -120.1970  -38.3590   51.2940 O.3   1001  RDE1001    -0.2862
@<TRIPOS>BOND
     1    12    11    1
     2     1     2   ar
     3    11    10   ar
     4    11     4   ar
     5    10     8   ar
     6     2     4    1
     7     2     3   ar
     8     4     5   ar
     9     8     9    1
    10     8     6   ar
    11     5     6   ar
    12     6     7    1
