@<TRIPOS>MOLECULE
2fyt_SAH_A_1.pdb
 26 28 0 0 0
SMALL
GASTEIGER

@<TRIPOS>ATOM
      1  N        -14.0610  -33.2920   19.2410 N.3   549  SAH549     -0.1208
      2  CA       -14.6320  -33.6690   20.5600 C.3   549  SAH549      0.1952
      3  CB       -15.0550  -32.4850   21.4520 C.3   549  SAH549      0.0422
      4  CG       -16.0810  -31.5360   20.8410 C.3   549  SAH549      0.0597
      5  SD       -16.4740  -30.2470   22.0820 S.3   549  SAH549     -0.1375
      6  C        -15.8390  -34.5190   20.3100 C.2   549  SAH549      0.3819
      7  O        -16.3230  -34.5180   19.1690 O.co2 549  SAH549     -0.2441
      8  OXT      -16.3090  -35.2160   21.2340 O.co2 549  SAH549     -0.2441
      9  C5'      -15.4810  -28.8980   21.3660 C.3   549  SAH549      0.0899
     10  C4'      -14.0490  -28.7920   21.8830 C.3   549  SAH549      0.1630
     11  O4'      -13.4230  -27.7430   21.1740 O.3   549  SAH549     -0.3153
     12  C3'      -13.8710  -28.4220   23.3470 C.3   549  SAH549      0.2168
     13  O3'      -13.0140  -29.3690   23.9640 O.3   549  SAH549     -0.2175
     14  C2'      -13.2230  -27.0230   23.3680 C.3   549  SAH549      0.2569
     15  O2'      -12.2390  -26.9100   24.3560 O.3   549  SAH549     -0.2130
     16  C1'      -12.5520  -27.0080   21.9890 C.3   549  SAH549      0.3185
     17  N9       -12.4210  -25.6920   21.3260 N.pl3 549  SAH549     -0.1439
     18  C8       -13.4020  -24.7410   21.1430 C.3   549  SAH549      0.3377
     19  N7       -12.8500  -23.6870   20.4920 N.2   549  SAH549     -0.2095
     20  C5       -11.5420  -23.9420   20.2650 C.2   549  SAH549      0.2526
     21  C6       -10.5230  -23.2170   19.6250 C.2   549  SAH549      0.4393
     22  N6       -10.7440  -21.9910   19.0960 N.pl3 549  SAH549      0.2180
     23  N1        -9.2580  -23.7800   19.5430 N.2   549  SAH549      0.0021
     24  C2        -9.0030  -25.0240   20.0940 C.3   549  SAH549      0.5254
     25  N3       -10.0330  -25.7340   20.7030 N.2   549  SAH549     -0.0055
     26  C4       -11.2760  -25.2070   20.7790 C.2   549  SAH549      0.3518
@<TRIPOS>BOND
     1    22    21    1
     2     7     6   ar
     3     1     2    1
     4    23    21    2
     5    23    24    1
     6    21    20    1
     7    24    25    1
     8    20    19    2
     9    20    26    1
    10     6     2    1
    11     6     8   ar
    12    19    18    1
    13     2     3    1
    14    25    26    2
    15    26    17    1
    16     4     3    1
    17     4     5    1
    18    18    17    1
    19    11    10    1
    20    11    16    1
    21    17    16    1
    22     9    10    1
    23     9     5    1
    24    10    12    1
    25    16    14    1
    26    12    14    1
    27    12    13    1
    28    14    15    1
