@<TRIPOS>MOLECULE
2fyu_FDN_C_1.pdb
 23 25 0 0 0
SMALL
GASTEIGER

@<TRIPOS>ATOM
      1  F13       70.3530   56.8640  166.2340 F     400  FDN400     -0.2043
      2  C13       70.1120   57.6790  165.1930 C.ar  400  FDN400      0.1421
      3  C12       70.6960   57.3220  163.9570 C.ar  400  FDN400      0.0590
      4  C11       70.4680   58.1240  162.8110 C.ar  400  FDN400      0.1424
      5  F11       70.9800   57.7710  161.6220 F     400  FDN400     -0.2041
      6  C10       69.6480   59.2600  162.8890 C.ar  400  FDN400      0.0296
      7  C9        69.0960   59.6250  164.1260 C.ar  400  FDN400      0.0041
      8  C8        69.2590   58.8200  165.2930 C.ar  400  FDN400      0.0497
      9  C5        68.6710   59.2870  166.6370 C.3   400  FDN400      0.2279
     10  C7        67.6480   60.4300  166.5420 C.3   400  FDN400      0.0582
     11  O4        69.7420   59.7140  167.4850 O.3   400  FDN400     -0.4272
     12  C3        69.6960   58.9550  168.7120 C.2   400  FDN400      0.4293
     13  O3        70.4860   59.1470  169.6280 O.2   400  FDN400     -0.2240
     14  N2        68.6870   58.0820  168.6490 N.am  400  FDN400     -0.0974
     15  C6        68.0320   58.1930  167.4860 C.2   400  FDN400      0.2919
     16  O6        67.0690   57.5330  167.1350 O.2   400  FDN400     -0.2686
     17  N1        68.3270   57.2630  169.6430 N.pl3 400  FDN400     -0.1354
     18  C21       68.7750   55.9890  169.8250 C.ar  400  FDN400      0.0880
     19  C22       69.8770   55.4380  169.1160 C.ar  400  FDN400      0.0180
     20  C23       70.3500   54.1410  169.4120 C.ar  400  FDN400      0.0014
     21  C24       69.7210   53.3880  170.4350 C.ar  400  FDN400      0.0001
     22  C25       68.6220   53.9250  171.1550 C.ar  400  FDN400      0.0014
     23  C26       68.1640   55.2280  170.8510 C.ar  400  FDN400      0.0180
@<TRIPOS>BOND
     1     5     4    1
     2     4     6   ar
     3     4     3   ar
     4     6     7   ar
     5     3     2   ar
     6     7     8   ar
     7     2     8   ar
     8     2     1    1
     9     8     9    1
    10    10     9    1
    11     9    11    1
    12     9    15    1
    13    16    15    2
    14    11    12    1
    15    15    14   am
    16    14    12   am
    17    14    17    1
    18    12    13    2
    19    19    20   ar
    20    19    18   ar
    21    20    21   ar
    22    17    18    1
    23    18    23   ar
    24    21    22   ar
    25    23    22   ar
