@<TRIPOS>MOLECULE
2fyu_HEM_C_1.pdb
 43 50 0 0 0
SMALL
GASTEIGER

@<TRIPOS>ATOM
      1  CHA       68.3070   69.9320  167.9440 C.2   381  HEM381      0.0000
      2  CHB       70.5350   73.7230  165.7790 C.2   381  HEM381      0.0000
      3  CHC       69.4260   71.7740  161.4280 C.2   381  HEM381      0.0000
      4  CHD       67.7670   67.7100  163.6540 C.2   381  HEM381      0.0000
      5  C1A       68.8960   71.1610  167.6960 C.2   381  HEM381      0.0000
      6  C2A       69.2810   72.1260  168.7400 C.2   381  HEM381      0.0000
      7  C3A       69.8840   73.1780  168.1220 C.2   381  HEM381      0.0000
      8  C4A       69.8460   72.9270  166.6700 C.2   381  HEM381      0.0000
      9  CMA       70.3970   74.4360  168.8100 C.3   381  HEM381      0.0000
     10  CAA       69.1290   71.9760  170.2800 C.3   381  HEM381      0.0000
     11  CBA       67.7590   72.5060  170.7870 C.3   381  HEM381      0.0000
     12  CGA       66.7330   71.5230  170.7750 C.2   381  HEM381      0.0000
     13  O1A       66.9330   70.3060  171.0600 O.co2 381  HEM381      0.0000
     14  O2A       65.5570   71.9020  170.5900 O.co2 381  HEM381      0.0000
     15  C1B       70.4230   73.4870  164.4220 C.ar  381  HEM381      0.0000
     16  C2B       70.9400   74.4170  163.4310 C.ar  381  HEM381      0.0000
     17  C3B       70.6630   73.8520  162.2180 C.ar  381  HEM381      0.0000
     18  C4B       69.9560   72.5780  162.4410 C.ar  381  HEM381      0.0000
     19  CMB       71.6820   75.7330  163.6920 C.3   381  HEM381      0.0000
     20  CAB       70.8420   74.5350  160.8870 C.3   381  HEM381      0.0000
     21  CBB       72.3060   74.4690  160.4590 C.3   381  HEM381      0.0000
     22  C1C       69.1610   70.4310  161.6860 C.2   381  HEM381      0.0000
     23  C2C       68.8600   69.4600  160.6260 C.2   381  HEM381      0.0000
     24  C3C       68.3590   68.3640  161.2390 C.2   381  HEM381      0.0000
     25  C4C       68.2740   68.6520  162.6680 C.2   381  HEM381      0.0000
     26  CMC       69.0970   69.5830  159.1280 C.3   381  HEM381      0.0000
     27  CAC       68.0860   67.0260  160.5760 C.3   381  HEM381      0.0000
     28  CBC       66.6490   67.0110  160.0490 C.3   381  HEM381      0.0000
     29  C1D       67.5580   68.1220  164.9740 C.ar  381  HEM381      0.0000
     30  C2D       67.0100   67.2490  166.0060 C.ar  381  HEM381      0.0000
     31  C3D       67.1890   67.8820  167.1960 C.ar  381  HEM381      0.0000
     32  C4D       67.8430   69.1020  166.9330 C.ar  381  HEM381      0.0000
     33  CMD       66.3710   65.8840  165.8050 C.3   381  HEM381      0.0000
     34  CAD       66.6330   67.4110  168.5610 C.3   381  HEM381      0.0000
     35  CBD       65.2660   68.1200  168.8040 C.3   381  HEM381      0.0000
     36  CGD       64.7100   67.7450  170.0410 C.2   381  HEM381      0.0000
     37  O1D       64.0710   66.6750  170.1300 O.co2 381  HEM381      0.0000
     38  O2D       64.7410   68.5410  171.0030 O.co2 381  HEM381      0.0000
     39  NA        69.4060   71.6350  166.5090 N.2   381  HEM381      0.0000
     40  NB        69.7720   72.4210  163.7990 N.ar  381  HEM381      0.0000
     41  NC        68.5860   69.9810  162.8770 N.2   381  HEM381      0.0000
     42  ND        68.2250   69.1430  165.6120 N.ar  381  HEM381      0.0000
     43 FE         68.9810   70.7860  164.7000 Fe    381  HEM381      0.0000
@<TRIPOS>BOND
     1    26    23    1
     2    28    27    1
     3    21    20    1
     4    27    24    1
     5    23    24    2
     6    23    22    1
     7    20    17    1
     8    24    25    1
     9     3    22    2
    10     3    18    1
    11    22    41    1
    12    17    18   ar
    13    17    16   ar
    14    18    40   ar
    15    25    41    2
    16    25     4    1
    17    41    43    1
    18    16    19    1
    19    16    15   ar
    20     4    29    2
    21    40    15   ar
    22    40    43    1
    23    15     2    1
    24    43    42    1
    25    43    39    1
    26    29    42   ar
    27    29    30   ar
    28    42    32   ar
    29     2     8    2
    30    33    30    1
    31    30    31   ar
    32    39     8    1
    33    39     5    2
    34     8     7    1
    35    32    31   ar
    36    32     1    2
    37    31    34    1
    38     5     1    1
    39     5     6    1
    40     7     6    2
    41     7     9    1
    42    34    35    1
    43     6    10    1
    44    35    36    1
    45    36    37   ar
    46    36    38   ar
    47    10    11    1
    48    14    12   ar
    49    12    11    1
    50    12    13   ar
