@<TRIPOS>MOLECULE
2fyv_W72_A_1.pdb
 21 21 0 0 0
SMALL
GASTEIGER

@<TRIPOS>ATOM
      1  C1        31.5140   66.2070    7.1750 C.3   2000  W722000     0.2005
      2  O1        31.6230   67.1410    6.1300 O.3   2000  W722000    -0.2188
      3  C2        32.5920   66.0980    8.2440 C.3   2000  W722000     0.1994
      4  O2        33.8250   65.4390    8.0020 O.3   2000  W722000    -0.2189
      5  C3        31.9480   65.5570    9.5040 C.3   2000  W722000     0.1082
      6  N4        30.5800   65.0330    9.1330 N.3   2000  W722000    -0.2651
      7  C5        30.3020   66.0380    8.0800 C.3   2000  W722000     0.1242
      8  C6        29.0140   65.9060    7.2820 C.3   2000  W722000     0.2006
      9  O6        27.8510   65.9350    8.0890 O.3   2000  W722000    -0.2188
     10  C7        29.7210   65.3550   10.3330 C.3   2000  W722000     0.1083
     11  C8        30.0090   64.1550   11.2320 C.3   2000  W722000     0.2006
     12  O8        29.7750   62.9510   10.5020 O.3   2000  W722000    -0.2188
     13  C9        29.2540   64.0490   12.5610 C.3   2000  W722000     0.2167
     14  O9        29.1600   65.3380   13.1660 O.3   2000  W722000    -0.2175
     15  C10       27.8750   63.3860   12.3810 C.3   2000  W722000     0.2260
     16  O10       27.0690   64.4690   11.9180 O.3   2000  W722000    -0.2169
     17  C11       27.0410   62.7060   13.4730 C.3   2000  W722000     0.2865
     18  O11       25.6600   62.6430   13.1080 O.3   2000  W722000    -0.2080
     19  C12       27.2300   63.4410   14.8140 C.2   2000  W722000     0.3973
     20  O12       26.3060   64.3510   15.3680 O.co2 2000  W722000    -0.2427
     21  O13       28.3560   63.2350   15.2990 O.co2 2000  W722000    -0.2427
@<TRIPOS>BOND
     1     2     1    1
     2     1     7    1
     3     1     3    1
     4     8     7    1
     5     8     9    1
     6     4     3    1
     7     7     6    1
     8     3     5    1
     9     6     5    1
    10     6    10    1
    11    10    11    1
    12    12    11    1
    13    11    13    1
    14    16    15    1
    15    15    13    1
    16    15    17    1
    17    13    14    1
    18    18    17    1
    19    17    19    1
    20    19    21   ar
    21    19    20   ar
