@<TRIPOS>MOLECULE
2fyy_III_C_1.pdb
 28 29 0 0 0
SMALL
GASTEIGER

@<TRIPOS>ATOM
      1  N         12.3620   14.4780   18.5550 N.3     1  HIS1       -0.1227
      2  CA        13.4080   13.9140   17.6570 C.3     1  HIS1        0.1734
      3  C         14.7810   14.2740   18.2150 C.2     1  HIS1        0.2438
      4  O         15.0220   15.4330   18.5560 O.2     1  HIS1       -0.2733
      5  CB        13.2450   14.4760   16.2450 C.3     1  HIS1        0.0718
      6  CG        13.9630   13.6970   15.1850 C.2     1  HIS1        0.0650
      7  ND1       15.3360   13.6900   15.0620 N.2     1  HIS1       -0.2310
      8  CD2       13.4920   12.9210   14.1800 C.3     1  HIS1        0.1683
      9  CE1       15.6800   12.9330   14.0360 C.2     1  HIS1        0.1939
     10  NE2       14.5800   12.4550   13.4830 N.2     1  HIS1       -0.2440
     11  N         15.6860   13.2810   18.3160 N.am    2  PRO2       -0.2718
     12  CA        17.0240   13.5310   18.8500 C.3     2  PRO2        0.1535
     13  C         17.8880   14.3550   17.8980 C.2     2  PRO2        0.2598
     14  O         17.5780   14.4520   16.7080 O.2     2  PRO2       -0.2715
     15  CB        17.6090   12.1220   18.9950 C.3     2  PRO2        0.0310
     16  CG        16.9030   11.3190   17.9630 C.3     2  PRO2        0.0237
     17  CD        15.5040   11.8660   17.9400 C.3     2  PRO2        0.0939
     18  N         18.9530   14.9480   18.4300 N.am    3  VAL3       -0.1964
     19  CA        19.9410   15.6370   17.6050 C.3     3  VAL3        0.1727
     20  C         20.8250   14.5990   16.9090 C.2     3  VAL3        0.2616
     21  O         21.1060   13.5340   17.4670 O.2     3  VAL3       -0.2715
     22  CB        20.7790   16.6600   18.4340 C.3     3  VAL3        0.0290
     23  CG1       21.6680   15.9610   19.4640 C.3     3  VAL3        0.0023
     24  CG2       21.6020   17.5660   17.5200 C.3     3  VAL3        0.0023
     25  N         21.2360   14.9040   15.6820 N.am    4  GLY4       -0.1955
     26  CA        22.1160   14.0220   14.9220 C.3     4  GLY4        0.1869
     27  C         23.5760   14.3720   15.1280 C.2     4  GLY4        0.2309
     28  O         23.9480   15.5450   15.1000 O.2     4  GLY4       -0.2863
@<TRIPOS>BOND
     1    10     9    2
     2    10     8    1
     3     9     7    1
     4     8     6    1
     5    26    27    1
     6    26    25    1
     7     7     6    2
     8    28    27    2
     9     6     5    1
    10    25    20   am
    11     5     2    1
    12    14    13    2
    13    20    21    2
    14    20    19    1
    15    24    22    1
    16    19    18    1
    17    19    22    1
    18     2     3    1
    19     2     1    1
    20    13    18   am
    21    13    12    1
    22    17    16    1
    23    17    11    1
    24    16    15    1
    25     3    11   am
    26     3     4    2
    27    11    12    1
    28    22    23    1
    29    12    15    1
