@<TRIPOS>MOLECULE
2fz5_FNR_A_1.pdb
 37 39 0 0 0
SMALL
GASTEIGER

@<TRIPOS>ATOM
      1  C9A       13.4870  -31.7980    6.7520 C.ar  138  FNR138      0.0663
      2  N10       12.4900  -31.5840    5.7460 N.pl3 138  FNR138     -0.2600
      3  CAA       12.4820  -32.3820    4.5790 C.2   138  FNR138      0.2051
      4  N1        11.5320  -32.1410    3.6310 N.2   138  FNR138     -0.3078
      5  C2        11.4480  -32.8910    2.5410 C.1   138  FNR138      0.2721
      6  O2        10.5850  -32.6330    1.7000 O.2   138  FNR138     -0.1928
      7  N3        12.3160  -33.9260    2.3140 N.am  138  FNR138     -0.1996
      8  C4        13.3230  -34.2160    3.2590 C.2   138  FNR138      0.2622
      9  O4        14.0450  -35.1700    3.1020 O.2   138  FNR138     -0.2718
     10  C4A       13.3960  -33.4070    4.4240 C.3   138  FNR138      0.2165
     11  N5        14.3880  -33.6540    5.4050 N.pl3 138  FNR138     -0.3194
     12  C5A       14.4380  -32.8310    6.5520 C.ar  138  FNR138      0.0588
     13  C6        15.4600  -33.0860    7.4760 C.ar  138  FNR138      0.0110
     14  C7        15.5250  -32.2990    8.6360 C.ar  138  FNR138     -0.0245
     15  C7M       16.6630  -32.6380    9.6100 C.3   138  FNR138      0.0307
     16  C8        14.5740  -31.2630    8.8600 C.ar  138  FNR138     -0.0245
     17  C8M       14.5900  -30.3450   10.0970 C.3   138  FNR138      0.0307
     18  C9        13.5590  -31.0120    7.9240 C.ar  138  FNR138      0.0116
     19  C1'       11.3980  -30.6000    5.9380 C.3   138  FNR138      0.1294
     20  C2'       10.2320  -31.1520    6.7610 C.3   138  FNR138      0.1597
     21  O2'        9.6250  -32.2780    6.1030 O.3   138  FNR138     -0.3801
     22  C3'        9.2080  -30.0510    7.0060 C.3   138  FNR138      0.1681
     23  O3'        9.8610  -28.8330    7.4210 O.3   138  FNR138     -0.3795
     24  C4'        8.1590  -30.4820    8.0430 C.3   138  FNR138      0.1696
     25  O4'        7.0180  -29.6320    7.9030 O.3   138  FNR138     -0.3794
     26  C5'        8.6750  -30.4480    9.4840 C.3   138  FNR138      0.1807
     27  O5'        9.4780  -31.5970    9.7430 O.3   138  FNR138     -0.3115
     28  P         10.0330  -31.8450   11.2130 P.3   138  FNR138      0.2107
     29  O1P       11.0090  -30.5910   11.3330 O.3   138  FNR138     -0.3436
     30  O2P       10.8040  -33.1000   11.2060 O.2   138  FNR138     -0.5173
     31  O3P        8.9150  -31.6730   12.1830 O.3   138  FNR138     -0.4374
     32  H3        12.1920  -34.4840    1.5040 H     138  FNR138      0.1690
     33  H5        15.1750  -34.2230    5.1800 H     138  FNR138      0.1476
     34  H2'       10.2240  -33.0740    6.2280 H     138  FNR138      0.2105
     35  H3'        9.3380  -28.0390    7.0850 H     138  FNR138      0.2105
     36  H4'        7.3760  -28.7090    7.7680 H     138  FNR138      0.2105
     37  H1        10.4240  -29.7800   11.3960 H     138  FNR138      0.2176
@<TRIPOS>BOND
     1    32     7    1
     2     6     5    2
     3     7     5   am
     4     7     8   am
     5     5     4    2
     6     9     8    2
     7     8    10    1
     8     4     3    2
     9    10     3    1
    10    10    11    1
    11     3     2    1
    12    33    11    1
    13    11    12    1
    14     2    19    1
    15     2     1    1
    16    19    20    1
    17    21    34    1
    18    21    20    1
    19    12     1   ar
    20    12    13   ar
    21     1    18   ar
    22    20    22    1
    23    22    23    1
    24    22    24    1
    25    35    23    1
    26    13    14   ar
    27    36    25    1
    28    25    24    1
    29    18    16   ar
    30    24    26    1
    31    14    16   ar
    32    14    15    1
    33    16    17    1
    34    26    27    1
    35    27    28    1
    36    30    28    2
    37    28    29    1
    38    28    31    1
    39    29    37    1
