@<TRIPOS>MOLECULE
2fz8_ZST_A_1.pdb
 29 32 0 0 0
SMALL
GASTEIGER

@<TRIPOS>ATOM
      1  C1        17.7120   -9.0200   15.0630 C.ar  600  ZST600      0.2767
      2  O1        18.0940   -9.6460   14.0480 O.2   600  ZST600     -0.2655
      3  C2        16.7340   -9.5890   15.9770 C.ar  600  ZST600      0.0588
      4  C3        16.3090   -8.8800   17.0860 C.ar  600  ZST600      0.0204
      5  C4        16.8710   -7.5580   17.2480 C.ar  600  ZST600      0.0902
      6  C5        16.2870  -10.8860   15.6660 C.ar  600  ZST600      0.0048
      7  C6        15.3610  -11.4340   16.5530 C.ar  600  ZST600      0.0002
      8  C7        14.9480  -10.7080   17.6570 C.ar  600  ZST600      0.0000
      9  C8        15.3660   -9.4410   17.9880 C.ar  600  ZST600      0.0014
     10  N1        18.1220   -7.7220   15.3560 N.ar  600  ZST600     -0.2091
     11  N2        17.7060   -6.9800   16.4760 N.ar  600  ZST600     -0.1702
     12  C9        19.0850   -7.0420   14.4880 C.3   600  ZST600      0.1956
     13  C10       18.0430   -6.3000   13.5220 C.2   600  ZST600      0.1594
     14  C11       16.0240   -5.5010   12.2420 C.3   600  ZST600      0.1279
     15  C12       17.2270   -4.8650   11.9460 C.2   600  ZST600      0.1234
     16  C13       14.8010   -5.1700   11.6260 C.2   600  ZST600     -0.0083
     17  C14       14.8350   -4.1730   10.6990 C.2   600  ZST600      0.0006
     18  C15       16.0160   -3.5240   10.3830 C.2   600  ZST600      0.0734
     19  C16       17.2300   -3.8360   10.9820 C.2   600  ZST600      0.0326
     20  N3        18.3140   -5.3370   12.6800 N.2   600  ZST600     -0.4012
     21  S1        16.2880   -6.6870   13.4460 S.3   600  ZST600     -0.0740
     22  C17       16.5010   -6.7720   18.4780 C.3   600  ZST600      0.1613
     23  C18       15.2010   -6.0420   18.2090 C.2   600  ZST600      0.3709
     24  O2        14.7320   -5.9880   17.0450 O.co2 600  ZST600     -0.2452
     25  O3        14.6030   -5.5460   19.1610 O.co2 600  ZST600     -0.2452
     26  C19       15.9910   -2.4200    9.3560 C.3   600  ZST600      0.4186
     27  F1        15.0600   -1.5100    9.7720 F     600  ZST600     -0.1659
     28  F2        15.6950   -2.7250    8.1370 F     600  ZST600     -0.1659
     29  F3        17.0920   -1.6720    9.4350 F     600  ZST600     -0.1659
@<TRIPOS>BOND
     1    28    26    1
     2    26    29    1
     3    26    27    1
     4    26    18    1
     5    18    17    1
     6    18    19    2
     7    17    16    2
     8    19    15    1
     9    16    14    1
    10    15    14    1
    11    15    20    2
    12    14    21    1
    13    20    13    2
    14    21    13    1
    15    13    12    1
    16     2     1    2
    17    12    10    1
    18     1    10   ar
    19     1     3   ar
    20    10    11   ar
    21     6     3   ar
    22     6     7   ar
    23     3     4   ar
    24    11     5   ar
    25     7     8   ar
    26    24    23   ar
    27     4     5   ar
    28     4     9   ar
    29     5    22    1
    30     8     9   ar
    31    23    22    1
    32    23    25   ar
