@<TRIPOS>MOLECULE
2fz8_NAP_A_1.pdb
 48 52 0 0 0
SMALL
GASTEIGER

@<TRIPOS>ATOM
      1  PA        22.3140   -4.9800   26.9590 P.3   500  NAP500      0.2189
      2  O1A       23.2540   -3.9560   26.5080 O.2   500  NAP500     -0.5170
      3  O2A       21.2370   -4.6820   27.9340 O.3   500  NAP500     -0.4371
      4  O5B       23.2430   -6.1860   27.5320 O.3   500  NAP500     -0.3112
      5  C5B       22.5900   -7.3640   27.9750 C.3   500  NAP500      0.1813
      6  C4B       23.7750   -8.3150   28.3120 C.3   500  NAP500      0.1820
      7  O4B       24.5060   -7.7290   29.4240 O.3   500  NAP500     -0.3136
      8  C3B       23.3440   -9.7440   28.7310 C.3   500  NAP500      0.2157
      9  O3B       24.3520  -10.6210   28.2670 O.3   500  NAP500     -0.2175
     10  C2B       23.4840   -9.5770   30.2800 C.3   500  NAP500      0.2314
     11  O2B       23.7880  -10.8560   30.8560 O.3   500  NAP500     -0.2630
     12  C1B       24.6780   -8.6510   30.4670 C.3   500  NAP500      0.3158
     13  N9A       24.6150   -7.9310   31.6690 N.pl3 500  NAP500     -0.1439
     14  C8A       23.5280   -7.3090   32.2750 C.3   500  NAP500      0.3377
     15  N7A       23.7730   -6.6920   33.3810 N.2   500  NAP500     -0.2095
     16  C5A       25.1410   -6.8930   33.5550 C.2   500  NAP500      0.2526
     17  C6A       25.9270   -6.4430   34.6180 C.2   500  NAP500      0.4393
     18  N6A       25.5680   -5.7100   35.6690 N.pl3 500  NAP500      0.2180
     19  N1A       27.2650   -6.8030   34.5240 N.2   500  NAP500      0.0021
     20  C2A       27.7640   -7.5600   33.4860 C.3   500  NAP500      0.5254
     21  N3A       26.9620   -8.0020   32.4340 N.2   500  NAP500     -0.0055
     22  C4A       25.6230   -7.6410   32.5300 C.2   500  NAP500      0.3518
     23  O3        21.6960   -5.6720   25.6670 O.3   500  NAP500     -0.2703
     24  PN        20.3130   -5.7610   24.8740 P.3   500  NAP500      0.2189
     25  O1N       19.5230   -6.8900   25.3840 O.3   500  NAP500     -0.4371
     26  O2N       20.6350   -5.7260   23.4260 O.2   500  NAP500     -0.5170
     27  O5D       19.5850   -4.3570   25.1630 O.3   500  NAP500     -0.3112
     28  C5D       18.7370   -4.0400   26.3140 C.3   500  NAP500      0.1813
     29  C4D       17.2840   -4.2060   25.9060 C.3   500  NAP500      0.1799
     30  O4D       16.9070   -3.2070   24.9000 O.3   500  NAP500     -0.3327
     31  C3D       16.8340   -5.4960   25.1400 C.3   500  NAP500      0.2158
     32  O3D       16.8550   -6.6410   25.9310 O.3   500  NAP500     -0.2175
     33  C2D       15.5070   -5.0880   24.5000 C.3   500  NAP500      0.2309
     34  O2D       14.5540   -5.0310   25.5660 O.3   500  NAP500     -0.2158
     35  C1D       15.8450   -3.6800   24.0490 C.3   500  NAP500      0.2263
     36  N1N       16.2820   -3.5760   22.6240 N.pl3 500  NAP500     -0.2787
     37  C2N       15.4120   -3.0060   21.7200 C.3   500  NAP500      0.1244
     38  C3N       15.7650   -3.0180   20.3740 C.2   500  NAP500      0.0544
     39  C7N       14.8200   -2.3840   19.3370 C.2   500  NAP500      0.2818
     40  O7N       15.1040   -2.5980   18.1660 O.2   500  NAP500     -0.2670
     41  N7N       13.9840   -1.5130   19.8630 N.am  500  NAP500     -0.0839
     42  C4N       16.9840   -3.5990   19.9400 C.2   500  NAP500      0.0033
     43  C5N       17.8610   -4.1870   20.8910 C.2   500  NAP500      0.0157
     44  C6N       17.5220   -4.1610   22.2500 C.2   500  NAP500      0.0633
     45  P2B       22.6870  -11.7630   31.7100 P.3   500  NAP500      0.5328
     46  O1X       22.8910  -11.2530   33.1480 O.3   500  NAP500     -0.1145
     47  O2X       21.3770  -11.5470   31.0780 O.2   500  NAP500     -0.2224
     48  O3X       23.3190  -13.1540   31.5130 O.3   500  NAP500     -0.1145
@<TRIPOS>BOND
     1    40    39    2
     2    39    41   am
     3    39    38    1
     4    42    38    2
     5    42    43    1
     6    38    37    1
     7    43    44    2
     8    37    36    1
     9    44    36    1
    10    36    35    1
    11    26    24    2
    12    35    33    1
    13    35    30    1
    14    33    31    1
    15    33    34    1
    16    24    27    1
    17    24    25    1
    18    24    23    1
    19    30    29    1
    20    31    29    1
    21    31    32    1
    22    27    28    1
    23    23     1    1
    24    29    28    1
    25     2     1    2
    26     1     4    1
    27     1     3    1
    28     4     5    1
    29     5     6    1
    30     9     8    1
    31     6     8    1
    32     6     7    1
    33     8    10    1
    34     7    12    1
    35    10    12    1
    36    10    11    1
    37    12    13    1
    38    11    45    1
    39    47    45    2
    40    48    45    1
    41    13    14    1
    42    13    22    1
    43    45    46    1
    44    14    15    1
    45    21    22    2
    46    21    20    1
    47    22    16    1
    48    15    16    2
    49    20    19    1
    50    16    17    1
    51    19    17    2
    52    17    18    1
