@<TRIPOS>MOLECULE
2fz9_NAP_A_1.pdb
 48 52 0 0 0
SMALL
GASTEIGER

@<TRIPOS>ATOM
      1  PA        22.5280   -4.8780   26.9740 P.3   500  NAP500      0.2189
      2  O1A       23.4220   -3.8470   26.4440 O.2   500  NAP500     -0.5170
      3  O2A       21.5340   -4.5430   27.9830 O.3   500  NAP500     -0.4371
      4  O5B       23.4650   -6.1090   27.4290 O.3   500  NAP500     -0.3112
      5  C5B       22.9050   -7.2940   27.9580 C.3   500  NAP500      0.1813
      6  C4B       24.1420   -8.2160   28.2470 C.3   500  NAP500      0.1820
      7  O4B       24.8470   -7.6720   29.3920 O.3   500  NAP500     -0.3136
      8  C3B       23.6760   -9.6210   28.7410 C.3   500  NAP500      0.2157
      9  O3B       24.6240  -10.5720   28.2850 O.3   500  NAP500     -0.2175
     10  C2B       23.7730   -9.4810   30.3050 C.3   500  NAP500      0.2314
     11  O2B       24.0510  -10.7610   30.8890 O.3   500  NAP500     -0.2630
     12  C1B       24.9420   -8.5410   30.4930 C.3   500  NAP500      0.3158
     13  N9A       24.8450   -7.7570   31.6950 N.pl3 500  NAP500     -0.1439
     14  C8A       23.7830   -7.1200   32.3000 C.3   500  NAP500      0.3377
     15  N7A       24.0700   -6.5280   33.4310 N.2   500  NAP500     -0.2095
     16  C5A       25.4160   -6.7860   33.5810 C.2   500  NAP500      0.2526
     17  C6A       26.2470   -6.3950   34.6460 C.2   500  NAP500      0.4393
     18  N6A       25.8810   -5.6670   35.6970 N.pl3 500  NAP500      0.2180
     19  N1A       27.5690   -6.8030   34.5280 N.2   500  NAP500      0.0021
     20  C2A       28.0200   -7.5540   33.4460 C.3   500  NAP500      0.5254
     21  N3A       27.2030   -7.9520   32.4240 N.2   500  NAP500     -0.0055
     22  C4A       25.8750   -7.5280   32.5380 C.2   500  NAP500      0.3518
     23  O3        21.9130   -5.5770   25.6640 O.3   500  NAP500     -0.2703
     24  PN        20.5440   -5.6480   24.8800 P.3   500  NAP500      0.2189
     25  O1N       19.7170   -6.7930   25.3550 O.3   500  NAP500     -0.4371
     26  O2N       20.8680   -5.6310   23.4030 O.2   500  NAP500     -0.5170
     27  O5D       19.8000   -4.2540   25.0970 O.3   500  NAP500     -0.3112
     28  C5D       18.9950   -4.0290   26.3090 C.3   500  NAP500      0.1813
     29  C4D       17.5240   -4.0960   25.8640 C.3   500  NAP500      0.1799
     30  O4D       17.2240   -3.0910   24.8360 O.3   500  NAP500     -0.3327
     31  C3D       17.0710   -5.3970   25.1340 C.3   500  NAP500      0.2158
     32  O3D       16.9900   -6.5190   25.9450 O.3   500  NAP500     -0.2175
     33  C2D       15.7650   -4.9130   24.5020 C.3   500  NAP500      0.2309
     34  O2D       14.8090   -4.8760   25.5640 O.3   500  NAP500     -0.2158
     35  C1D       16.1180   -3.5250   24.0290 C.3   500  NAP500      0.2263
     36  N1N       16.5680   -3.4960   22.5730 N.pl3 500  NAP500     -0.2787
     37  C2N       15.6770   -2.9240   21.6920 C.3   500  NAP500      0.1244
     38  C3N       16.0550   -2.9600   20.3440 C.2   500  NAP500      0.0544
     39  C7N       15.0890   -2.3270   19.3300 C.2   500  NAP500      0.2818
     40  O7N       15.3680   -2.5110   18.1590 O.2   500  NAP500     -0.2670
     41  N7N       14.2620   -1.4440   19.8060 N.am  500  NAP500     -0.0839
     42  C4N       17.2620   -3.5450   19.8950 C.2   500  NAP500      0.0033
     43  C5N       18.1590   -4.1200   20.8440 C.2   500  NAP500      0.0157
     44  C6N       17.8020   -4.0900   22.2180 C.2   500  NAP500      0.0633
     45  P2B       22.9600  -11.6770   31.7130 P.3   500  NAP500      0.5328
     46  O1X       23.0840  -11.2390   33.2100 O.3   500  NAP500     -0.1145
     47  O2X       21.6200  -11.4410   31.1410 O.2   500  NAP500     -0.2224
     48  O3X       23.5630  -13.0840   31.5160 O.3   500  NAP500     -0.1145
@<TRIPOS>BOND
     1    40    39    2
     2    39    41   am
     3    39    38    1
     4    42    38    2
     5    42    43    1
     6    38    37    1
     7    43    44    2
     8    37    36    1
     9    44    36    1
    10    36    35    1
    11    26    24    2
    12    35    33    1
    13    35    30    1
    14    33    31    1
    15    33    34    1
    16    30    29    1
    17    24    27    1
    18    24    25    1
    19    24    23    1
    20    27    28    1
    21    31    29    1
    22    31    32    1
    23    23     1    1
    24    29    28    1
    25     2     1    2
    26     1     4    1
    27     1     3    1
    28     4     5    1
    29     5     6    1
    30     6     8    1
    31     6     7    1
    32     9     8    1
    33     8    10    1
    34     7    12    1
    35    10    12    1
    36    10    11    1
    37    12    13    1
    38    11    45    1
    39    47    45    2
    40    48    45    1
    41    13    14    1
    42    13    22    1
    43    45    46    1
    44    14    15    1
    45    21    22    2
    46    21    20    1
    47    22    16    1
    48    15    16    2
    49    20    19    1
    50    16    17    1
    51    19    17    2
    52    17    18    1
