@<TRIPOS>MOLECULE
2fz9_ZST_A_1.pdb
 29 32 0 0 0
SMALL
GASTEIGER

@<TRIPOS>ATOM
      1  C1        17.7100   -9.0460   15.0350 C.ar  600  ZST600      0.2767
      2  O1        18.0160   -9.7010   14.0270 O.2   600  ZST600     -0.2655
      3  C2        16.7730   -9.5870   15.9810 C.ar  600  ZST600      0.0588
      4  C3        16.4150   -8.8340   17.0960 C.ar  600  ZST600      0.0204
      5  C4        16.9980   -7.5230   17.2500 C.ar  600  ZST600      0.0902
      6  C5        16.2560  -10.8790   15.7580 C.ar  600  ZST600      0.0048
      7  C6        15.3730  -11.3790   16.6830 C.ar  600  ZST600      0.0002
      8  C7        15.0180  -10.6340   17.7860 C.ar  600  ZST600      0.0000
      9  C8        15.5150   -9.3940   18.0070 C.ar  600  ZST600      0.0014
     10  N1        18.1550   -7.7800   15.3130 N.ar  600  ZST600     -0.2091
     11  N2        17.8150   -7.0090   16.4140 N.ar  600  ZST600     -0.1702
     12  C9        19.0970   -7.0250   14.4890 C.3   600  ZST600      0.1956
     13  C10       18.1390   -6.2820   13.5000 C.2   600  ZST600      0.1594
     14  C11       16.2120   -5.4370   12.1660 C.3   600  ZST600      0.1279
     15  C12       17.4400   -4.8640   11.8760 C.2   600  ZST600      0.1234
     16  C13       14.9950   -5.1110   11.5320 C.2   600  ZST600     -0.0083
     17  C14       15.0800   -4.1440   10.5720 C.2   600  ZST600      0.0006
     18  C15       16.2850   -3.5590   10.2620 C.2   600  ZST600      0.0734
     19  C16       17.4850   -3.8780   10.8770 C.2   600  ZST600      0.0326
     20  N3        18.5110   -5.3630   12.6490 N.2   600  ZST600     -0.4012
     21  S1        16.4190   -6.5950   13.4040 S.3   600  ZST600     -0.0740
     22  C17       16.6980   -6.6420   18.4320 C.3   600  ZST600      0.1613
     23  C18       15.3590   -6.0000   18.2510 C.2   600  ZST600      0.3709
     24  O2        14.9770   -5.8420   17.0540 O.co2 600  ZST600     -0.2452
     25  O3        14.7890   -5.4800   19.2320 O.co2 600  ZST600     -0.2452
     26  C19       16.2520   -2.5040    9.1880 C.3   600  ZST600      0.4186
     27  F1        15.3570   -1.5590    9.5230 F     600  ZST600     -0.1659
     28  F2        15.9470   -2.8900    7.9830 F     600  ZST600     -0.1659
     29  F3        17.3810   -1.8170    9.1190 F     600  ZST600     -0.1659
@<TRIPOS>BOND
     1    28    26    1
     2    29    26    1
     3    26    27    1
     4    26    18    1
     5    18    17    1
     6    18    19    2
     7    17    16    2
     8    19    15    1
     9    16    14    1
    10    15    14    1
    11    15    20    2
    12    14    21    1
    13    20    13    2
    14    21    13    1
    15    13    12    1
    16     2     1    2
    17    12    10    1
    18     1    10   ar
    19     1     3   ar
    20    10    11   ar
    21     6     3   ar
    22     6     7   ar
    23     3     4   ar
    24    11     5   ar
    25     7     8   ar
    26    24    23   ar
    27     4     5   ar
    28     4     9   ar
    29     5    22    1
    30     8     9   ar
    31    23    22    1
    32    23    25   ar
