@<TRIPOS>MOLECULE
2fzb_TOL_A_1.pdb
 24 25 0 0 0
SMALL
GASTEIGER

@<TRIPOS>ATOM
      1  C1        17.1500   -8.5990   12.8690 C.3   600  TOL600      0.4214
      2  F1        18.4690   -8.9080   12.8370 F     600  TOL600     -0.1657
      3  F2        16.9030   -7.6620   11.9070 F     600  TOL600     -0.1657
      4  F3        16.3480   -9.6350   12.5820 F     600  TOL600     -0.1657
      5  C2        16.8040   -8.0100   14.2470 C.ar  600  TOL600      0.1053
      6  C3        16.3100   -6.6840   14.4260 C.ar  600  TOL600      0.1426
      7  O1        16.1440   -5.9430   13.3520 O.3   600  TOL600     -0.4715
      8  C4        15.4890   -4.6820   13.6300 C.3   600  TOL600      0.2525
      9  C5        15.9950   -6.1680   15.7170 C.ar  600  TOL600      0.0368
     10  C6        16.2110   -7.0060   16.8310 C.ar  600  TOL600      0.0032
     11  C7        16.6780   -8.3120   16.6550 C.ar  600  TOL600      0.0019
     12  C8        16.8650   -9.0920   17.8170 C.ar  600  TOL600      0.0200
     13  C9        17.3510  -10.4220   17.7490 C.ar  600  TOL600      0.0018
     14  C10       17.6580  -10.9220   16.4660 C.ar  600  TOL600      0.0001
     15  C11       17.4910  -10.1460   15.3120 C.ar  600  TOL600      0.0001
     16  C12       16.9980   -8.8250   15.3870 C.ar  600  TOL600      0.0069
     17  C13       16.5010   -8.5170   19.1620 C.2   600  TOL600      0.0848
     18  S1        15.0310   -9.1890   19.7830 S.2   600  TOL600     -0.0347
     19  N1        17.2520   -7.7110   19.8920 N.am  600  TOL600     -0.2910
     20  C14       18.5030   -7.1310   19.3620 C.3   600  TOL600      0.1132
     21  C15       16.7480   -7.2470   21.1880 C.3   600  TOL600      0.2069
     22  C16       15.7690   -6.0560   21.0170 C.2   600  TOL600      0.3847
     23  O2        15.1710   -5.6220   21.9890 O.co2 600  TOL600     -0.2437
     24  O3        15.6560   -5.5870   19.7760 O.co2 600  TOL600     -0.2437
@<TRIPOS>BOND
     1     3     1    1
     2     4     1    1
     3     2     1    1
     4     1     5    1
     5     7     8    1
     6     7     6    1
     7     5     6   ar
     8     5    16   ar
     9     6     9   ar
    10    15    16   ar
    11    15    14   ar
    12    16    11   ar
    13     9    10   ar
    14    14    13   ar
    15    11    10   ar
    16    11    12   ar
    17    13    12   ar
    18    12    17    1
    19    17    18    2
    20    17    19    1
    21    20    19    1
    22    24    22   ar
    23    19    21    1
    24    22    21    1
    25    22    23   ar
