@<TRIPOS>MOLECULE
2fzb_NAP_A_1.pdb
 48 52 0 0 0
SMALL
GASTEIGER

@<TRIPOS>ATOM
      1  PA        22.8290   -5.3490   29.6540 P.3   500  NAP500      0.2189
      2  O1A       23.7990   -4.3160   29.1580 O.2   500  NAP500     -0.5170
      3  O2A       21.8300   -5.0450   30.6680 O.3   500  NAP500     -0.4371
      4  O5B       23.7740   -6.5730   30.1300 O.3   500  NAP500     -0.3112
      5  C5B       23.1500   -7.8040   30.5620 C.3   500  NAP500      0.1813
      6  C4B       24.2680   -8.7780   30.8640 C.3   500  NAP500      0.1820
      7  O4B       25.0810   -8.2530   31.9600 O.3   500  NAP500     -0.3136
      8  C3B       23.8890  -10.2220   31.2330 C.3   500  NAP500      0.2157
      9  O3B       24.9810  -11.0470   30.7340 O.3   500  NAP500     -0.2175
     10  C2B       23.8810  -10.1670   32.7340 C.3   500  NAP500      0.2314
     11  O2B       24.1330  -11.4880   33.2960 O.3   500  NAP500     -0.2630
     12  C1B       25.1260   -9.2890   32.9670 C.3   500  NAP500      0.3158
     13  N9A       25.1080   -8.5990   34.2880 N.pl3 500  NAP500     -0.1439
     14  C8A       24.0360   -7.9160   34.7890 C.3   500  NAP500      0.3377
     15  N7A       24.3260   -7.3090   35.9580 N.2   500  NAP500     -0.2095
     16  C5A       25.6060   -7.6550   36.1430 C.2   500  NAP500      0.2526
     17  C6A       26.3930   -7.2690   37.2170 C.2   500  NAP500      0.4393
     18  N6A       26.0590   -6.5190   38.2640 N.pl3 500  NAP500      0.2180
     19  N1A       27.6550   -7.7750   37.1470 N.2   500  NAP500      0.0021
     20  C2A       28.1250   -8.5310   36.1550 C.3   500  NAP500      0.5254
     21  N3A       27.3850   -8.8970   35.1180 N.2   500  NAP500     -0.0055
     22  C4A       26.0900   -8.4400   35.1260 C.2   500  NAP500      0.3518
     23  O3        22.1970   -6.0020   28.3360 O.3   500  NAP500     -0.2703
     24  PN        20.8410   -6.0220   27.5110 P.3   500  NAP500      0.2189
     25  O1N       19.9750   -7.0840   28.0510 O.3   500  NAP500     -0.4371
     26  O2N       21.2180   -6.0220   26.0840 O.2   500  NAP500     -0.5170
     27  O5D       20.1470   -4.6130   27.8280 O.3   500  NAP500     -0.3112
     28  C5D       19.3180   -4.3450   28.9890 C.3   500  NAP500      0.1813
     29  C4D       17.8410   -4.3940   28.5750 C.3   500  NAP500      0.1799
     30  O4D       17.6300   -3.3530   27.5780 O.3   500  NAP500     -0.3327
     31  C3D       17.3930   -5.6570   27.8680 C.3   500  NAP500      0.2158
     32  O3D       17.2840   -6.8370   28.6570 O.3   500  NAP500     -0.2175
     33  C2D       16.1100   -5.1800   27.2330 C.3   500  NAP500      0.2309
     34  O2D       15.1010   -5.1890   28.2690 O.3   500  NAP500     -0.2158
     35  C1D       16.5110   -3.7710   26.7660 C.3   500  NAP500      0.2263
     36  N1N       16.9670   -3.7650   25.3420 N.pl3 500  NAP500     -0.2787
     37  C2N       16.0950   -3.1650   24.4150 C.3   500  NAP500      0.1244
     38  C3N       16.4770   -3.1860   23.0650 C.2   500  NAP500      0.0544
     39  C7N       15.5500   -2.5370   22.0220 C.2   500  NAP500      0.2818
     40  O7N       15.8900   -2.5800   20.8390 O.2   500  NAP500     -0.2670
     41  N7N       14.6170   -1.7290   22.5570 N.am  500  NAP500     -0.0839
     42  C4N       17.6650   -3.7870   22.6730 C.2   500  NAP500      0.0033
     43  C5N       18.5410   -4.3750   23.5920 C.2   500  NAP500      0.0157
     44  C6N       18.1720   -4.3580   24.9380 C.2   500  NAP500      0.0633
     45  P2B       23.0390  -12.4190   34.0210 P.3   500  NAP500      0.5328
     46  O1X       23.2540  -12.0590   35.4340 O.3   500  NAP500     -0.1145
     47  O2X       21.7060  -12.0670   33.4400 O.2   500  NAP500     -0.2224
     48  O3X       23.5130  -13.7770   33.6390 O.3   500  NAP500     -0.1145
@<TRIPOS>BOND
     1    40    39    2
     2    39    41   am
     3    39    38    1
     4    42    38    2
     5    42    43    1
     6    38    37    1
     7    43    44    2
     8    37    36    1
     9    44    36    1
    10    36    35    1
    11    26    24    2
    12    35    33    1
    13    35    30    1
    14    33    31    1
    15    33    34    1
    16    24    27    1
    17    24    25    1
    18    24    23    1
    19    30    29    1
    20    27    28    1
    21    31    29    1
    22    31    32    1
    23    23     1    1
    24    29    28    1
    25     2     1    2
    26     1     4    1
    27     1     3    1
    28     4     5    1
    29     5     6    1
    30     9     8    1
    31     6     8    1
    32     6     7    1
    33     8    10    1
    34     7    12    1
    35    10    12    1
    36    10    11    1
    37    12    13    1
    38    11    45    1
    39    47    45    2
    40    48    45    1
    41    45    46    1
    42    13    14    1
    43    13    22    1
    44    14    15    1
    45    21    22    2
    46    21    20    1
    47    22    16    1
    48    15    16    2
    49    16    17    1
    50    20    19    1
    51    19    17    2
    52    17    18    1
