@<TRIPOS>MOLECULE
2fzc_CTP_B_1.pdb
 29 30 0 0 0
SMALL
GASTEIGER

@<TRIPOS>ATOM
      1  N1        15.3000   84.3060   25.7230 N.am  901  CTP901     -0.1778
      2  C2        16.5560   84.9060   25.9000 C.1   901  CTP901      0.2756
      3  N3        16.8740   86.0470   25.1500 N.2   901  CTP901     -0.3024
      4  C4        15.9580   86.5780   24.2340 C.2   901  CTP901      0.2346
      5  C5        14.7090   85.9850   24.0710 C.2   901  CTP901      0.0687
      6  C6        14.3860   84.8560   24.8150 C.2   901  CTP901      0.0836
      7  O2        17.3700   84.4460   26.6940 O.2   901  CTP901     -0.1925
      8  N4        16.3010   87.6150   23.4750 N.pl3 901  CTP901     -0.0921
      9  C1'       14.9590   83.0510   26.4310 C.3   901  CTP901      0.2400
     10  C2'       14.0460   83.3270   27.6260 C.3   901  CTP901      0.2319
     11  O2'       14.8640   83.6340   28.7570 O.3   901  CTP901     -0.2157
     12  C3'       13.4010   81.9600   27.8510 C.3   901  CTP901      0.2158
     13  C4'       13.5570   81.2530   26.5020 C.3   901  CTP901      0.1799
     14  O4'       14.1380   82.2130   25.6060 O.3   901  CTP901     -0.3320
     15  O3'       14.1300   81.2470   28.8540 O.3   901  CTP901     -0.2175
     16  C5'       12.2080   80.7780   25.9560 C.3   901  CTP901      0.1813
     17  O5'       11.3130   81.8730   25.7340 O.3   901  CTP901     -0.3112
     18  PA        10.0220   81.6810   24.7910 P.3   901  CTP901      0.2189
     19  O1A       10.2060   80.3700   23.8770 O.3   901  CTP901     -0.4371
     20  O2A        9.9060   82.9640   23.8250 O.2   901  CTP901     -0.5170
     21  O3A        8.6700   81.5470   25.6600 O.3   901  CTP901     -0.2700
     22  PB         8.4390   80.3780   26.7460 P.3   901  CTP901      0.2277
     23  O1B        9.8270   80.2070   27.5440 O.2   901  CTP901     -0.5168
     24  O2B        7.3090   80.6410   27.6640 O.3   901  CTP901     -0.4368
     25  O3B        8.2330   78.9820   25.9700 O.3   901  CTP901     -0.2258
     26  PG         8.1830   77.6390   26.8570 P.3   901  CTP901      0.5373
     27  O1G        8.1190   76.4010   25.8310 O.2   901  CTP901     -0.2221
     28  O2G        9.6110   77.5390   27.5920 O.3   901  CTP901     -0.1143
     29  O3G        7.0690   77.6250   27.8320 O.3   901  CTP901     -0.1143
@<TRIPOS>BOND
     1     8     4    1
     2    20    18    2
     3    19    18    1
     4     5     4    1
     5     5     6    2
     6     4     3    2
     7    18    21    1
     8    18    17    1
     9     6     1    1
    10     3     2    2
    11    14     9    1
    12    14    13    1
    13    21    22    1
    14     1     2   am
    15     1     9    1
    16    17    16    1
    17    27    26    2
    18     2     7    2
    19    16    13    1
    20    25    22    1
    21    25    26    1
    22     9    10    1
    23    13    12    1
    24    22    23    2
    25    22    24    1
    26    26    28    1
    27    26    29    1
    28    10    12    1
    29    10    11    1
    30    12    15    1
