@<TRIPOS>MOLECULE
2fzc_EOP_A_1.pdb
 18 17 0 0 0
SMALL
GASTEIGER

@<TRIPOS>ATOM
      1  OAD       43.9000   28.8450   19.8860 O.3   811  EOP811     -0.3568
      2  PAR       45.0640   29.7360   19.2190 P.3   811  EOP811      0.1264
      3  OAH       44.9990   31.1810   19.9280 O.3   811  EOP811     -0.3568
      4  OAG       46.3990   29.1130   19.3640 O.2   811  EOP811     -0.4596
      5  CAL       44.6130   29.9730   17.4830 C.3   811  EOP811      0.1454
      6  CAP       43.1100   29.9490   17.1570 C.2   811  EOP811      0.2488
      7  OAB       42.5070   30.9910   16.9300 O.2   811  EOP811     -0.2728
      8  NAN       42.5660   28.7380   17.1040 N.am  811  EOP811     -0.2031
      9  CAJ       41.1560   28.4780   16.7570 C.3   811  EOP811      0.1385
     10  CAI       40.2370   28.4380   17.9790 C.3   811  EOP811      0.1385
     11  NAM       39.5550   29.7360   18.0740 N.am  811  EOP811     -0.2031
     12  CAO       39.3290   30.4010   19.2060 C.2   811  EOP811      0.2488
     13  OAA       38.8590   31.5390   19.2290 O.2   811  EOP811     -0.2728
     14  CAK       39.8080   29.7370   20.4980 C.3   811  EOP811      0.1454
     15  PAQ       41.4480   30.3720   20.9160 P.3   811  EOP811      0.1264
     16  OAF       41.1920   31.5600   21.9730 O.3   811  EOP811     -0.3568
     17  OAE       42.0120   31.0590   19.5720 O.2   811  EOP811     -0.4596
     18  OAC       42.3530   29.3250   21.4400 O.3   811  EOP811     -0.3568
@<TRIPOS>BOND
     1     9     8    1
     2     9    10    1
     3     7     6    2
     4     8     6   am
     5     6     5    1
     6     5     2    1
     7    10    11    1
     8    11    12   am
     9    12    13    2
    10    12    14    1
    11     2     4    2
    12     2     1    1
    13     2     3    1
    14    17    15    2
    15    14    15    1
    16    15    18    1
    17    15    16    1
