@<TRIPOS>MOLECULE
2fzd_TOL_A_1.pdb
 24 25 0 0 0
SMALL
GASTEIGER

@<TRIPOS>ATOM
      1  C1        17.1870   -8.2640    9.9370 C.3   317  TOL317      0.4214
      2  F1        18.4940   -8.3430    9.8480 F     317  TOL317     -0.1657
      3  F2        16.7750   -7.5490    8.9330 F     317  TOL317     -0.1657
      4  F3        16.7510   -9.5060    9.6450 F     317  TOL317     -0.1657
      5  C2        16.7180   -7.7760   11.2690 C.ar  317  TOL317      0.1053
      6  C3        15.9740   -6.6000   11.3940 C.ar  317  TOL317      0.1426
      7  O1        15.6960   -5.8960   10.2920 O.3   317  TOL317     -0.4715
      8  C4        14.8870   -4.7210   10.4690 C.3   317  TOL317      0.2525
      9  C5        15.5430   -6.2000   12.6620 C.ar  317  TOL317      0.0368
     10  C6        15.8880   -6.9440   13.7500 C.ar  317  TOL317      0.0032
     11  C7        16.6040   -8.1460   13.6490 C.ar  317  TOL317      0.0019
     12  C8        16.9360   -8.9050   14.8050 C.ar  317  TOL317      0.0200
     13  C9        17.6590  -10.0790   14.7000 C.ar  317  TOL317      0.0018
     14  C10       18.0930  -10.5010   13.4800 C.ar  317  TOL317      0.0001
     15  C11       17.8310   -9.7530   12.3440 C.ar  317  TOL317      0.0001
     16  C12       17.0630   -8.5770   12.3860 C.ar  317  TOL317      0.0069
     17  C13       16.3670   -8.4510   16.0910 C.2   317  TOL317      0.0848
     18  S1        14.9180   -9.1750   16.5950 S.2   317  TOL317     -0.0347
     19  N1        17.0300   -7.5560   16.7640 N.am  317  TOL317     -0.2910
     20  C14       18.2300   -6.9060   16.3100 C.3   317  TOL317      0.1132
     21  C15       16.5060   -7.0910   18.0450 C.3   317  TOL317      0.2069
     22  C16       15.4880   -5.9690   17.8110 C.2   317  TOL317      0.3847
     23  O2        14.9120   -5.5140   18.8050 O.co2 317  TOL317     -0.2437
     24  O3        15.2750   -5.5640   16.6410 O.co2 317  TOL317     -0.2437
@<TRIPOS>BOND
     1     3     1    1
     2     4     1    1
     3     2     1    1
     4     1     5    1
     5     7     8    1
     6     7     6    1
     7     5     6   ar
     8     5    16   ar
     9     6     9   ar
    10    15    16   ar
    11    15    14   ar
    12    16    11   ar
    13     9    10   ar
    14    14    13   ar
    15    11    10   ar
    16    11    12   ar
    17    13    12   ar
    18    12    17    1
    19    17    18    2
    20    17    19    1
    21    20    19    1
    22    24    22   ar
    23    19    21    1
    24    22    21    1
    25    22    23   ar
