@<TRIPOS>MOLECULE
2fzd_NAP_A_1.pdb
 48 52 0 0 0
SMALL
GASTEIGER

@<TRIPOS>ATOM
      1  PA        22.6600   -4.8070   26.3750 P.3   316  NAP316      0.2189
      2  O1A       23.5790   -3.7510   25.9080 O.2   316  NAP316     -0.5170
      3  O2A       21.5860   -4.4720   27.2770 O.3   316  NAP316     -0.4371
      4  O5B       23.5870   -5.9940   26.8890 O.3   316  NAP316     -0.3112
      5  C5B       22.9720   -7.2340   27.3360 C.3   316  NAP316      0.1813
      6  C4B       24.1240   -8.1500   27.6640 C.3   316  NAP316      0.1820
      7  O4B       24.8980   -7.5870   28.7240 O.3   316  NAP316     -0.3136
      8  C3B       23.7220   -9.5510   28.1200 C.3   316  NAP316      0.2157
      9  O3B       24.7410  -10.4450   27.6080 O.3   316  NAP316     -0.2175
     10  C2B       23.8250   -9.4740   29.5970 C.3   316  NAP316      0.2314
     11  O2B       24.1220  -10.7420   30.1540 O.3   316  NAP316     -0.2630
     12  C1B       24.9850   -8.5360   29.7790 C.3   316  NAP316      0.3158
     13  N9A       24.9730   -7.7530   31.0040 N.pl3 316  NAP316     -0.1439
     14  C8A       23.8470   -7.1370   31.5250 C.3   316  NAP316      0.3377
     15  N7A       24.1630   -6.4860   32.6360 N.2   316  NAP316     -0.2095
     16  C5A       25.4890   -6.6880   32.7910 C.2   316  NAP316      0.2526
     17  C6A       26.3400   -6.2460   33.8110 C.2   316  NAP316      0.4393
     18  N6A       25.9710   -5.5050   34.8190 N.pl3 316  NAP316      0.2180
     19  N1A       27.6380   -6.6450   33.7010 N.2   316  NAP316      0.0021
     20  C2A       28.0500   -7.3880   32.6820 C.3   316  NAP316      0.5254
     21  N3A       27.3040   -7.8550   31.6980 N.2   316  NAP316     -0.0055
     22  C4A       26.0090   -7.4740   31.8090 C.2   316  NAP316      0.3518
     23  O3        22.0430   -5.4980   25.0710 O.3   316  NAP316     -0.2703
     24  PN        20.6840   -5.6170   24.2830 P.3   316  NAP316      0.2189
     25  O1N       19.8690   -6.7430   24.8270 O.3   316  NAP316     -0.4371
     26  O2N       21.0520   -5.6370   22.8760 O.2   316  NAP316     -0.5170
     27  O5D       19.9300   -4.2190   24.5000 O.3   316  NAP316     -0.3112
     28  C5D       19.0560   -3.9650   25.6180 C.3   316  NAP316      0.1813
     29  C4D       17.6180   -4.0650   25.2140 C.3   316  NAP316      0.1799
     30  O4D       17.2960   -3.0510   24.2470 O.3   316  NAP316     -0.3327
     31  C3D       17.1650   -5.3520   24.5390 C.3   316  NAP316      0.2158
     32  O3D       17.1250   -6.4730   25.3730 O.3   316  NAP316     -0.2175
     33  C2D       15.8450   -4.9330   23.9500 C.3   316  NAP316      0.2309
     34  O2D       14.8880   -4.8910   24.9910 O.3   316  NAP316     -0.2158
     35  C1D       16.1950   -3.5130   23.4780 C.3   316  NAP316      0.2263
     36  N1N       16.6400   -3.4960   22.0680 N.pl3 316  NAP316     -0.2787
     37  C2N       15.7990   -2.9530   21.1610 C.3   316  NAP316      0.1244
     38  C3N       16.1170   -2.9460   19.8570 C.2   316  NAP316      0.0544
     39  C7N       15.2160   -2.2830   18.8640 C.2   316  NAP316      0.2818
     40  O7N       15.4380   -2.4650   17.6840 O.2   316  NAP316     -0.2670
     41  N7N       14.2980   -1.4630   19.3150 N.am  316  NAP316     -0.0839
     42  C4N       17.3120   -3.5570   19.4480 C.2   316  NAP316      0.0033
     43  C5N       18.1940   -4.0710   20.3700 C.2   316  NAP316      0.0157
     44  C6N       17.8600   -4.0050   21.6820 C.2   316  NAP316      0.0633
     45  P2B       23.0380  -11.6320   30.9870 P.3   316  NAP316      0.5328
     46  O1X       23.1850  -11.1810   32.4030 O.3   316  NAP316     -0.1145
     47  O2X       21.6960  -11.3860   30.4460 O.2   316  NAP316     -0.2224
     48  O3X       23.5900  -13.0220   30.8150 O.3   316  NAP316     -0.1145
@<TRIPOS>BOND
     1    40    39    2
     2    39    41   am
     3    39    38    1
     4    42    38    2
     5    42    43    1
     6    38    37    1
     7    43    44    2
     8    37    36    1
     9    44    36    1
    10    36    35    1
    11    26    24    2
    12    35    33    1
    13    35    30    1
    14    33    31    1
    15    33    34    1
    16    30    29    1
    17    24    27    1
    18    24    25    1
    19    24    23    1
    20    27    28    1
    21    31    29    1
    22    31    32    1
    23    23     1    1
    24    29    28    1
    25     2     1    2
    26     1     4    1
    27     1     3    1
    28     4     5    1
    29     5     6    1
    30     9     8    1
    31     6     8    1
    32     6     7    1
    33     8    10    1
    34     7    12    1
    35    10    12    1
    36    10    11    1
    37    12    13    1
    38    11    45    1
    39    47    45    2
    40    48    45    1
    41    45    46    1
    42    13    14    1
    43    13    22    1
    44    14    15    1
    45    21    22    2
    46    21    20    1
    47    22    16    1
    48    15    16    2
    49    20    19    1
    50    16    17    1
    51    19    17    2
    52    17    18    1
