@<TRIPOS>MOLECULE
2fze_APR_A_1.pdb
 36 39 0 0 0
SMALL
GASTEIGER

@<TRIPOS>ATOM
      1  N1        57.2060    6.1620   11.6310 N.2   1377  APR1377     0.0021
      2  C2        58.5070    6.2980   11.1510 C.3   1377  APR1377     0.5254
      3  N3        58.7730    6.4090    9.7900 N.2   1377  APR1377    -0.0055
      4  C4        57.6600    6.3730    8.9820 C.2   1377  APR1377     0.3518
      5  C5        56.3810    6.2410    9.4280 C.2   1377  APR1377     0.2526
      6  C6        56.1200    6.1300   10.7740 C.2   1377  APR1377     0.4393
      7  N6        54.8720    5.9690   11.2670 N.pl3 1377  APR1377     0.2180
      8  N7        55.4920    6.3020    8.3830 N.2   1377  APR1377    -0.2095
      9  C8        56.3170    6.4790    7.2760 C.3   1377  APR1377     0.3377
     10  N9        57.6620    6.5240    7.6250 N.pl3 1377  APR1377    -0.1439
     11  C1'       58.8110    6.6910    6.7680 C.3   1377  APR1377     0.3186
     12  C2'       58.6040    5.9810    5.4230 C.3   1377  APR1377     0.2570
     13  O2'       58.9310    4.5900    5.5550 O.3   1377  APR1377    -0.2130
     14  C3'       59.6180    6.6700    4.4940 C.3   1377  APR1377     0.2184
     15  O3'       60.9100    6.0780    4.6680 O.3   1377  APR1377    -0.2174
     16  O4'       58.8110    8.0460    6.3520 O.3   1377  APR1377    -0.3135
     17  C4'       59.6030    8.0640    5.1580 C.3   1377  APR1377     0.1821
     18  C5'       59.0190    9.1090    4.2100 C.3   1377  APR1377     0.1813
     19  O5'       60.0190    9.3600    3.1820 O.3   1377  APR1377    -0.3112
     20  PA        59.5350    9.6270    1.6910 P.3   1377  APR1377     0.2189
     21  O1A       58.2040    9.0310    1.4550 O.3   1377  APR1377    -0.4371
     22  O2A       60.5120    9.0800    0.7270 O.2   1377  APR1377    -0.5170
     23  O3A       59.3200   11.2140    1.5110 O.3   1377  APR1377    -0.2703
     24  PB        60.3840   12.4150    1.5130 P.3   1377  APR1377     0.2189
     25  O1B       60.7300   12.8460    0.1440 O.2   1377  APR1377    -0.5170
     26  O2B       61.5840   12.0610    2.2980 O.3   1377  APR1377    -0.4371
     27  O5D       59.5650   13.5900    2.2610 O.3   1377  APR1377    -0.3112
     28  C5D       58.7010   13.2230    3.3820 C.3   1377  APR1377     0.1813
     29  O4D       58.4520   15.5180    4.0170 O.3   1377  APR1377    -0.3237
     30  O1D       58.8590   17.4610    2.8790 O.3   1377  APR1377    -0.1869
     31  C1D       57.8440   16.4800    3.1910 C.3   1377  APR1377     0.3023
     32  O2D       56.4870   16.3920    1.1840 O.3   1377  APR1377    -0.2148
     33  C2D       57.4080   15.6390    1.9820 C.3   1377  APR1377     0.2433
     34  O3D       55.5290   15.2410    3.4560 O.3   1377  APR1377    -0.2175
     35  C3D       56.6380   14.5990    2.8140 C.3   1377  APR1377     0.2168
     36  C4D       57.7310   14.3010    3.8650 C.3   1377  APR1377     0.1807
@<TRIPOS>BOND
     1    25    24    2
     2    22    20    2
     3    32    33    1
     4    21    20    1
     5    23    24    1
     6    23    20    1
     7    24    27    1
     8    24    26    1
     9    20    19    1
    10    33    35    1
    11    33    31    1
    12    27    28    1
    13    35    34    1
    14    35    36    1
    15    30    31    1
    16    19    18    1
    17    31    29    1
    18    28    36    1
    19    36    29    1
    20    18    17    1
    21    14    15    1
    22    14    17    1
    23    14    12    1
    24    17    16    1
    25    12    13    1
    26    12    11    1
    27    16    11    1
    28    11    10    1
    29     9    10    1
    30     9     8    1
    31    10     4    1
    32     8     5    2
    33     4     5    1
    34     4     3    2
    35     5     6    1
    36     3     2    1
    37     6     7    1
    38     6     1    2
    39     2     1    1
