@<TRIPOS>MOLECULE
2fzg_CTP_B_1.pdb
 29 30 0 0 0
SMALL
GASTEIGER

@<TRIPOS>ATOM
      1  N1        12.0810   81.3640   26.9170 N.am  901  CTP901     -0.1778
      2  C2        13.2360   82.1550   26.9590 C.1   901  CTP901      0.2756
      3  N3        13.3340   83.2700   26.1110 N.2   901  CTP901     -0.3024
      4  C4        12.2790   83.5890   25.2460 C.2   901  CTP901      0.2346
      5  C5        11.1330   82.8060   25.2120 C.2   901  CTP901      0.0687
      6  C6        11.0350   81.6950   26.0430 C.2   901  CTP901      0.0836
      7  O2        14.1240   81.8980   27.7660 O.2   901  CTP901     -0.1925
      8  N4        12.3690   84.6630   24.4660 N.pl3 901  CTP901     -0.0921
      9  C1'       11.9800   80.1870   27.8090 C.3   901  CTP901      0.2400
     10  C2'       11.0010   80.4610   28.9480 C.3   901  CTP901      0.2319
     11  O2'       11.6460   81.2940   29.9170 O.3   901  CTP901     -0.2157
     12  C3'       10.8770   79.0410   29.4900 C.3   901  CTP901      0.2158
     13  C4'       10.8970   78.2010   28.2120 C.3   901  CTP901      0.1799
     14  O4'       11.3830   79.0550   27.1590 O.3   901  CTP901     -0.3320
     15  O3'       12.0130   78.7270   30.3040 O.3   901  CTP901     -0.2175
     16  C5'        9.5050   77.6810   27.8360 C.3   901  CTP901      0.1813
     17  O5'        8.5610   78.7340   27.6160 O.3   901  CTP901     -0.3112
     18  PA         7.1460   78.4340   26.9060 P.3   901  CTP901      0.2189
     19  O1A        7.2650   77.0730   26.0570 O.3   901  CTP901     -0.4371
     20  O2A        6.7990   79.6410   25.9000 O.2   901  CTP901     -0.5170
     21  O3A        5.9660   78.2860   27.9900 O.3   901  CTP901     -0.2700
     22  PB         6.0470   77.1720   29.1490 P.3   901  CTP901      0.2277
     23  O1B        7.4600   77.3990   29.8850 O.2   901  CTP901     -0.5168
     24  O2B        4.9150   77.2310   30.1040 O.3   901  CTP901     -0.4368
     25  O3B        6.1310   75.7300   28.4410 O.3   901  CTP901     -0.2258
     26  PG         6.0490   74.3900   29.3360 P.3   901  CTP901      0.5373
     27  O1G        6.5360   73.1860   28.3840 O.2   901  CTP901     -0.2221
     28  O2G        7.1860   74.5380   30.4690 O.3   901  CTP901     -0.1143
     29  O3G        4.7210   74.1210   29.9180 O.3   901  CTP901     -0.1143
@<TRIPOS>BOND
     1     8     4    1
     2     5     4    1
     3     5     6    2
     4     4     3    2
     5    20    18    2
     6     6     1    1
     7    19    18    1
     8     3     2    2
     9    18    17    1
    10    18    21    1
    11     1     2   am
    12     1     9    1
    13     2     7    2
    14    14     9    1
    15    14    13    1
    16    17    16    1
    17     9    10    1
    18    16    13    1
    19    21    22    1
    20    13    12    1
    21    27    26    2
    22    25    22    1
    23    25    26    1
    24    10    12    1
    25    10    11    1
    26    22    23    2
    27    22    24    1
    28    26    29    1
    29    26    28    1
    30    12    15    1
