@<TRIPOS>MOLECULE
2fzg_EOB_A_1.pdb
 22 22 0 0 0
SMALL
GASTEIGER

@<TRIPOS>ATOM
      1  OAF       39.6630   26.7050   20.5870 O.3   611  EOB611     -0.3568
      2  PAU       38.0620   26.6550   20.7670 P.3   611  EOB611      0.1264
      3  OAE       37.5950   25.2270   20.1840 O.2   611  EOB611     -0.4596
      4  OAC       37.6260   26.8580   22.1750 O.3   611  EOB611     -0.3568
      5  CAM       37.4030   27.9190   19.6500 C.3   611  EOB611      0.1458
      6  CAQ       37.3050   29.2890   20.3340 C.2   611  EOB611      0.2530
      7  OAA       36.3640   29.5170   21.0980 O.2   611  EOB611     -0.2725
      8  NAO       38.2480   30.1960   20.0820 N.am  611  EOB611     -0.1788
      9  CAS       39.3050   30.0950   19.2740 C.ar  611  EOB611      0.0747
     10  CAL       39.5790   28.9730   18.4990 C.ar  611  EOB611      0.0332
     11  CAJ       40.1540   31.2010   19.1800 C.ar  611  EOB611      0.0167
     12  CAI       41.2430   31.1810   18.3200 C.ar  611  EOB611      0.0027
     13  CAK       41.4990   30.0580   17.5410 C.ar  611  EOB611      0.0167
     14  CAT       40.6640   28.9430   17.6300 C.ar  611  EOB611      0.0747
     15  NAP       40.8830   27.8270   16.9340 N.am  611  EOB611     -0.1788
     16  CAR       41.8350   27.6080   16.0290 C.2   611  EOB611      0.2530
     17  OAB       41.9730   26.5330   15.4440 O.2   611  EOB611     -0.2725
     18  CAN       42.7920   28.7640   15.7210 C.3   611  EOB611      0.1458
     19  PAV       44.3710   28.5490   16.5720 P.3   611  EOB611      0.1264
     20  OAH       44.7920   30.0220   17.0630 O.3   611  EOB611     -0.3568
     21  OAG       45.4210   28.1190   15.4300 O.2   611  EOB611     -0.4596
     22  OAD       44.2920   27.5880   17.7010 O.3   611  EOB611     -0.3568
@<TRIPOS>BOND
     1    21    19    2
     2    17    16    2
     3    18    16    1
     4    18    19    1
     5    16    15   am
     6    19    20    1
     7    19    22    1
     8    15    14    1
     9    13    14   ar
    10    13    12   ar
    11    14    10   ar
    12    12    11   ar
    13    10     9   ar
    14    11     9   ar
    15     9     8    1
    16     5     6    1
    17     5     2    1
    18     8     6   am
    19     3     2    2
    20     6     7    2
    21     1     2    1
    22     2     4    1
