@<TRIPOS>MOLECULE
2fzh_NAP_A_1.pdb
 48 52 0 0 0
SMALL
GASTEIGER

@<TRIPOS>ATOM
      1  PA        33.8250   12.9270   22.8980 P.3   207  NAP207      0.2189
      2  O1A       32.7300   12.6560   23.5860 O.3   207  NAP207     -0.4371
      3  O2A       33.6640   13.3980   21.6220 O.2   207  NAP207     -0.5170
      4  O5B       34.8800   13.8600   23.6480 O.3   207  NAP207     -0.3112
      5  C5B       34.5560   14.3120   25.0620 C.3   207  NAP207      0.1813
      6  C4B       34.7590   15.7710   25.2530 C.3   207  NAP207      0.1820
      7  O4B       33.5520   16.3100   24.6800 O.3   207  NAP207     -0.3136
      8  C3B       34.6370   16.2810   26.6510 C.3   207  NAP207      0.2157
      9  O3B       35.9510   16.4380   26.9570 O.3   207  NAP207     -0.2175
     10  C2B       33.8320   17.6070   26.5680 C.3   207  NAP207      0.2314
     11  O2B       34.4720   18.7780   26.1120 O.3   207  NAP207     -0.2630
     12  C1B       32.7180   17.0520   25.6170 C.3   207  NAP207      0.3158
     13  N9A       31.5630   16.3270   26.2070 N.pl3 207  NAP207     -0.1439
     14  C8A       31.1560   15.0160   25.9830 C.3   207  NAP207      0.3377
     15  N7A       30.1170   14.6180   26.6180 N.2   207  NAP207     -0.2095
     16  C5A       29.8010   15.8030   27.3410 C.2   207  NAP207      0.2526
     17  C6A       28.8000   16.1510   28.2490 C.2   207  NAP207      0.4393
     18  N6A       27.8660   15.1970   28.5550 N.pl3 207  NAP207      0.2180
     19  N1A       28.7070   17.4410   28.8560 N.2   207  NAP207      0.0021
     20  C2A       29.6690   18.4300   28.5400 C.3   207  NAP207      0.5254
     21  N3A       30.6870   18.0990   27.6210 N.2   207  NAP207     -0.0055
     22  C4A       30.6950   16.8040   27.0830 C.2   207  NAP207      0.3518
     23  O3        34.7350   11.7460   22.6620 O.3   207  NAP207     -0.2703
     24  PN        35.4410   10.6070   23.4990 P.3   207  NAP207      0.2189
     25  O1N       36.6240   11.1080   23.9180 O.2   207  NAP207     -0.5170
     26  O2N       34.6040   10.2790   24.5590 O.3   207  NAP207     -0.4371
     27  O5D       35.7240    9.4520   22.4870 O.3   207  NAP207     -0.3112
     28  C5D       36.4510    9.5720   21.4990 C.3   207  NAP207      0.1813
     29  C4D       36.4820    8.2210   20.8000 C.3   207  NAP207      0.1799
     30  O4D       35.0600    7.8630   20.2980 O.3   207  NAP207     -0.3327
     31  C3D       37.3970    8.1140   19.4920 C.3   207  NAP207      0.2158
     32  O3D       38.1490    6.9010   19.1670 O.3   207  NAP207     -0.2175
     33  C2D       36.3880    8.5220   18.4270 C.3   207  NAP207      0.2309
     34  O2D       36.6670    8.2100   17.0790 O.3   207  NAP207     -0.2158
     35  C1D       35.2850    7.5580   18.8790 C.3   207  NAP207      0.2263
     36  N1N       33.9990    7.6150   18.0710 N.pl3 207  NAP207     -0.2787
     37  C2N       33.5690    6.3550   17.4630 C.3   207  NAP207      0.1244
     38  C3N       32.3980    6.3610   16.7150 C.2   207  NAP207      0.0544
     39  C7N       32.0090    5.1140   16.1450 C.2   207  NAP207      0.2818
     40  O7N       30.9650    5.2410   15.5190 O.2   207  NAP207     -0.2670
     41  N7N       32.7600    4.0150   16.3370 N.am  207  NAP207     -0.0839
     42  C4N       31.7030    7.6990   16.6170 C.2   207  NAP207      0.0033
     43  C5N       32.1380    8.9620   17.2320 C.2   207  NAP207      0.0157
     44  C6N       33.2960    8.8750   17.9560 C.2   207  NAP207      0.0633
     45  P2B       35.5460   19.6900   26.6710 P.3   207  NAP207      0.5328
     46  O1X       36.6440   18.8010   27.0470 O.3   207  NAP207     -0.1145
     47  O2X       35.7110   20.6820   25.6260 O.2   207  NAP207     -0.2224
     48  O3X       34.6860   20.2040   27.8320 O.3   207  NAP207     -0.1145
@<TRIPOS>BOND
     1    40    39    2
     2    39    41   am
     3    39    38    1
     4    42    38    2
     5    42    43    1
     6    38    37    1
     7    34    33    1
     8    43    44    2
     9    37    36    1
    10    44    36    1
    11    36    35    1
    12    33    35    1
    13    33    31    1
    14    35    30    1
    15    32    31    1
    16    31    29    1
    17    30    29    1
    18    29    28    1
    19    28    27    1
    20     3     1    2
    21    27    24    1
    22    23     1    1
    23    23    24    1
    24     1     2    1
    25     1     4    1
    26    24    25    2
    27    24    26    1
    28     4     5    1
    29     7     6    1
    30     7    12    1
    31     5     6    1
    32     6     8    1
    33    12    13    1
    34    12    10    1
    35    47    45    2
    36    14    13    1
    37    14    15    1
    38    11    10    1
    39    11    45    1
    40    13    22    1
    41    10     8    1
    42    15    16    2
    43     8     9    1
    44    45    46    1
    45    45    48    1
    46    22    16    1
    47    22    21    2
    48    16    17    1
    49    21    20    1
    50    17    18    1
    51    17    19    2
    52    20    19    1
