@<TRIPOS>MOLECULE
2fzh_DH1_A_1.pdb
 25 26 0 0 0
SMALL
GASTEIGER

@<TRIPOS>ATOM
      1  C16       34.3140    8.8990   14.2890 C.3   208  DH1208      0.2525
      2  O1        33.4200    8.2990   13.3310 O.3   208  DH1208     -0.4717
      3  C2'       33.1690    9.0690   12.1830 C.ar  208  DH1208      0.1352
      4  C3'       34.2230    9.3630   11.2700 C.ar  208  DH1208      0.0397
      5  C4'       34.0100   10.1380   10.0930 C.ar  208  DH1208      0.0400
      6  C5'       32.7230   10.6130    9.8430 C.ar  208  DH1208      0.1384
      7  O5'       32.5190   11.3730    8.6790 O.3   208  DH1208     -0.4755
      8  C52       31.8360   12.6420    8.8650 C.3   208  DH1208      0.2054
      9  C1        32.0610   13.5300    7.6030 C.3   208  DH1208      0.0479
     10  C3        32.0200   12.7690    6.2310 C.3   208  DH1208      0.0156
     11  C7        30.6750   12.1240    5.8800 C.3   208  DH1208      0.1142
     12  C8        29.5050   13.0720    6.0270 C.2   208  DH1208      0.3649
     13  O9        29.4410   14.0820    5.3380 O.co2 208  DH1208     -0.2457
     14  O10       28.6160   12.8270    6.8330 O.co2 208  DH1208     -0.2457
     15  C6'       31.6250   10.3280   10.7470 C.ar  208  DH1208      0.0360
     16  C1'       31.8480    9.5510   11.9200 C.ar  208  DH1208      0.0194
     17  C51       30.7120    9.2130   12.9170 C.3   208  DH1208      0.0615
     18  C5        29.9510    7.8830   12.6480 C.2   208  DH1208      0.0501
     19  C6        30.2200    6.9960   11.5620 C.2   208  DH1208      0.1118
     20  N1        29.5000    5.8300   11.3950 N.2   208  DH1208     -0.1675
     21  C2        28.5130    5.4760   12.2480 C.1   208  DH1208      0.1877
     22  N2        27.7900    4.2720   12.0570 N.pl3 208  DH1208     -0.0345
     23  N3        28.2030    6.2690   13.3000 N.2   208  DH1208     -0.3170
     24  C4        28.9020    7.4880   13.5320 C.2   208  DH1208      0.2297
     25  N4        28.5730    8.2280   14.5610 N.pl3 208  DH1208     -0.0924
@<TRIPOS>BOND
     1    13    12   ar
     2    11    12    1
     3    11    10    1
     4    12    14   ar
     5    10     9    1
     6     9     8    1
     7     7     8    1
     8     7     6    1
     9     6     5   ar
    10     6    15   ar
    11     5     4   ar
    12    15    16   ar
    13     4     3   ar
    14    20    19    1
    15    20    21    2
    16    19    18    2
    17    16     3   ar
    18    16    17    1
    19    22    21    1
    20     3     2    1
    21    21    23    2
    22    18    17    1
    23    18    24    1
    24    23    24    2
    25     2     1    1
    26    24    25    1
