@<TRIPOS>MOLECULE
2fzi_NAP_A_1.pdb
 48 52 0 0 0
SMALL
GASTEIGER

@<TRIPOS>ATOM
      1  PA        52.4400    4.5630   22.9250 P.3   207  NAP207      0.2189
      2  O1A       52.3590    5.1940   21.5700 O.2   207  NAP207     -0.5170
      3  O2A       51.2110    4.2900   23.6750 O.3   207  NAP207     -0.4371
      4  O5B       53.5020    5.5890   23.8210 O.3   207  NAP207     -0.3112
      5  C5B       53.0300    6.0210   25.1820 C.3   207  NAP207      0.1813
      6  C4B       53.1620    7.5490   25.2580 C.3   207  NAP207      0.1820
      7  O4B       52.0570    8.0400   24.8450 O.3   207  NAP207     -0.3136
      8  C3B       53.2060    7.9130   26.8300 C.3   207  NAP207      0.2157
      9  O3B       54.6790    8.0330   26.9990 O.3   207  NAP207     -0.2175
     10  C2B       52.3540    9.1950   26.7680 C.3   207  NAP207      0.2314
     11  O2B       53.0330   10.2990   26.2850 O.3   207  NAP207     -0.2630
     12  C1B       51.2430    8.7330   25.8620 C.3   207  NAP207      0.3158
     13  N9A       50.0990    8.0130   26.4380 N.pl3 207  NAP207     -0.1439
     14  C8A       49.6830    6.7280   26.1330 C.3   207  NAP207      0.3377
     15  N7A       48.6090    6.3490   26.8100 N.2   207  NAP207     -0.2095
     16  C5A       48.3820    7.5310   27.5910 C.2   207  NAP207      0.2526
     17  C6A       47.3110    7.9290   28.6600 C.2   207  NAP207      0.4393
     18  N6A       46.3820    6.9940   28.9540 N.pl3 207  NAP207      0.2180
     19  N1A       47.3670    9.1900   29.2520 N.2   207  NAP207      0.0021
     20  C2A       48.3580    9.9920   28.8360 C.3   207  NAP207      0.5254
     21  N3A       49.3240    9.7740   27.9370 N.2   207  NAP207     -0.0055
     22  C4A       49.2620    8.4920   27.3460 C.2   207  NAP207      0.3518
     23  O3        53.3770    3.3800   22.8250 O.3   207  NAP207     -0.2703
     24  PN        54.0010    2.1950   23.6440 P.3   207  NAP207      0.2189
     25  O1N       53.0970    1.7720   24.6600 O.3   207  NAP207     -0.4371
     26  O2N       55.3020    2.5930   24.1930 O.2   207  NAP207     -0.5170
     27  O5D       54.3500    1.0970   22.4850 O.3   207  NAP207     -0.3112
     28  C5D       55.1180    1.3260   21.5430 C.3   207  NAP207      0.1813
     29  C4D       55.2180    0.0540   20.6970 C.3   207  NAP207      0.1799
     30  O4D       53.8370   -0.2280   20.1450 O.3   207  NAP207     -0.3327
     31  C3D       56.1680    0.0890   19.4400 C.3   207  NAP207      0.2158
     32  O3D       56.8340   -1.1060   18.9820 O.3   207  NAP207     -0.2175
     33  C2D       55.1300    0.4640   18.3370 C.3   207  NAP207      0.2309
     34  O2D       55.5050    0.1890   17.0080 O.3   207  NAP207     -0.2158
     35  C1D       54.0570   -0.4070   18.6910 C.3   207  NAP207      0.2263
     36  N1N       52.7680   -0.3480   17.8990 N.pl3 207  NAP207     -0.2787
     37  C2N       52.3050   -1.6170   17.3270 C.3   207  NAP207      0.1244
     38  C3N       51.1310   -1.5900   16.6300 C.2   207  NAP207      0.0544
     39  C7N       50.6420   -2.9310   16.0160 C.2   207  NAP207      0.2818
     40  O7N       49.5940   -2.7660   15.4390 O.2   207  NAP207     -0.2670
     41  N7N       51.3840   -4.0390   16.1820 N.am  207  NAP207     -0.0839
     42  C4N       50.2930   -0.2430   16.4370 C.2   207  NAP207      0.0033
     43  C5N       50.9350    0.9790   17.0990 C.2   207  NAP207      0.0157
     44  C6N       52.0870    0.8950   17.7710 C.2   207  NAP207      0.0633
     45  P2B       54.3150   11.2850   26.8340 P.3   207  NAP207      0.5328
     46  O1X       53.4420   11.8690   27.9650 O.3   207  NAP207     -0.1145
     47  O2X       54.4630   12.2330   25.7530 O.2   207  NAP207     -0.2224
     48  O3X       55.3330   10.4080   27.3420 O.3   207  NAP207     -0.1145
@<TRIPOS>BOND
     1    40    39    2
     2    39    41   am
     3    39    38    1
     4    42    38    2
     5    42    43    1
     6    38    37    1
     7    34    33    1
     8    43    44    2
     9    37    36    1
    10    44    36    1
    11    36    35    1
    12    33    35    1
    13    33    31    1
    14    35    30    1
    15    32    31    1
    16    31    29    1
    17    30    29    1
    18    29    28    1
    19    28    27    1
    20     2     1    2
    21    27    24    1
    22    23     1    1
    23    23    24    1
    24     1     3    1
    25     1     4    1
    26    24    26    2
    27    24    25    1
    28     4     5    1
    29     7     6    1
    30     7    12    1
    31     5     6    1
    32     6     8    1
    33    47    45    2
    34    12    13    1
    35    12    10    1
    36    14    13    1
    37    14    15    1
    38    11    10    1
    39    11    45    1
    40    13    22    1
    41    10     8    1
    42    15    16    2
    43     8     9    1
    44    45    48    1
    45    45    46    1
    46    22    16    1
    47    22    21    2
    48    16    17    1
    49    21    20    1
    50    17    18    1
    51    17    19    2
    52    20    19    1
