@<TRIPOS>MOLECULE
2fzi_DH3_A_1.pdb
 27 28 0 0 0
SMALL
GASTEIGER

@<TRIPOS>ATOM
      1  N4        47.0540    0.4270   14.5440 N.pl3 208  DH3208     -0.0924
      2  C4        47.5330   -0.4070   13.5060 C.2   208  DH3208      0.2297
      3  N3        46.8390   -1.5470   13.2270 N.2   208  DH3208     -0.3170
      4  C2        47.2350   -2.4100   12.2380 C.1   208  DH3208      0.1877
      5  N2        46.4760   -3.5740   11.9900 N.pl3 208  DH3208     -0.0345
      6  N1        48.3490   -2.1240   11.5120 N.2   208  DH3208     -0.1675
      7  C6        49.0870   -1.0050   11.7430 C.2   208  DH3208      0.1118
      8  C5        48.7170   -0.0740   12.7560 C.2   208  DH3208      0.0500
      9  C51       49.3430    1.3010   13.2430 C.3   208  DH3208      0.0584
     10  C1'       50.6580    1.5990   12.4650 C.ar  208  DH3208     -0.0138
     11  C6'       50.6800    2.0330   11.0950 C.ar  208  DH3208      0.0076
     12  C52       51.9480    2.2720   10.4670 C.ar  208  DH3208      0.0786
     13  C53       51.9610    2.7110    9.0510 C.1   208  DH3208     -0.0566
     14  C54       51.9480    3.3570    8.0480 C.1   208  DH3208     -0.0594
     15  C1        51.9470    4.1700    7.0890 C.2   208  DH3208      0.0456
     16  C3        51.1910    4.8120    6.2620 C.2   208  DH3208     -0.0055
     17  C7        49.7360    4.7170    6.2320 C.3   208  DH3208      0.1407
     18  C8        48.3690    5.3230    6.2470 C.2   208  DH3208      0.3692
     19  O10       48.1090    6.2780    5.5330 O.co2 208  DH3208     -0.2453
     20  O9        47.5030    4.8670    6.9780 O.co2 208  DH3208     -0.2453
     21  C4'       53.1820    2.0980   11.1750 C.ar  208  DH3208      0.1799
     22  O5        54.4010    2.3470   10.5040 O.3   208  DH3208     -0.4678
     23  C5'       55.5900    1.4290   10.0560 C.3   208  DH3208      0.2527
     24  C3'       53.1380    1.6670   12.5410 C.ar  208  DH3208      0.1727
     25  O4        54.3090    1.4830   13.2710 O.3   208  DH3208     -0.4684
     26  C4B       55.1320    2.8930   13.7980 C.3   208  DH3208      0.2526
     27  C2'       51.8810    1.4310   13.1520 C.ar  208  DH3208      0.0362
@<TRIPOS>BOND
     1    19    18   ar
     2    17    18    1
     3    17    16    1
     4    18    20   ar
     5    16    15    2
     6    15    14    1
     7    14    13    3
     8    13    12    1
     9    23    22    1
    10    12    11   ar
    11    12    21   ar
    12    22    21    1
    13    11    10   ar
    14    21    24   ar
    15     6     7    1
    16     6     4    2
    17     7     8    2
    18     5     4    1
    19     4     3    2
    20    10    27   ar
    21    10     9    1
    22    24    27   ar
    23    24    25    1
    24     8     9    1
    25     8     2    1
    26     3     2    2
    27    25    26    1
    28     2     1    1
