@<TRIPOS>MOLECULE
2fzj_NAP_A_1.pdb
 48 52 0 0 0
SMALL
GASTEIGER

@<TRIPOS>ATOM
      1  PA         2.3590    8.6180   16.7800 P.3   187  NAP187      0.2189
      2  O1A        3.3700    8.0220   15.8630 O.2   187  NAP187     -0.5170
      3  O2A        0.9880    8.8240   16.3110 O.3   187  NAP187     -0.4371
      4  O5B        3.0720   10.1100   17.2750 O.3   187  NAP187     -0.3112
      5  C5B        2.2150   11.3660   17.3100 C.3   187  NAP187      0.1813
      6  C4B        3.0150   12.4160   16.5330 C.3   187  NAP187      0.1820
      7  O4B        2.8710   12.2080   15.2950 O.3   187  NAP187     -0.3136
      8  C3B        2.4170   13.8810   16.7720 C.3   187  NAP187      0.2157
      9  O3B        3.2010   14.2710   17.9700 O.3   187  NAP187     -0.2175
     10  C2B        2.7560   14.4220   15.3530 C.3   187  NAP187      0.2314
     11  O2B        4.0660   14.8070   15.1200 O.3   187  NAP187     -0.2630
     12  C1B        2.2790   13.2830   14.4780 C.3   187  NAP187      0.3158
     13  N9A        0.8530   13.2320   14.1440 N.pl3 187  NAP187     -0.1439
     14  C8A       -0.0980   12.2920   14.5520 C.3   187  NAP187      0.3377
     15  N7A       -1.3100   12.5280   14.0720 N.2   187  NAP187     -0.2095
     16  C5A       -1.0600   13.7200   13.3210 C.2   187  NAP187      0.2526
     17  C6A       -1.9610   14.6510   12.4280 C.2   187  NAP187      0.4393
     18  N6A       -3.2690   14.3060   12.3300 N.pl3 187  NAP187      0.2180
     19  N1A       -1.3850   15.7780   11.7940 N.2   187  NAP187      0.0021
     20  C2A       -0.0560   15.9820   11.9910 C.3   187  NAP187      0.5254
     21  N3A        0.8070   15.2590   12.7250 N.2   187  NAP187     -0.0055
     22  C4A        0.2230   14.1180   13.3700 C.2   187  NAP187      0.3518
     23  O3         2.4090    7.8680   18.1130 O.3   187  NAP187     -0.2703
     24  PN         1.7540    7.7670   19.5380 P.3   187  NAP187      0.2189
     25  O1N        0.3470    7.8750   19.4090 O.2   187  NAP187     -0.5170
     26  O2N        2.3120    8.7450   20.5060 O.3   187  NAP187     -0.4371
     27  O5D        2.2850    6.3260   20.0870 O.3   187  NAP187     -0.3112
     28  C5D        3.4580    5.9570   20.0080 C.3   187  NAP187      0.1813
     29  C4D        3.5140    4.5810   20.6430 C.3   187  NAP187      0.1799
     30  O4D        2.6290    3.6910   19.7920 O.3   187  NAP187     -0.3327
     31  C3D        4.9210    3.8640   20.7000 C.3   187  NAP187      0.2158
     32  O3D        5.2370    2.9460   21.7820 O.3   187  NAP187     -0.2175
     33  C2D        4.8170    3.0550   19.3700 C.3   187  NAP187      0.2309
     34  O2D        5.7160    1.9760   19.2340 O.3   187  NAP187     -0.2158
     35  C1D        3.4800    2.5540   19.4280 C.3   187  NAP187      0.2263
     36  N1N        2.8720    1.7300   18.2770 N.pl3 187  NAP187     -0.2787
     37  C2N        2.2140    0.4350   18.6490 C.3   187  NAP187      0.1244
     38  C3N        1.6480   -0.2860   17.5940 C.2   187  NAP187      0.0544
     39  C7N        0.9410   -1.6410   17.9110 C.2   187  NAP187      0.2818
     40  O7N        0.4930   -2.1370   16.8890 O.2   187  NAP187     -0.2670
     41  N7N        0.8970   -2.0870   19.1790 N.am  187  NAP187     -0.0839
     42  C4N        1.6990    0.2540   16.0700 C.2   187  NAP187      0.0033
     43  C5N        2.4270    1.6040   15.9090 C.2   187  NAP187      0.0157
     44  C6N        2.9550    2.2600   16.9660 C.2   187  NAP187      0.0633
     45  P2B        5.1130   16.0090   15.7440 P.3   187  NAP187      0.5328
     46  O1X        4.2490   17.1270   15.1290 O.3   187  NAP187     -0.1145
     47  O2X        6.3480   15.8300   15.0220 O.2   187  NAP187     -0.2224
     48  O3X        4.9740   15.9520   17.1890 O.3   187  NAP187     -0.1145
@<TRIPOS>BOND
     1    19    20    1
     2    19    17    2
     3    20    21    1
     4    18    17    1
     5    17    16    1
     6    21    22    2
     7    16    22    1
     8    16    15    2
     9    22    13    1
    10    15    14    1
    11    13    12    1
    12    13    14    1
    13    12     7    1
    14    12    10    1
    15    47    45    2
    16    11    10    1
    17    11    45    1
    18    46    45    1
    19     7     6    1
    20    10     8    1
    21    45    48    1
    22     2     1    2
    23    43    42    1
    24    43    44    2
    25    42    38    2
    26     3     1    1
    27     6     8    1
    28     6     5    1
    29     8     9    1
    30     1     4    1
    31     1    23    1
    32    40    39    2
    33    44    36    1
    34     4     5    1
    35    38    39    1
    36    38    37    1
    37    39    41   am
    38    23    24    1
    39    36    37    1
    40    36    35    1
    41    34    33    1
    42    33    35    1
    43    33    31    1
    44    25    24    2
    45    35    30    1
    46    24    27    1
    47    24    26    1
    48    30    29    1
    49    28    27    1
    50    28    29    1
    51    29    31    1
    52    31    32    1
