@<TRIPOS>MOLECULE
2fzj_DH3_A_1.pdb
 27 28 0 0 0
SMALL
GASTEIGER

@<TRIPOS>ATOM
      1  N4         1.0150   -1.0310   12.6170 N.pl3 188  DH3188     -0.0924
      2  C4         1.3930   -2.3060   13.1220 C.2   188  DH3188      0.2297
      3  N3         0.4170   -3.2790   13.1870 N.2   188  DH3188     -0.3170
      4  C2         0.6730   -4.5490   13.6570 C.1   188  DH3188      0.1877
      5  N2        -0.3650   -5.4810   13.6870 N.pl3 188  DH3188     -0.0345
      6  N1         1.9420   -4.8690   14.0860 N.2   188  DH3188     -0.1675
      7  C6         2.9640   -3.9450   14.0490 C.2   188  DH3188      0.1118
      8  C5         2.7550   -2.5980   13.5600 C.2   188  DH3188      0.0500
      9  C51        3.7170   -1.3310   13.3930 C.3   188  DH3188      0.0584
     10  C1'        5.1710   -1.6120   13.8700 C.ar  188  DH3188     -0.0138
     11  C6'        6.1180   -2.4120   13.1210 C.ar  188  DH3188      0.0076
     12  C52        7.4530   -2.6130   13.6600 C.ar  188  DH3188      0.0783
     13  C53        8.4060   -3.4360   12.8790 C.1   188  DH3188     -0.0609
     14  C54        8.9110   -4.2740   12.2090 C.1   188  DH3188     -0.0815
     15  C1         9.4130   -5.0460   11.3610 C.3   188  DH3188      0.1025
     16  C3         9.2930   -5.5100   10.1660 C.2   188  DH3188     -0.0054
     17  C7         8.7690   -4.7530    9.0380 C.2   188  DH3188      0.0826
     18  C8         8.3950   -4.6490    7.6030 C.2   188  DH3188      0.3877
     19  O10        9.2620   -4.6590    6.7430 O.co2 188  DH3188     -0.2406
     20  O9         7.2220   -4.5590    7.2800 O.co2 188  DH3188     -0.2406
     21  C4'        7.8530   -2.0350   14.9330 C.ar  188  DH3188      0.1799
     22  O5         9.1670   -2.2640   15.4140 O.3   188  DH3188     -0.4678
     23  C5'        9.5790   -3.1270   16.5830 C.3   188  DH3188      0.2527
     24  C3'        6.8940   -1.2320   15.6740 C.ar  188  DH3188      0.1727
     25  O4         7.2370   -0.6620   16.9050 O.3   188  DH3188     -0.4684
     26  C4B        8.1920    0.6690   16.7200 C.3   188  DH3188      0.2526
     27  C2'        5.5710   -1.0410   15.1260 C.ar  188  DH3188      0.0362
@<TRIPOS>BOND
     1    19    18   ar
     2    20    18   ar
     3    18    17    1
     4    17    16    2
     5    16    15    1
     6    15    14    1
     7    14    13    3
     8     1     2    1
     9    13    12    1
    10    11    12   ar
    11    11    10   ar
    12     2     3    2
    13     2     8    1
    14     3     4    2
    15     9     8    1
    16     9    10    1
    17     8     7    2
    18     4     5    1
    19     4     6    2
    20    12    21   ar
    21    10    27   ar
    22     7     6    1
    23    21    22    1
    24    21    24   ar
    25    27    24   ar
    26    22    23    1
    27    24    25    1
    28    26    25    1
