@<TRIPOS>MOLECULE
2fzk_EOZ_A_1.pdb
 25 25 0 0 0
SMALL
GASTEIGER

@<TRIPOS>ATOM
      1  OAD       37.0020   26.3050   20.5930 O.3   611  EOZ611     -0.3568
      2  PAX       38.2680   27.0160   21.2910 P.3   611  EOZ611      0.1264
      3  OAH       39.5190   26.6380   20.3470 O.2   611  EOZ611     -0.4596
      4  OAG       38.4320   26.5620   22.6910 O.3   611  EOZ611     -0.3568
      5  CAN       38.0400   28.8080   21.1310 C.3   611  EOZ611      0.1458
      6  CAS       37.6120   29.0480   19.6920 C.2   611  EOZ611      0.2530
      7  OAB       36.4160   28.8910   19.3890 O.2   611  EOZ611     -0.2725
      8  NAP       38.5210   29.4460   18.8040 N.am  611  EOZ611     -0.1788
      9  CAU       39.8020   29.7760   18.9440 C.ar  611  EOZ611      0.0749
     10  CAK       40.5450   29.8130   17.7720 C.ar  611  EOZ611      0.0332
     11  CAL       40.4700   29.8990   20.1670 C.ar  611  EOZ611      0.0233
     12  CAW       41.8500   30.0980   20.1920 C.ar  611  EOZ611      0.0824
     13  CAR       42.5870   30.4070   21.4990 C.2   611  EOZ611      0.3878
     14  OAA       43.8350   30.3480   21.4850 O.co2 611  EOZ611     -0.2406
     15  OAF       41.9070   30.7180   22.5050 O.co2 611  EOZ611     -0.2406
     16  CAM       42.5840   30.1070   19.0110 C.ar  611  EOZ611      0.0233
     17  CAV       41.9340   29.9490   17.7900 C.ar  611  EOZ611      0.0749
     18  NAQ       42.6740   29.6940   16.7170 N.am  611  EOZ611     -0.1788
     19  CAT       42.1440   29.2480   15.5770 C.2   611  EOZ611      0.2530
     20  OAC       40.9470   28.9990   15.4290 O.2   611  EOZ611     -0.2725
     21  CAO       43.1510   29.0040   14.4490 C.3   611  EOZ611      0.1458
     22  PAY       42.3240   28.7270   12.8580 P.3   611  EOZ611      0.1264
     23  OAI       41.3230   27.4810   13.0950 O.3   611  EOZ611     -0.3568
     24  OAE       43.4530   28.2010   11.8310 O.2   611  EOZ611     -0.4596
     25  OAJ       41.6370   29.9430   12.3570 O.3   611  EOZ611     -0.3568
@<TRIPOS>BOND
     1    24    22    2
     2    25    22    1
     3    22    23    1
     4    22    21    1
     5    21    19    1
     6    20    19    2
     7    19    18   am
     8    18    17    1
     9    10    17   ar
    10    10     9   ar
    11    17    16   ar
    12     8     9    1
    13     8     6   am
    14     9    11   ar
    15    16    12   ar
    16     7     6    2
    17     6     5    1
    18    11    12   ar
    19    12    13    1
    20     3     2    2
    21     1     2    1
    22     5     2    1
    23     2     4    1
    24    14    13   ar
    25    13    15   ar
