@<TRIPOS>MOLECULE
2fzk_CTP_B_1.pdb
 29 30 0 0 0
SMALL
GASTEIGER

@<TRIPOS>ATOM
      1  N1        12.8590   81.8790   27.0940 N.am  901  CTP901     -0.1778
      2  C2        14.1190   82.4860   27.1990 C.1   901  CTP901      0.2756
      3  N3        14.4240   83.5700   26.3610 N.2   901  CTP901     -0.3024
      4  C4        13.4800   84.0450   25.4390 C.2   901  CTP901      0.2346
      5  C5        12.2310   83.4420   25.3420 C.2   901  CTP901      0.0687
      6  C6        11.9270   82.3620   26.1650 C.2   901  CTP901      0.0836
      7  O2        14.9380   82.0830   28.0220 O.2   901  CTP901     -0.1925
      8  N4        13.7660   85.0850   24.6590 N.pl3 901  CTP901     -0.0921
      9  C1'       12.4940   80.7290   27.9500 C.3   901  CTP901      0.2400
     10  C2'       11.5640   81.2110   29.0650 C.3   901  CTP901      0.2319
     11  O2'       12.3470   81.5430   30.2150 O.3   901  CTP901     -0.2157
     12  C3'       10.6930   79.9850   29.3510 C.3   901  CTP901      0.2158
     13  C4'       11.0180   79.0290   28.1990 C.3   901  CTP901      0.1799
     14  O4'       11.6600   79.8350   27.2000 O.3   901  CTP901     -0.3320
     15  O3'       11.0550   79.3950   30.6020 O.3   901  CTP901     -0.2175
     16  C5'        9.7270   78.4430   27.6210 C.3   901  CTP901      0.1813
     17  O5'        8.9460   79.4750   27.0120 O.3   901  CTP901     -0.3112
     18  PA         7.5290   79.1770   26.3070 P.3   901  CTP901      0.2189
     19  O1A        7.4470   77.6390   25.8380 O.3   901  CTP901     -0.4371
     20  O2A        7.3420   80.1370   25.0270 O.2   901  CTP901     -0.5170
     21  O3A        6.3480   79.4710   27.3550 O.3   901  CTP901     -0.2700
     22  PB         6.3260   78.6420   28.7330 P.3   901  CTP901      0.2277
     23  O1B        7.7650   78.8580   29.4250 O.2   901  CTP901     -0.5168
     24  O2B        5.2110   79.0390   29.6230 O.3   901  CTP901     -0.4368
     25  O3B        6.2570   77.0840   28.3400 O.3   901  CTP901     -0.2258
     26  PG         6.1890   75.9900   29.5200 P.3   901  CTP901      0.5373
     27  O1G        6.3880   74.5470   28.8340 O.2   901  CTP901     -0.2221
     28  O2G        7.4950   76.2270   30.4310 O.3   901  CTP901     -0.1143
     29  O3G        4.9420   76.0770   30.3130 O.3   901  CTP901     -0.1143
@<TRIPOS>BOND
     1     8     4    1
     2    20    18    2
     3     5     4    1
     4     5     6    2
     5     4     3    2
     6    19    18    1
     7     6     1    1
     8    18    17    1
     9    18    21    1
    10     3     2    2
    11    17    16    1
    12     1     2   am
    13     1     9    1
    14     2     7    2
    15    14     9    1
    16    14    13    1
    17    21    22    1
    18    16    13    1
    19     9    10    1
    20    13    12    1
    21    25    22    1
    22    25    26    1
    23    22    23    2
    24    22    24    1
    25    27    26    2
    26    10    12    1
    27    10    11    1
    28    12    15    1
    29    26    29    1
    30    26    28    1
