@<TRIPOS>MOLECULE
2fzs_CMQ_A_1.pdb
 31 32 0 0 0
SMALL
GASTEIGER

@<TRIPOS>ATOM
      1  O2        53.5930   78.5550   37.3200 O.2   501  CMQ501     -0.2245
      2  C1        52.3890   78.7370   37.0920 C.2   501  CMQ501      0.4218
      3  O1        51.5790   79.2570   38.1770 O.3   501  CMQ501     -0.4285
      4  C2        52.0570   80.5470   38.5660 C.3   501  CMQ501      0.2368
      5  C3        51.4740   81.0410   39.8440 C.ar  501  CMQ501      0.0213
      6  C4        51.9860   82.2340   40.3610 C.ar  501  CMQ501     -0.0007
      7  C5        51.4850   82.7430   41.5500 C.ar  501  CMQ501     -0.0002
      8  C6        50.4480   82.0690   42.2030 C.ar  501  CMQ501     -0.0000
      9  C7        49.9320   80.8740   41.6640 C.ar  501  CMQ501     -0.0002
     10  C8        50.4410   80.3420   40.4700 C.ar  501  CMQ501     -0.0007
     11  N1        51.7430   78.5470   35.9580 N.am  501  CMQ501     -0.1611
     12  C9        52.3060   78.0930   34.7070 C.3   501  CMQ501      0.1761
     13  C11       51.3290   77.0550   34.0790 C.3   501  CMQ501      0.0312
     14  C12       51.0640   75.7580   34.8640 C.3   501  CMQ501      0.0022
     15  C13       49.9600   74.8820   34.2310 C.3   501  CMQ501      0.0001
     16  C14       52.3350   74.9180   34.9750 C.3   501  CMQ501      0.0001
     17  C10       52.3130   79.2800   33.7620 C.2   501  CMQ501      0.2614
     18  O3        51.4430   80.1690   33.7920 O.2   501  CMQ501     -0.2715
     19  N2        53.2790   79.2790   32.8420 N.am  501  CMQ501     -0.2028
     20  C15       53.4420   80.3250   31.8260 C.3   501  CMQ501      0.1299
     21  C16       53.4610   79.4860   30.5370 C.3   501  CMQ501      0.1722
     22  O4        54.3140   78.3150   30.5740 O.3   501  CMQ501     -0.2213
     23  C24       52.0250   78.9630   30.3230 C.3   501  CMQ501      0.0374
     24  C17       54.7690   81.0380   32.1800 C.3   501  CMQ501      0.0506
     25  C18       54.7020   82.5470   31.9350 C.ar  501  CMQ501     -0.0202
     26  C19       55.6900   83.1510   31.1630 C.ar  501  CMQ501     -0.0009
     27  C21       55.6810   84.5270   30.9330 C.ar  501  CMQ501      0.0417
     28  C23       54.6870   85.3270   31.4750 C.ar  501  CMQ501      0.1957
     29  O5        54.6980   86.6810   31.2440 O.3   501  CMQ501     -0.2866
     30  C22       53.6980   84.7580   32.2940 C.ar  501  CMQ501      0.0417
     31  C20       53.7100   83.3570   32.5130 C.ar  501  CMQ501     -0.0009
@<TRIPOS>BOND
     1    23    21    1
     2    21    22    1
     3    21    20    1
     4    27    26   ar
     5    27    28   ar
     6    26    25   ar
     7    29    28    1
     8    28    30   ar
     9    20    24    1
    10    20    19    1
    11    25    24    1
    12    25    31   ar
    13    30    31   ar
    14    19    17   am
    15    17    18    2
    16    17    12    1
    17    13    12    1
    18    13    14    1
    19    15    14    1
    20    12    11    1
    21    14    16    1
    22    11     2   am
    23     2     1    2
    24     2     3    1
    25     3     4    1
    26     4     5    1
    27     5     6   ar
    28     5    10   ar
    29     6     7   ar
    30    10     9   ar
    31     7     8   ar
    32     9     8   ar
