@<TRIPOS>MOLECULE
2fzw_NAD_A_1.pdb
 44 48 0 0 0
SMALL
GASTEIGER

@<TRIPOS>ATOM
      1  PA        59.8410    9.5270    2.0810 P.3   1377  NAD1377     0.2189
      2  O1A       58.5770    8.8110    1.8280 O.3   1377  NAD1377    -0.4371
      3  O2A       60.8580    9.0720    1.1190 O.2   1377  NAD1377    -0.5170
      4  O5B       60.3450    9.2460    3.5500 O.3   1377  NAD1377    -0.3112
      5  C5B       59.3310    9.0760    4.5550 C.3   1377  NAD1377     0.1813
      6  C4B       59.9210    8.0530    5.5200 C.3   1377  NAD1377     0.1821
      7  O4B       59.1010    8.0590    6.6840 O.3   1377  NAD1377    -0.3135
      8  C3B       59.9720    6.6370    4.8810 C.3   1377  NAD1377     0.2184
      9  O3B       61.2520    6.0440    5.1400 O.3   1377  NAD1377    -0.2174
     10  C2B       58.9050    5.9720    5.7770 C.3   1377  NAD1377     0.2570
     11  O2B       59.2180    4.5830    5.9600 O.3   1377  NAD1377    -0.2130
     12  C1B       59.0960    6.7190    7.1060 C.3   1377  NAD1377     0.3186
     13  N9A       57.9490    6.5450    7.9530 N.pl3 1377  NAD1377    -0.1439
     14  C8A       56.5940    6.5320    7.6320 C.3   1377  NAD1377     0.3377
     15  N7A       55.7900    6.3480    8.7600 N.2   1377  NAD1377    -0.2095
     16  C5A       56.7160    6.2460    9.7810 C.2   1377  NAD1377     0.2526
     17  C6A       56.4910    6.1910   11.1390 C.2   1377  NAD1377     0.4393
     18  N6A       55.2470    6.0550   11.6410 N.pl3 1377  NAD1377     0.2180
     19  N1A       57.5920    6.2560   11.9920 N.2   1377  NAD1377     0.0021
     20  C2A       58.8820    6.3800   11.4670 C.3   1377  NAD1377     0.5254
     21  N3A       59.1080    6.4360   10.0960 N.2   1377  NAD1377    -0.0055
     22  C4A       57.9790    6.3660    9.3050 C.2   1377  NAD1377     0.3518
     23  O3        59.5350   11.1070    2.0040 O.3   1377  NAD1377    -0.2703
     24  PN        60.5620   12.3350    1.8530 P.3   1377  NAD1377     0.2189
     25  O1N       60.9140   12.5930    0.4390 O.2   1377  NAD1377    -0.5170
     26  O2N       61.7780   12.0580    2.6510 O.3   1377  NAD1377    -0.4371
     27  O5D       59.7040   13.5710    2.4380 O.3   1377  NAD1377    -0.3112
     28  C5D       59.1930   13.5070    3.8190 C.3   1377  NAD1377     0.1813
     29  C4D       58.2270   14.5930    4.3050 C.3   1377  NAD1377     0.1799
     30  O4D       58.8370   15.9060    4.1300 O.3   1377  NAD1377    -0.3327
     31  C3D       56.9070   14.5450    3.4950 C.3   1377  NAD1377     0.2158
     32  O3D       55.8190   14.9530    4.3310 O.3   1377  NAD1377    -0.2175
     33  C2D       57.2260   15.6750    2.5120 C.3   1377  NAD1377     0.2309
     34  O2D       56.0040   16.1840    1.9520 O.3   1377  NAD1377    -0.2158
     35  C1D       57.8220   16.6880    3.5140 C.3   1377  NAD1377     0.2263
     36  N1N       58.2530   17.9100    2.6840 N.pl3 1377  NAD1377    -0.2787
     37  C2N       58.2900   19.1770    3.4000 C.3   1377  NAD1377     0.1244
     38  C3N       59.1450   20.1560    3.0410 C.2   1377  NAD1377     0.0544
     39  C7N       59.0790   21.3580    3.5970 C.2   1377  NAD1377     0.2818
     40  O7N       59.4440   22.3940    3.0000 O.2   1377  NAD1377    -0.2670
     41  N7N       58.6080   21.4600    4.8300 N.am  1377  NAD1377    -0.0839
     42  C4N       59.9760   19.9520    1.9090 C.2   1377  NAD1377     0.0033
     43  C5N       60.0470   18.7510    1.3280 C.2   1377  NAD1377     0.0157
     44  C6N       59.2520   17.6750    1.7130 C.2   1377  NAD1377     0.0633
@<TRIPOS>BOND
     1    25    24    2
     2     3     1    2
     3    43    44    2
     4    43    42    1
     5    44    36    1
     6     2     1    1
     7    24    23    1
     8    24    27    1
     9    24    26    1
    10    42    38    2
    11    34    33    1
    12    23     1    1
    13     1     4    1
    14    27    28    1
    15    33    31    1
    16    33    35    1
    17    36    37    1
    18    36    35    1
    19    40    39    2
    20    38    37    1
    21    38    39    1
    22    31    29    1
    23    31    32    1
    24    35    30    1
    25     4     5    1
    26    39    41   am
    27    28    29    1
    28    30    29    1
    29     5     6    1
    30     8     9    1
    31     8     6    1
    32     8    10    1
    33     6     7    1
    34    10    11    1
    35    10    12    1
    36     7    12    1
    37    12    13    1
    38    14    13    1
    39    14    15    1
    40    13    22    1
    41    15    16    2
    42    22    16    1
    43    22    21    2
    44    16    17    1
    45    21    20    1
    46    17    18    1
    47    17    19    2
    48    20    19    1
