@<TRIPOS>MOLECULE
2fzz_5QC_A_1.pdb
 43 49 0 0 0
SMALL
GASTEIGER

@<TRIPOS>ATOM
      1  F         25.8170   26.3860   63.4850 F       1  5QC1       -0.1644
      2  F1        25.6410   27.7750   65.1970 F       1  5QC1       -0.1644
      3  F2        25.0350   25.6540   65.4070 F       1  5QC1       -0.1644
      4  O3        16.2800   27.6280   65.7490 O.2     1  5QC1       -0.3520
      5  O1        20.3600   28.9070   61.6560 O.2     1  5QC1       -0.2679
      6  N         16.3940   28.4640   66.7810 N.ar    1  5QC1       -0.0586
      7  N1        18.2730   29.6520   67.7210 N.pl3   1  5QC1       -0.1037
      8  N2        21.5750   27.4090   63.8500 N.ar    1  5QC1       -0.2256
      9  N3        22.5580   26.7890   64.5770 N.ar    1  5QC1       -0.1613
     10  N4        22.3870   29.9110   61.3100 N.am    1  5QC1       -0.2536
     11  C         17.4480   27.4180   65.1380 C.ar    1  5QC1        0.1783
     12  C1        18.4640   28.1970   65.8180 C.ar    1  5QC1        0.0766
     13  C2        17.7070   28.8230   66.8430 C.ar    1  5QC1        0.2110
     14  C3        17.8530   26.5840   63.9850 C.ar    1  5QC1        0.0418
     15  C4        19.2640   26.5570   63.5280 C.ar    1  5QC1        0.0224
     16  C5        20.2650   27.3800   64.2360 C.ar    1  5QC1        0.0832
     17  C6        19.8650   28.2020   65.3930 C.ar    1  5QC1        0.0253
     18  C7        23.7580   27.1160   64.0630 C.ar    1  5QC1        0.1702
     19  C8        23.5290   27.9660   62.9730 C.ar    1  5QC1        0.0251
     20  C9        22.1510   28.1450   62.8540 C.ar    1  5QC1        0.1339
     21  C10       25.1310   26.7090   64.5610 C.3     1  5QC1        0.4362
     22  C13       21.5590   28.9940   61.9140 C.2     1  5QC1        0.2702
     23  C14       21.9050   30.7520   60.3440 C.ar    1  5QC1        0.0542
     24  C15       22.0090   32.1730   60.6140 C.ar    1  5QC1        0.0149
     25  C16       21.4020   33.1150   59.6950 C.ar    1  5QC1        0.0013
     26  C17       20.6900   32.6280   58.4980 C.ar    1  5QC1       -0.0002
     27  C18       20.6350   31.1850   58.2150 C.ar    1  5QC1        0.0013
     28  C19       21.2470   30.2330   59.1380 C.ar    1  5QC1        0.0149
     29  C24       19.9970   33.6230   57.5700 C.ar    1  5QC1       -0.0027
     30  C25       20.2620   33.7280   56.1330 C.ar    1  5QC1       -0.0061
     31  C11       21.3210   32.8530   55.4260 C.3     1  5QC1        0.0992
     32  N7        22.4710   33.6470   54.9410 N.3     1  5QC1       -0.2667
     33  C20       23.5700   32.9920   54.1820 C.3     1  5QC1        0.0751
     34  C23       23.0880   34.4430   56.0250 C.3     1  5QC1        0.1056
     35  C12       18.9480   34.5120   58.1070 C.ar    1  5QC1       -0.0003
     36  C21       18.2420   35.4380   57.2250 C.ar    1  5QC1       -0.0000
     37  C22       19.5360   34.6760   55.2550 C.ar    1  5QC1       -0.0029
     38  C26       18.5230   35.5560   55.8080 C.ar    1  5QC1       -0.0003
     39  C27       24.4880   33.8480   56.0850 C.3     1  5QC1        0.1693
     40  C28       24.8140   33.7950   54.5920 C.3     1  5QC1        0.0517
     41  O2        25.2570   34.7170   56.7070 O.3     1  5QC1       -0.2216
     42  C29       23.8010   30.0250   61.7500 C.3     1  5QC1        0.1033
     43  C31       24.4750   28.6630   62.0280 C.3     1  5QC1        0.0514
@<TRIPOS>BOND
     1    33    40    1
     2    33    32    1
     3    40    39    1
     4    32    31    1
     5    32    34    1
     6    37    38   ar
     7    37    30   ar
     8    31    30    1
     9    38    36   ar
    10    34    39    1
    11    39    41    1
    12    30    29   ar
    13    36    35   ar
    14    29    35   ar
    15    29    26    1
    16    27    26   ar
    17    27    28   ar
    18    26    25   ar
    19    28    23   ar
    20    25    24   ar
    21    23    24   ar
    22    23    10    1
    23    10    42    1
    24    10    22   am
    25     5    22    2
    26    42    43    1
    27    22    20    1
    28    43    19    1
    29    20    19   ar
    30    20     8   ar
    31    19    18   ar
    32     1    21    1
    33    15    14   ar
    34    15    16   ar
    35     8    16    1
    36     8     9   ar
    37    14    11   ar
    38    18    21    1
    39    18     9   ar
    40    16    17   ar
    41    21     2    1
    42    21     3    1
    43    11     4   ar
    44    11    12   ar
    45    17    12   ar
    46     4     6   ar
    47    12    13   ar
    48     6    13   ar
    49    13     7    1
