@<TRIPOS>MOLECULE
2g00_4QC_A_1.pdb
 39 43 0 0 0
SMALL
GASTEIGER

@<TRIPOS>ATOM
      1  C1        17.9420    8.0900   52.8610 C.ar  711  4QC711      0.0582
      2  C2        17.3350    7.3230   51.7740 C.2   711  4QC711      0.2842
      3  C3        17.7890    9.8600   54.5940 C.ar  711  4QC711      0.0017
      4  C7        23.6330    8.6040   54.0410 C.ar  711  4QC711      0.1702
      5  C8        23.3750    7.6900   55.0820 C.ar  711  4QC711      0.0251
      6  C9        21.9980    7.6710   55.3320 C.ar  711  4QC711      0.1339
      7  C10       25.0340    8.9760   53.5740 C.3   711  4QC711      0.4362
      8  C11       21.7100    2.7740   62.7150 C.3   711  4QC711      0.0992
      9  C12       23.6980    6.4190   57.1880 C.3   711  4QC711      0.1033
     10  C13       21.4300    6.8990   56.3850 C.2   711  4QC711      0.2702
     11  C14       21.6300    5.2120   58.0030 C.ar  711  4QC711      0.0542
     12  C15       20.8930    5.6660   59.2160 C.ar  711  4QC711      0.0149
     13  C16       20.3080    4.6610   60.1010 C.ar  711  4QC711      0.0013
     14  C19       21.6900    3.7720   57.6530 C.ar  711  4QC711      0.0149
     15  C20       23.0220    1.5410   64.5820 C.3   711  4QC711      0.0899
     16  C21       18.7440    1.3640   60.4190 C.ar  711  4QC711     -0.0003
     17  C22       18.1150    0.4670   61.3980 C.ar  711  4QC711     -0.0000
     18  C24       24.2800    6.7150   55.8140 C.3   711  4QC711      0.0514
     19  C27       19.9000    2.1880   60.8220 C.ar  711  4QC711     -0.0027
     20  F         25.5040    7.9250   52.9820 F     711  4QC711     -0.1644
     21  F1        25.8180    9.3320   54.5800 F     711  4QC711     -0.1644
     22  F2        24.9400    9.9730   52.7200 F     711  4QC711     -0.1644
     23  O1        20.2190    6.8920   56.6430 O.2   711  4QC711     -0.2679
     24  N2        21.4130    8.5220   54.4170 N.ar  711  4QC711     -0.2256
     25  N3        22.4250    9.0850   53.6560 N.ar  711  4QC711     -0.1613
     26  N4        22.2510    6.1330   57.1530 N.am  711  4QC711     -0.2536
     27  C         17.1290    9.0610   53.5800 C.ar  711  4QC711      0.0047
     28  C4        19.2210    9.6680   54.8670 C.ar  711  4QC711      0.0192
     29  C5        20.0420    8.6850   54.1440 C.ar  711  4QC711      0.0831
     30  C6        19.3810    7.8760   53.1190 C.ar  711  4QC711      0.0238
     31  C17       20.4420    3.2030   59.8060 C.ar  711  4QC711     -0.0002
     32  C18       21.1010    2.7730   58.5430 C.ar  711  4QC711      0.0013
     33  C25       20.4010    2.0290   62.2270 C.ar  711  4QC711     -0.0061
     34  N7        22.2770    2.7360   64.1100 N.3   711  4QC711     -0.2665
     35  C23       23.1330    3.8910   64.4550 C.3   711  4QC711      0.0899
     36  O2        15.9270    7.2360   51.3860 O.2   711  4QC711     -0.2667
     37  N1        18.1830    6.6630   51.0850 N.am  711  4QC711     -0.0837
     38  C28       18.5790    0.3260   62.7980 C.ar  711  4QC711     -0.0003
     39  C29       19.7380    1.1350   63.1890 C.ar  711  4QC711     -0.0029
@<TRIPOS>BOND
     1    37     2   am
     2    36     2    2
     3     2     1    1
     4    22     7    1
     5     1    30   ar
     6     1    27   ar
     7    20     7    1
     8    30    29   ar
     9     7     4    1
    10     7    21    1
    11    27     3   ar
    12    25     4   ar
    13    25    24   ar
    14     4     5   ar
    15    29    24    1
    16    29    28   ar
    17    24     6   ar
    18     3    28   ar
    19     5     6   ar
    20     5    18    1
    21     6    10    1
    22    18     9    1
    23    10    23    2
    24    10    26   am
    25    26     9    1
    26    26    11    1
    27    14    11   ar
    28    14    32   ar
    29    11    12   ar
    30    32    31   ar
    31    12    13   ar
    32    31    13   ar
    33    31    19    1
    34    16    19   ar
    35    16    17   ar
    36    19    33   ar
    37    17    38   ar
    38    33     8    1
    39    33    39   ar
    40     8    34    1
    41    38    39   ar
    42    34    35    1
    43    34    15    1
