@<TRIPOS>MOLECULE
2g01_73Q_A_1.pdb
 18 20 0 0 0
SMALL
GASTEIGER

@<TRIPOS>ATOM
      1  C1        25.7510   96.7380   26.1430 C.3   901  73Q901      0.0543
      2  C2        25.5430   95.2700   26.3870 C.ar  901  73Q901      0.0896
      3  N1        25.6710   94.2940   25.4560 N.ar  901  73Q901     -0.1688
      4  N2        25.3980   93.0770   26.0440 N.ar  901  73Q901     -0.1938
      5  C3        25.4350   91.8060   25.3530 C.3   901  73Q901      0.1598
      6  C4        25.1020   93.2460   27.3070 C.ar  901  73Q901      0.3185
      7  N3        24.7480   92.3610   28.3350 N.4   901  73Q901     -0.1946
      8  O1        24.6660   91.0390   28.0800 O.co2 901  73Q901     -0.5482
      9  C5        24.4720   92.7790   29.6060 C.ar  901  73Q901      0.2322
     10  C6        24.0950   91.9410   30.7060 C.ar  901  73Q901      0.0708
     11  C7        23.8200   92.4010   31.9910 C.ar  901  73Q901      0.0175
     12  C8        23.9130   93.8100   32.2750 C.ar  901  73Q901      0.0582
     13 CL         23.5990   94.4580   33.8100 Cl    901  73Q901     -0.0822
     14  C9        24.2770   94.6700   31.2340 C.ar  901  73Q901      0.0206
     15  C10       24.5550   94.1970   29.9160 C.ar  901  73Q901      0.1040
     16  C11       24.9210   95.1330   28.8680 C.2   901  73Q901      0.2100
     17  O2        24.9950   96.3800   29.1240 O.2   901  73Q901     -0.2860
     18  C12       25.1890   94.6860   27.5830 C.ar  901  73Q901      0.1381
@<TRIPOS>UNITY_ATOM_ATTR
7 1
charge 1
8 1
charge -1
@<TRIPOS>BOND
     1     5     4    1
     2     3     4   ar
     3     3     2   ar
     4     4     6   ar
     5     1     2    1
     6     2    18   ar
     7     6    18   ar
     8     6     7    1
     9    18    16    1
    10     8     7    1
    11     7     9    1
    12    16    17    2
    13    16    15    1
    14     9    15   ar
    15     9    10   ar
    16    15    14   ar
    17    10    11   ar
    18    14    12   ar
    19    11    12   ar
    20    12    13    1
