@<TRIPOS>MOLECULE
2g06_PIN_A_1.pdb
 18 18 0 0 0
SMALL
GASTEIGER

@<TRIPOS>ATOM
      1  C1        57.9080   60.9000   14.8090 C.3   1001  PIN1001     0.1225
      2  C2        56.5540   60.2790   15.1170 C.3   1001  PIN1001     0.0939
      3  N1        56.7010   59.3580   16.2510 N.3   1001  PIN1001    -0.2689
      4  C3        55.5270   58.4810   16.2740 C.3   1001  PIN1001     0.0897
      5  C4        56.7700   60.0970   17.5230 C.3   1001  PIN1001     0.0897
      6  C1'       55.7750   56.0570   20.1290 C.3   1001  PIN1001     0.1225
      7  C2'       56.7750   56.8900   19.3490 C.3   1001  PIN1001     0.0939
      8  N1'       56.0740   57.9480   18.6270 N.3   1001  PIN1001    -0.2689
      9  C3'       56.9710   59.1210   18.6710 C.3   1001  PIN1001     0.0897
     10  C4'       55.8050   57.3870   17.2920 C.3   1001  PIN1001     0.0897
     11  S1        57.7250   62.5380   14.6210 S.3   1001  PIN1001    -0.1946
     12  S1'       56.3790   55.8220   21.6570 S.3   1001  PIN1001    -0.1946
     13  O1        58.9660   63.2260   15.0460 O.3   1001  PIN1001    -0.3074
     14  O2        56.6120   63.0150   15.4680 O.3   1001  PIN1001    -0.3074
     15  O3        57.4170   62.7940   13.2010 O.3   1001  PIN1001    -0.3074
     16  O1'       57.7660   55.3030   21.5710 O.3   1001  PIN1001    -0.3074
     17  O2'       55.5140   54.8230   22.3310 O.3   1001  PIN1001    -0.3074
     18  O3'       56.3700   57.0910   22.4360 O.3   1001  PIN1001    -0.3074
@<TRIPOS>BOND
     1    15    11    1
     2    11     1    1
     3    11    13    1
     4    11    14    1
     5     1     2    1
     6     2     3    1
     7     3     4    1
     8     3     5    1
     9     4    10    1
    10    10     8    1
    11     5     9    1
    12     8     9    1
    13     8     7    1
    14     7     6    1
    15     6    12    1
    16    16    12    1
    17    12    17    1
    18    12    18    1
