@<TRIPOS>MOLECULE
2g09_PIN_A_1.pdb
 18 18 0 0 0
SMALL
GASTEIGER

@<TRIPOS>ATOM
      1  C1        56.1840   60.9640   14.6580 C.3   905  PIN905      0.1225
      2  C2        57.0030   59.6990   14.9410 C.3   905  PIN905      0.0939
      3  N1        56.6550   59.0390   16.2220 N.3   905  PIN905     -0.2689
      4  C3        55.4020   58.2780   16.1270 C.3   905  PIN905      0.0897
      5  C4        56.5370   59.9450   17.3730 C.3   905  PIN905      0.0897
      6  C1'       57.2660   56.6970   20.3920 C.3   905  PIN905      0.1225
      7  C2'       56.9710   56.7360   18.8900 C.3   905  PIN905      0.0939
      8  N1'       55.9590   57.7550   18.5610 N.3   905  PIN905     -0.2689
      9  C3'       56.5760   59.1150   18.6590 C.3   905  PIN905      0.0897
     10  C4'       55.3470   57.2780   17.2880 C.3   905  PIN905      0.0897
     11  S1        57.2190   62.4570   14.4440 S.3   905  PIN905     -0.1946
     12  S1'       56.7960   55.1070   21.1560 S.3   905  PIN905     -0.1946
     13  O1        58.3730   62.4220   15.3980 O.3   905  PIN905     -0.3074
     14  O2        56.3900   63.6760   14.6980 O.3   905  PIN905     -0.3074
     15  O3        57.7370   62.5140   13.0390 O.3   905  PIN905     -0.3074
     16  O1'       57.7520   54.7720   22.2640 O.3   905  PIN905     -0.3074
     17  O2'       55.4020   55.2350   21.7020 O.3   905  PIN905     -0.3074
     18  O3'       56.8280   54.0090   20.1280 O.3   905  PIN905     -0.3074
@<TRIPOS>BOND
     1    15    11    1
     2    11     1    1
     3    11    14    1
     4    11    13    1
     5     1     2    1
     6     2     3    1
     7     4     3    1
     8     4    10    1
     9     3     5    1
    10    10     8    1
    11     5     9    1
    12     8     9    1
    13     8     7    1
    14     7     6    1
    15    18    12    1
    16     6    12    1
    17    12    17    1
    18    12    16    1
