@<TRIPOS>MOLECULE
2g0b_NLT_A_1.pdb
 26 26 0 0 0
SMALL
GASTEIGER

@<TRIPOS>ATOM
      1  N          6.9160  149.2820   20.7920 N.am  400  NLT400     -0.1952
      2  C1         7.0950  150.5400   20.3710 C.2   400  NLT400      0.2418
      3  OL         6.7620  150.9380   19.2600 O.2   400  NLT400     -0.2733
      4  C2         7.7750  151.4780   21.3560 C.3   400  NLT400      0.0868
      5  C3         7.1000  152.8540   21.4310 C.3   400  NLT400      0.0096
      6  C4         8.0620  153.9300   21.9610 C.3   400  NLT400      0.0005
      7  C5         7.3930  155.3080   22.0080 C.3   400  NLT400      0.0000
      8  C6         8.1730  156.3210   22.8460 C.3   400  NLT400      0.0000
      9  C7         7.3270  157.5520   23.1770 C.3   400  NLT400      0.0000
     10  C8         8.2020  158.7320   23.5830 C.3   400  NLT400      0.0000
     11  C9         7.3910  159.9710   23.9890 C.3   400  NLT400      0.0000
     12  C10        8.0680  160.6260   25.1920 C.3   400  NLT400      0.0000
     13  C11        7.3000  161.8070   25.7850 C.3   400  NLT400      0.0000
     14  C12        8.1900  162.5590   26.7760 C.3   400  NLT400      0.0000
     15  CA         6.3870  148.1940   19.9680 C.3   400  NLT400      0.2020
     16  CB         6.3630  146.8950   20.7670 C.3   400  NLT400      0.0596
     17  CG         7.6760  146.1500   20.6550 C.ar  400  NLT400     -0.0197
     18  CD2        8.1490  145.7390   19.4160 C.ar  400  NLT400     -0.0009
     19  CE2        9.3500  145.0590   19.3220 C.ar  400  NLT400      0.0417
     20  CZ        10.0700  144.7750   20.4650 C.ar  400  NLT400      0.1957
     21  CE1        9.6050  145.1880   21.7070 C.ar  400  NLT400      0.0417
     22  CD1        8.4060  145.8740   21.8030 C.ar  400  NLT400     -0.0009
     23  OH        11.2180  144.1210   20.3720 O.3   400  NLT400     -0.2866
     24  C          4.9800  148.4480   19.5130 C.2   400  NLT400      0.3845
     25  O          4.2020  149.0270   20.3010 O.co2 400  NLT400     -0.2437
     26  O2         4.6290  148.0720   18.3650 O.co2 400  NLT400     -0.2437
@<TRIPOS>BOND
     1    26    24   ar
     2     3     2    2
     3    19    18   ar
     4    19    20   ar
     5    18    17   ar
     6    24    15    1
     7    24    25   ar
     8    15    16    1
     9    15     1    1
    10     2     1   am
    11     2     4    1
    12    23    20    1
    13    20    21   ar
    14    17    16    1
    15    17    22   ar
    16     4     5    1
    17     5     6    1
    18    21    22   ar
    19     6     7    1
    20     7     8    1
    21     8     9    1
    22     9    10    1
    23    10    11    1
    24    11    12    1
    25    12    13    1
    26    13    14    1
