@<TRIPOS>MOLECULE
2g0e_CGQ_D_1.pdb
 26 27 0 0 0
SMALL
GASTEIGER

@<TRIPOS>ATOM
      1  C1       -60.1130  -45.4240   -1.0200 C.ar  3025  CGQ3025     0.0975
      2  C2       -59.9510  -45.1620    0.3380 C.ar  3025  CGQ3025     0.0096
      3  C3       -60.9460  -45.5290    1.2400 C.ar  3025  CGQ3025     0.0226
      4  C4       -62.1070  -46.1470    0.7850 C.ar  3025  CGQ3025     0.0017
      5  C5       -62.2720  -46.4140   -0.5700 C.ar  3025  CGQ3025     0.0003
      6  C6       -61.2710  -46.0540   -1.4670 C.ar  3025  CGQ3025     0.0080
      7  C7       -60.7580  -45.3490    2.6060 C.2   3025  CGQ3025     0.1397
      8  N8       -61.7010  -45.7760    3.4240 N.2   3025  CGQ3025    -0.0680
      9  C9       -59.1410  -45.0320   -1.9340 C.2   3025  CGQ3025     0.4766
     10  N10      -58.0580  -44.3790   -1.5240 N.pl3 3025  CGQ3025     0.2047
     11  N11      -59.2880  -45.3050   -3.2280 N.pl3 3025  CGQ3025     0.2047
     12  N12      -61.6100  -45.6730    4.6460 N.pl3 3025  CGQ3025     0.0556
     13  C13      -62.6220  -46.1290    5.3790 C.cat 3025  CGQ3025     0.5408
     14  N15      -63.6800  -46.6580    4.7730 N.pl3 3025  CGQ3025     0.1360
     15  N19      -62.5930  -46.0660    6.7060 N.pl3 3025  CGQ3025     0.0209
     16  N20      -63.6710  -46.5410    7.3860 N.3   3025  CGQ3025    -0.0141
     17  C21      -63.4940  -46.4590    8.7010 C.3   3025  CGQ3025     0.1608
     18  C22      -64.5890  -46.5840    9.5480 C.ar  3025  CGQ3025    -0.0010
     19  C23      -64.4020  -46.5810   10.9260 C.ar  3025  CGQ3025    -0.0028
     20  C24      -65.4840  -46.7780   11.7810 C.ar  3025  CGQ3025    -0.0000
     21  C25      -66.7570  -46.9710   11.2560 C.ar  3025  CGQ3025     0.0080
     22  C26      -66.9510  -46.9690    9.8770 C.ar  3025  CGQ3025     0.0972
     23  C27      -65.8670  -46.7800    9.0270 C.ar  3025  CGQ3025     0.0052
     24  C28      -68.2330  -47.1230    9.3570 C.2   3025  CGQ3025     0.4766
     25  N29      -69.2840  -47.1580   10.1710 N.pl3 3025  CGQ3025     0.2047
     26  N30      -68.4150  -47.2390    8.0450 N.pl3 3025  CGQ3025     0.2047
@<TRIPOS>BOND
     1    11     9    2
     2     9    10    1
     3     9     1    1
     4     6     1   ar
     5     6     5   ar
     6     1     2   ar
     7     5     4   ar
     8     2     3   ar
     9     4     3   ar
    10     3     7    1
    11     7     8    2
    12     8    12    1
    13    12    13    1
    14    14    13    2
    15    13    15    1
    16    15    16    1
    17    16    17    1
    18    26    24    2
    19    17    18    1
    20    23    18   ar
    21    23    22   ar
    22    24    22    1
    23    24    25    1
    24    18    19   ar
    25    22    21   ar
    26    19    20   ar
    27    21    20   ar
