@<TRIPOS>MOLECULE
2g0g_SP0_A_1.pdb
 28 31 0 0 0
SMALL
GASTEIGER

@<TRIPOS>ATOM
      1  C22        8.7880   -4.9270   34.9140 C.ar  101  SP0101      0.0499
      2  C23        7.8130   -4.2080   35.5880 C.ar  101  SP0101      0.1415
      3  F40        6.6150   -4.0840   34.9810 F     101  SP0101     -0.2041
      4  C24        8.0890   -3.6380   36.8280 C.ar  101  SP0101      0.0297
      5  C25        9.3410   -3.7680   37.4250 C.ar  101  SP0101      0.0037
      6  C26       10.3250   -4.4820   36.7540 C.ar  101  SP0101      0.0204
      7  C21       10.0290   -5.0510   35.5200 C.ar  101  SP0101      0.1293
      8  S18       11.2250   -5.9890   34.6800 S.O2  101  SP0101      0.0943
      9  O19       12.5760   -5.5080   35.1340 O.2   101  SP0101     -0.1483
     10  O20       10.9880   -5.8400   33.2030 O.2   101  SP0101     -0.1483
     11  N17       10.9860   -7.5790   34.9630 N.pl3 101  SP0101     -0.0771
     12  C9        11.2710   -8.2070   36.1040 C.ar  101  SP0101      0.1745
     13  C10       11.9300   -7.6960   37.1410 C.ar  101  SP0101      0.0590
     14  C6        11.9790   -8.6780   38.0360 C.ar  101  SP0101      0.1102
     15  C4        12.5830   -8.6240   39.2880 C.ar  101  SP0101      0.0489
     16  C5        13.1390   -7.6160   39.9520 C.ar  101  SP0101      0.0086
     17  C1        13.6760   -7.8890   41.1390 C.ar  101  SP0101      0.0075
     18  C2        13.6070   -9.1520   41.5440 C.ar  101  SP0101      0.0355
     19  S3        12.8020   -9.9810   40.2920 S.2   101  SP0101     -0.0849
     20  N7        11.3670   -9.7370   37.5060 N.ar  101  SP0101     -0.1633
     21  N8        10.9310   -9.4620   36.3870 N.ar  101  SP0101     -0.2129
     22  C11       10.3100  -10.3190   35.5720 C.ar  101  SP0101      0.0844
     23  C12       10.6890  -11.6600   35.5730 C.ar  101  SP0101      0.0215
     24  C13       10.0860  -12.5730   34.7220 C.ar  101  SP0101      0.0312
     25  C14        9.1010  -12.1160   33.8560 C.ar  101  SP0101      0.1402
     26  F27        8.4950  -12.9550   32.9970 F     101  SP0101     -0.2042
     27  C15        8.7200  -10.7830   33.8310 C.ar  101  SP0101      0.0312
     28  C16        9.3270   -9.8820   34.6930 C.ar  101  SP0101      0.0215
@<TRIPOS>BOND
     1    26    25    1
     2    10     8    2
     3    27    25   ar
     4    27    28   ar
     5    25    24   ar
     6     8    11    1
     7     8     9    2
     8     8     7    1
     9    28    22   ar
    10    24    23   ar
    11     1     7   ar
    12     1     2   ar
    13    11    12    1
    14     3     2    1
    15     7     6   ar
    16    22    23   ar
    17    22    21    1
    18     2     4   ar
    19    12    21   ar
    20    12    13   ar
    21    21    20   ar
    22     6     5   ar
    23     4     5   ar
    24    13    14   ar
    25    20    14   ar
    26    14    15    1
    27    15    16   ar
    28    15    19   ar
    29    16    17   ar
    30    19    18   ar
    31    17    18   ar
