@<TRIPOS>MOLECULE
2g0h_SP3_A_1.pdb
 35 38 0 0 0
SMALL
GASTEIGER

@<TRIPOS>ATOM
      1  C30      -10.3540   11.3820   35.5830 C.ar  101  SP3101      0.0215
      2  C31       -9.7910   12.2560   34.6640 C.ar  101  SP3101      0.0312
      3  C32       -8.7570   11.7870   33.8600 C.ar  101  SP3101      0.1402
      4  F35       -8.1890   12.5950   32.9480 F     101  SP3101     -0.2042
      5  C33       -8.2680   10.4920   33.9720 C.ar  101  SP3101      0.0312
      6  C34       -8.8510    9.6350   34.8910 C.ar  101  SP3101      0.0215
      7  C29       -9.8870   10.0760   35.7010 C.ar  101  SP3101      0.0844
      8  N8       -10.4450    9.2390   36.5790 N.ar  101  SP3101     -0.2129
      9  N7       -10.9410    9.5710   37.6570 N.ar  101  SP3101     -0.1633
     10  C6       -11.4550    8.5000   38.2680 C.ar  101  SP3101      0.1102
     11  C3       -12.1240    8.5130   39.4910 C.ar  101  SP3101      0.0489
     12  C2       -12.9840    7.6440   40.0240 C.ar  101  SP3101      0.0086
     13  C1       -13.5190    7.9830   41.2050 C.ar  101  SP3101      0.0075
     14  C5       -13.1600    9.1580   41.7170 C.ar  101  SP3101      0.0355
     15  S4       -12.0660    9.8170   40.5920 S.2   101  SP3101     -0.0849
     16  C10      -11.2470    7.4430   37.4870 C.ar  101  SP3101      0.0590
     17  C9       -10.6190    7.9280   36.4180 C.ar  101  SP3101      0.1745
     18  N11      -10.1940    7.2380   35.3590 N.pl3 101  SP3101     -0.0771
     19  S12      -10.6220    5.7300   34.9010 S.O2  101  SP3101      0.0942
     20  O13      -12.0770    5.5250   35.1850 O.2   101  SP3101     -0.1483
     21  O14      -10.3000    5.6180   33.4360 O.2   101  SP3101     -0.1483
     22  C15       -9.5950    4.6140   35.7050 C.ar  101  SP3101      0.1270
     23  C16       -8.4110    4.3180   35.0560 C.ar  101  SP3101      0.0241
     24  C20       -9.8990    4.0880   36.9530 C.ar  101  SP3101      0.0241
     25  C19       -9.0080    3.2050   37.5590 C.ar  101  SP3101      0.0727
     26  C25       -9.3510    2.5840   38.9290 C.3   101  SP3101      0.4186
     27  F28       -8.2250    2.0440   39.3990 F     101  SP3101     -0.1659
     28  F26       -9.8920    3.4760   39.7490 F     101  SP3101     -0.1659
     29  F27      -10.2880    1.6320   38.9470 F     101  SP3101     -0.1659
     30  C18       -7.8090    2.8900   36.9130 C.ar  101  SP3101      0.0078
     31  C17       -7.5220    3.4460   35.6650 C.ar  101  SP3101      0.0727
     32  C21       -6.2470    3.1730   34.8830 C.3   101  SP3101      0.4186
     33  F24       -6.6360    2.8410   33.6770 F     101  SP3101     -0.1659
     34  F22       -5.5390    4.2850   34.7820 F     101  SP3101     -0.1659
     35  F23       -5.5520    2.1500   35.3470 F     101  SP3101     -0.1659
@<TRIPOS>BOND
     1     4     3    1
     2    21    19    2
     3    33    32    1
     4     3     5   ar
     5     3     2   ar
     6     5     6   ar
     7     2     1   ar
     8    34    32    1
     9    32    35    1
    10    32    31    1
    11     6     7   ar
    12    19    20    2
    13    19    18    1
    14    19    22    1
    15    23    31   ar
    16    23    22   ar
    17    18    17    1
    18     1     7   ar
    19    31    30   ar
    20     7     8    1
    21    22    24   ar
    22    17     8   ar
    23    17    16   ar
    24     8     9   ar
    25    30    25   ar
    26    24    25   ar
    27    16    10   ar
    28    25    26    1
    29     9    10   ar
    30    10    11    1
    31    26    29    1
    32    26    27    1
    33    26    28    1
    34    11    12   ar
    35    11    15   ar
    36    12    13   ar
    37    15    14   ar
    38    13    14   ar
