@<TRIPOS>MOLECULE
2g0l_FLN_A_1.pdb
 27 29 0 0 0
SMALL
GASTEIGER

@<TRIPOS>ATOM
      1  O1         3.8390    5.8360    4.6380 O.2   114  FLN114     -0.4546
      2  C8A        4.5440    6.9810    4.3040 C.ar  114  FLN114      0.1392
      3  C4A        4.9140    7.2660    2.9800 C.ar  114  FLN114      0.0640
      4  C4         4.5400    6.2960    1.9070 C.ar  114  FLN114      0.1931
      5  C3         3.8000    5.1100    2.3340 C.ar  114  FLN114      0.0287
      6  C2         3.4840    4.9210    3.6480 C.ar  114  FLN114      0.1392
      7  C1'        2.7430    3.8130    4.3460 C.ar  114  FLN114      0.0174
      8  C2'        1.3740    3.9220    4.5980 C.ar  114  FLN114     -0.0511
      9  C3'        0.7020    2.8830    5.2510 C.ar  114  FLN114     -0.0611
     10  C4'        1.3460    1.7100    5.6770 C.ar  114  FLN114     -0.0617
     11  C5'        2.7180    1.6450    5.4020 C.ar  114  FLN114     -0.0611
     12  C6'        3.4120    2.6630    4.7550 C.ar  114  FLN114     -0.0511
     13  O4         4.8460    6.4980    0.7240 O.2   114  FLN114     -0.2870
     14  C5         5.6350    8.4560    2.7090 C.ar  114  FLN114     -0.0474
     15  C6         5.9610    9.3300    3.7620 C.ar  114  FLN114     -0.0609
     16  C7         5.5690    9.0090    5.0800 C.ar  114  FLN114     -0.0582
     17  C8         4.8620    7.8400    5.3540 C.ar  114  FLN114     -0.0186
     18  H3         3.5040    4.3650    1.5840 H     114  FLN114      0.0693
     19  H2'        0.8320    4.8130    4.2870 H     114  FLN114      0.0625
     20  H3'       -0.3660    2.9900    5.4380 H     114  FLN114      0.0618
     21  H4'        0.8130    0.9050    6.1860 H     114  FLN114      0.0618
     22  H5'        3.2690    0.7560    5.7100 H     114  FLN114      0.0618
     23  H6'        4.4800    2.5610    4.5660 H     114  FLN114      0.0625
     24  H5         5.9340    8.6950    1.6880 H     114  FLN114      0.0626
     25  H6         6.5150   10.2460    3.5640 H     114  FLN114      0.0618
     26  H7         5.8220    9.6870    5.8950 H     114  FLN114      0.0619
     27  H8         4.5610    7.6010    6.3750 H     114  FLN114      0.0654
@<TRIPOS>BOND
     1    13     4    2
     2    18     5    1
     3    24    14    1
     4     4     5   ar
     5     4     3   ar
     6     5     6   ar
     7    14     3   ar
     8    14    15   ar
     9     3     2   ar
    10    25    15    1
    11     6     7    1
    12     6     1   ar
    13    15    16   ar
    14    19     8    1
    15     2     1   ar
    16     2    17   ar
    17     7     8   ar
    18     7    12   ar
    19    23    12    1
    20     8     9   ar
    21    12    11   ar
    22    16    17   ar
    23    16    26    1
    24     9    20    1
    25     9    10   ar
    26    17    27    1
    27    11    10   ar
    28    11    22    1
    29    10    21    1
