@<TRIPOS>MOLECULE
2g0n_GDP_A_1.pdb
 28 30 0 0 0
SMALL
GASTEIGER

@<TRIPOS>ATOM
      1  PB       -17.6540    5.9060  -11.0410 P.3   501  GDP501      0.5373
      2  O1B      -18.1110    6.4860  -12.3270 O.2   501  GDP501     -0.2221
      3  O2B      -16.8790    6.8890  -10.2000 O.3   501  GDP501     -0.1143
      4  O3B      -16.7800    4.6770  -11.2790 O.3   501  GDP501     -0.1143
      5  O3A      -18.8630    5.4600  -10.0870 O.3   501  GDP501     -0.2261
      6  PA       -20.3870    5.1490  -10.5300 P.3   501  GDP501      0.2231
      7  O1A      -21.1830    6.3860  -10.8930 O.3   501  GDP501     -0.4370
      8  O2A      -20.4110    4.1200  -11.6170 O.2   501  GDP501     -0.5169
      9  O5'      -20.9750    4.5350   -9.1630 O.3   501  GDP501     -0.3111
     10  C5'      -20.2550    3.4710   -8.5420 C.3   501  GDP501      0.1813
     11  C4'      -21.1880    2.7400   -7.6070 C.3   501  GDP501      0.1799
     12  O4'      -21.5740    3.6250   -6.5510 O.3   501  GDP501     -0.3326
     13  C3'      -22.4690    2.2670   -8.2680 C.3   501  GDP501      0.2158
     14  O3'      -22.8610    1.0070   -7.6930 O.3   501  GDP501     -0.2175
     15  C2'      -23.4860    3.3020   -7.8980 C.3   501  GDP501      0.2310
     16  O2'      -24.8170    2.7870   -7.8180 O.3   501  GDP501     -0.2158
     17  C1'      -22.9890    3.7210   -6.5320 C.3   501  GDP501      0.2293
     18  N9       -23.3310    5.1130   -6.1840 N.pl3 501  GDP501     -0.2354
     19  C8       -23.0840    6.2170   -6.8950 C.3   501  GDP501      0.2246
     20  N7       -23.5360    7.3070   -6.2330 N.2   501  GDP501     -0.2322
     21  C5       -24.1010    6.8910   -5.0910 C.2   501  GDP501      0.2182
     22  C6       -24.7750    7.5280   -3.9410 C.1   501  GDP501      0.2372
     23  O6       -24.9370    8.7620   -3.8930 O.2   501  GDP501     -0.2069
     24  N1       -25.2140    6.7430   -2.9570 N.2   501  GDP501     -0.2485
     25  C2       -25.0640    5.4070   -2.9860 C.1   501  GDP501      0.2531
     26  N2       -25.5300    4.6760   -1.9540 N.pl3 501  GDP501     -0.0226
     27  N3       -24.4670    4.7520   -4.0190 N.2   501  GDP501     -0.3074
     28  C4       -23.9660    5.4440   -5.0630 C.2   501  GDP501      0.2300
@<TRIPOS>BOND
     1     2     1    2
     2     8     6    2
     3     4     1    1
     4     1     3    1
     5     1     5    1
     6     7     6    1
     7     6     5    1
     8     6     9    1
     9     9    10    1
    10    10    11    1
    11    13    15    1
    12    13    14    1
    13    13    11    1
    14    15    16    1
    15    15    17    1
    16    11    12    1
    17    19    20    1
    18    19    18    1
    19    12    17    1
    20    17    18    1
    21    20    21    2
    22    18    28    1
    23    21    28    1
    24    21    22    1
    25    28    27    2
    26    27    25    2
    27    22    23    2
    28    22    24    2
    29    25    24    2
    30    25    26    1
