@<TRIPOS>MOLECULE
2g0s_HEM_A_1.pdb
 43 50 0 0 0
SMALL
GASTEIGER

@<TRIPOS>ATOM
      1 FE         34.9870    4.2860   10.1480 Fe    154  HEM154      0.0000
      2  CHA       37.6300    2.5460   11.3740 C.2   154  HEM154      0.0000
      3  CHB       36.9090    5.3870    7.5750 C.2   154  HEM154      0.0000
      4  CHC       32.4240    6.2140    9.0570 C.2   154  HEM154      0.0000
      5  CHD       33.0920    3.2340   12.7590 C.2   154  HEM154      0.0000
      6  NA        36.8570    4.0320    9.5990 N.ar  154  HEM154      0.0000
      7  C1A       37.8320    3.2730   10.2210 C.ar  154  HEM154      0.0000
      8  C2A       39.0780    3.2950    9.4850 C.ar  154  HEM154      0.0000
      9  C3A       38.8710    4.0820    8.4090 C.ar  154  HEM154      0.0000
     10  C4A       37.4970    4.5420    8.4890 C.ar  154  HEM154      0.0000
     11  CMA       39.8700    4.3810    7.2990 C.3   154  HEM154      0.0000
     12  CAA       40.3440    2.4980    9.8060 C.3   154  HEM154      0.0000
     13  CBA       40.5090    1.2500    8.9300 C.3   154  HEM154      0.0000
     14  CGA       39.3010    0.3130    8.9780 C.2   154  HEM154      0.0000
     15  O1A       38.9680   -0.1950   10.0710 O.co2 154  HEM154      0.0000
     16  O2A       38.6840    0.0840    7.9170 O.co2 154  HEM154      0.0000
     17  NB        34.7090    5.4900    8.6200 N.2   154  HEM154      0.0000
     18  C1B       35.6100    5.8350    7.6300 C.2   154  HEM154      0.0000
     19  C2B       35.0260    6.7610    6.6770 C.2   154  HEM154      0.0000
     20  C3B       33.7600    6.9940    7.0940 C.2   154  HEM154      0.0000
     21  C4B       33.5750    6.2080    8.3010 C.2   154  HEM154      0.0000
     22  CMB       35.7070    7.3560    5.4450 C.3   154  HEM154      0.0000
     23  CAB       32.8060    7.7900    6.4680 C.3   154  HEM154      0.0000
     24  CBB       33.0470    9.1840    6.1510 C.3   154  HEM154      0.0000
     25  NC        33.1550    4.6260   10.7600 N.ar  154  HEM154      0.0000
     26  C1C       32.2310    5.4960   10.2180 C.ar  154  HEM154      0.0000
     27  C2C       31.0350    5.5760   11.0320 C.ar  154  HEM154      0.0000
     28  C3C       31.2140    4.7200   12.0700 C.ar  154  HEM154      0.0000
     29  C4C       32.5270    4.1350   11.8900 C.ar  154  HEM154      0.0000
     30  CMC       29.8320    6.4850   10.7920 C.3   154  HEM154      0.0000
     31  CAC       30.3050    4.4170   13.0850 C.3   154  HEM154      0.0000
     32  CBC       29.5850    5.4340   13.8260 C.3   154  HEM154      0.0000
     33  ND        35.2740    3.0920   11.6790 N.2   154  HEM154      0.0000
     34  C1D       34.3730    2.7430   12.6670 C.2   154  HEM154      0.0000
     35  C2D       34.9800    1.8900   13.6590 C.2   154  HEM154      0.0000
     36  C3D       36.2660    1.7350   13.2970 C.2   154  HEM154      0.0000
     37  C4D       36.4400    2.4650   12.0610 C.2   154  HEM154      0.0000
     38  CMD       34.3050    1.2880   14.8870 C.3   154  HEM154      0.0000
     39  CAD       37.3490    1.0490   14.1090 C.3   154  HEM154      0.0000
     40  CBD       38.0930    2.0180   15.0110 C.3   154  HEM154      0.0000
     41  CGD       39.1500    1.3280   15.8490 C.2   154  HEM154      0.0000
     42  O1D       38.7840    0.4820   16.6890 O.co2 154  HEM154      0.0000
     43  O2D       40.3450    1.6280   15.6640 O.co2 154  HEM154      0.0000
@<TRIPOS>BOND
     1    22    19    1
     2    24    23    1
     3    23    20    1
     4    19    20    2
     5    19    18    1
     6    20    21    1
     7    11     9    1
     8     3    18    1
     9     3    10    2
    10    18    17    2
    11    16    14   ar
    12    21    17    1
    13    21     4    2
    14     9    10   ar
    15     9     8   ar
    16    10     6   ar
    17    17     1    1
    18    13    14    1
    19    13    12    1
    20    14    15   ar
    21     4    26    1
    22     8    12    1
    23     8     7   ar
    24     6     1    1
    25     6     7   ar
    26     1    25    1
    27     1    33    1
    28    26    25   ar
    29    26    27   ar
    30     7     2    2
    31    25    29   ar
    32    30    27    1
    33    27    28   ar
    34     2    37    1
    35    33    37    2
    36    33    34    1
    37    29    28   ar
    38    29     5    1
    39    37    36    1
    40    28    31    1
    41    34     5    2
    42    34    35    1
    43    31    32    1
    44    36    35    2
    45    36    39    1
    46    35    38    1
    47    39    40    1
    48    40    41    1
    49    43    41   ar
    50    41    42   ar
