@<TRIPOS>MOLECULE
2g0v_HEM_A_1.pdb
 43 50 0 0 0
SMALL
GASTEIGER

@<TRIPOS>ATOM
      1 FE         35.0300    4.2680   10.1700 Fe    154  HEM154      0.0000
      2  CHA       37.6820    2.5460   11.4110 C.2   154  HEM154      0.0000
      3  CHB       36.9520    5.3800    7.6180 C.2   154  HEM154      0.0000
      4  CHC       32.4480    6.1660    9.0500 C.2   154  HEM154      0.0000
      5  CHD       33.1320    3.2120   12.7610 C.2   154  HEM154      0.0000
      6  NA        36.9080    4.0310    9.6390 N.ar  154  HEM154      0.0000
      7  C1A       37.8810    3.2710   10.2560 C.ar  154  HEM154      0.0000
      8  C2A       39.1320    3.3020    9.5200 C.ar  154  HEM154      0.0000
      9  C3A       38.9230    4.0990    8.4520 C.ar  154  HEM154      0.0000
     10  C4A       37.5470    4.5490    8.5360 C.ar  154  HEM154      0.0000
     11  CMA       39.9050    4.3900    7.3300 C.3   154  HEM154      0.0000
     12  CAA       40.3880    2.4850    9.8170 C.3   154  HEM154      0.0000
     13  CBA       40.5410    1.2560    8.9120 C.3   154  HEM154      0.0000
     14  CGA       39.3390    0.3110    8.9720 C.2   154  HEM154      0.0000
     15  O1A       39.0250   -0.1950   10.0700 O.co2 154  HEM154      0.0000
     16  O2A       38.7080    0.0730    7.9190 O.co2 154  HEM154      0.0000
     17  NB        34.7530    5.4780    8.6520 N.2   154  HEM154      0.0000
     18  C1B       35.6510    5.8120    7.6610 C.2   154  HEM154      0.0000
     19  C2B       35.0570    6.6970    6.6790 C.2   154  HEM154      0.0000
     20  C3B       33.7870    6.9250    7.0830 C.2   154  HEM154      0.0000
     21  C4B       33.6070    6.1680    8.3070 C.2   154  HEM154      0.0000
     22  CMB       35.7230    7.2350    5.4170 C.3   154  HEM154      0.0000
     23  CAB       32.8330    7.6870    6.4280 C.3   154  HEM154      0.0000
     24  CBB       32.9760    9.1220    6.2640 C.3   154  HEM154      0.0000
     25  NC        33.1890    4.5950   10.7630 N.ar  154  HEM154      0.0000
     26  C1C       32.2610    5.4570   10.2180 C.ar  154  HEM154      0.0000
     27  C2C       31.0740    5.5490   11.0380 C.ar  154  HEM154      0.0000
     28  C3C       31.2510    4.6890   12.0700 C.ar  154  HEM154      0.0000
     29  C4C       32.5630    4.1030   11.8890 C.ar  154  HEM154      0.0000
     30  CMC       29.9060    6.5040   10.8350 C.3   154  HEM154      0.0000
     31  CAC       30.3350    4.3740   13.0680 C.3   154  HEM154      0.0000
     32  CBC       29.8230    5.3640   13.9920 C.3   154  HEM154      0.0000
     33  ND        35.3230    3.0910   11.7070 N.2   154  HEM154      0.0000
     34  C1D       34.4200    2.7370   12.6840 C.2   154  HEM154      0.0000
     35  C2D       35.0220    1.8820   13.6810 C.2   154  HEM154      0.0000
     36  C3D       36.3110    1.7410   13.3330 C.2   154  HEM154      0.0000
     37  C4D       36.4900    2.4700   12.0980 C.2   154  HEM154      0.0000
     38  CMD       34.3360    1.2770   14.8960 C.3   154  HEM154      0.0000
     39  CAD       37.3910    1.0830   14.1610 C.3   154  HEM154      0.0000
     40  CBD       38.0500    2.0590   15.1150 C.3   154  HEM154      0.0000
     41  CGD       39.1200    1.4020   15.9580 C.2   154  HEM154      0.0000
     42  O1D       38.7730    0.5540   16.8040 O.co2 154  HEM154      0.0000
     43  O2D       40.3050    1.7300   15.7680 O.co2 154  HEM154      0.0000
@<TRIPOS>BOND
     1    22    19    1
     2    24    23    1
     3    23    20    1
     4    19    20    2
     5    19    18    1
     6    20    21    1
     7    11     9    1
     8     3    18    1
     9     3    10    2
    10    18    17    2
    11    16    14   ar
    12    21    17    1
    13    21     4    2
    14     9    10   ar
    15     9     8   ar
    16    10     6   ar
    17    17     1    1
    18    13    14    1
    19    13    12    1
    20    14    15   ar
    21     4    26    1
    22     8    12    1
    23     8     7   ar
    24     6     1    1
    25     6     7   ar
    26     1    25    1
    27     1    33    1
    28    26    25   ar
    29    26    27   ar
    30     7     2    2
    31    25    29   ar
    32    30    27    1
    33    27    28   ar
    34     2    37    1
    35    33    37    2
    36    33    34    1
    37    29    28   ar
    38    29     5    1
    39    28    31    1
    40    37    36    1
    41    34     5    2
    42    34    35    1
    43    31    32    1
    44    36    35    2
    45    36    39    1
    46    35    38    1
    47    39    40    1
    48    40    41    1
    49    43    41   ar
    50    41    42   ar
