@<TRIPOS>MOLECULE
2g19_4HG_A_1.pdb
 19 20 0 0 0
SMALL
GASTEIGER

@<TRIPOS>ATOM
      1  C1         6.4020   47.7320   23.9480 C.ar  801  4HG801      0.0002
      2  C2         5.6050   48.9260   24.1480 C.ar  801  4HG801      0.0055
      3  C3         4.3480   48.7720   24.8660 C.ar  801  4HG801      0.0277
      4  C4         5.8940   46.4670   24.4650 C.ar  801  4HG801     -0.0017
      5  C5         4.6200   46.3470   25.1780 C.ar  801  4HG801      0.0119
      6  C6         3.8010   47.5370   25.4050 C.ar  801  4HG801      0.0062
      7  C7         2.5610   47.4220   26.1700 C.3   801  4HG801      0.1519
      8  N1         2.1230   46.1910   26.7020 N.2   801  4HG801     -0.2625
      9  C8         2.9090   45.0360   26.4740 C.2   801  4HG801      0.1433
     10  C9         4.1520   45.0730   25.7050 C.3   801  4HG801      0.2178
     11  I1         3.2550   50.4520   25.2810 I     801  4HG801     -0.0428
     12  O1         4.8320   43.9350   25.5240 O.3   801  4HG801     -0.2116
     13  C10        2.3220   43.7880   27.0580 C.2   801  4HG801      0.2813
     14  C11        2.0190   41.4360   26.9670 C.3   801  4HG801      0.2288
     15  C12        2.6390   40.2040   26.3130 C.2   801  4HG801      0.3865
     16  O2         2.2230   39.0850   26.6550 O.co2 801  4HG801     -0.2437
     17  O3         1.4080   43.8810   27.8750 O.2   801  4HG801     -0.2670
     18  O4         3.5930   40.3510   25.5120 O.co2 801  4HG801     -0.2437
     19  N2         2.7750   42.5910   26.6780 N.am  801  4HG801     -0.1883
@<TRIPOS>BOND
     1     1     2   ar
     2     1     4   ar
     3     2     3   ar
     4     4     5   ar
     5     3    11    1
     6     3     6   ar
     7     5     6   ar
     8     5    10    1
     9     6     7    1
    10    18    15   ar
    11    12    10    1
    12    10     9    1
    13     7     8    1
    14    15    16   ar
    15    15    14    1
    16     9     8    2
    17     9    13    1
    18    19    14    1
    19    19    13   am
    20    13    17    2
