@<TRIPOS>MOLECULE
2g1a_5HG_A_1.pdb
 18 19 0 0 0
SMALL
GASTEIGER

@<TRIPOS>ATOM
      1  O36       16.7190    9.0680   10.9120 O.2   700  5HG700     -0.4576
      2  P30       17.5240    7.9570   11.5920 P.3   700  5HG700      0.1470
      3  O32       17.3950    6.5820   10.9460 O.3   700  5HG700     -0.3555
      4  O34       17.3400    7.9120   13.1010 O.3   700  5HG700     -0.3555
      5  C28       19.2520    8.4620   11.4140 C.3   700  5HG700      0.2003
      6  O26       20.0370    7.3700   11.9100 O.3   700  5HG700     -0.3416
      7  C24       21.1720    7.7550   12.6870 C.3   700  5HG700      0.1934
      8  C22       22.4100    7.6530   11.7890 C.3   700  5HG700      0.2363
      9  N17       23.6010    8.0930   12.5100 N.pl3 700  5HG700     -0.1651
     10  C15       24.5600    7.2730   12.9900 C.3   700  5HG700      0.3359
     11  N13       25.5510    7.9740   13.6150 N.2   700  5HG700     -0.2096
     12  C2        25.2110    9.2750   13.5440 C.2   700  5HG700      0.2525
     13  C3        23.9220    9.3510   12.8220 C.2   700  5HG700      0.3501
     14  N4        23.3410   10.5660   12.6240 N.2   700  5HG700     -0.0055
     15  C5        23.9320   11.6890   13.0690 C.3   700  5HG700      0.5254
     16  N6        25.1160   11.6900   13.7350 N.2   700  5HG700      0.0021
     17  C1        25.8060   10.5440   14.0040 C.2   700  5HG700      0.4393
     18  N20       26.9870   10.5500   14.6800 N.pl3 700  5HG700      0.2180
@<TRIPOS>BOND
     1     1     2    2
     2     3     2    1
     3     5     2    1
     4     5     6    1
     5     2     4    1
     6     8     9    1
     7     8     7    1
     8     6     7    1
     9     9    13    1
    10     9    10    1
    11    14    13    2
    12    14    15    1
    13    13    12    1
    14    10    11    1
    15    15    16    1
    16    12    11    2
    17    12    17    1
    18    16    17    2
    19    17    18    1
