@<TRIPOS>MOLECULE
2g1k_SKM_A_1.pdb
 12 12 0 0 0
SMALL
GASTEIGER

@<TRIPOS>ATOM
      1  O12      -33.2780   18.5910   17.9240 O.3   401  SKM401     -0.2173
      2  C8       -32.7210   18.4680   19.2460 C.3   401  SKM401      0.2167
      3  C6       -33.6570   17.6030   20.1120 C.3   401  SKM401      0.1896
      4  O7       -33.1050   17.4920   21.4300 O.3   401  SKM401     -0.2200
      5  C5       -33.8270   16.1780   19.5380 C.3   401  SKM401      0.0684
      6  C4       -32.5300   15.5910   18.9630 C.2   401  SKM401      0.0584
      7  C1       -32.5140   14.1650   18.5940 C.2   401  SKM401      0.3837
      8  O2       -31.4930   13.4830   18.6620 O.co2 401  SKM401     -0.2409
      9  O3       -33.6260   13.5610   18.1560 O.co2 401  SKM401     -0.2409
     10  C10      -31.4070   16.3440   18.7720 C.2   401  SKM401      0.0111
     11  C9       -31.3290   17.8170   19.1050 C.3   401  SKM401      0.2066
     12  O11      -30.6210   18.4870   18.0620 O.3   401  SKM401     -0.2155
@<TRIPOS>BOND
     1     1     2    1
     2    12    11    1
     3     9     7   ar
     4     7     8   ar
     5     7     6    1
     6    10     6    2
     7    10    11    1
     8     6     5    1
     9    11     2    1
    10     2     3    1
    11     5     3    1
    12     3     4    1
