@<TRIPOS>MOLECULE
2g1m_4HG_A_1.pdb
 19 20 0 0 0
SMALL
GASTEIGER

@<TRIPOS>ATOM
      1  C1        44.1940   18.3620    9.7700 C.ar  701  4HG701      0.0002
      2  C2        44.8640   19.5470   10.0440 C.ar  701  4HG701      0.0055
      3  C3        44.2420   20.5360   10.8060 C.ar  701  4HG701      0.0277
      4  C4        42.9100   18.1600   10.2670 C.ar  701  4HG701     -0.0017
      5  C5        42.2880   19.1440   11.0230 C.ar  701  4HG701      0.0119
      6  C6        42.9530   20.3330   11.2940 C.ar  701  4HG701      0.0062
      7  C7        42.3050   21.3040   12.0560 C.3   701  4HG701      0.1519
      8  N1        41.0750   21.1060   12.5030 N.2   701  4HG701     -0.2625
      9  C8        40.4020   19.9780   12.2400 C.2   701  4HG701      0.1433
     10  C9        40.9910   18.9680   11.4970 C.3   701  4HG701      0.2178
     11  I1        45.2610   22.3240   11.2010 I     701  4HG701     -0.0428
     12  O1        40.2800   17.8600   11.1770 O.3   701  4HG701     -0.2116
     13  C10       38.9710   19.8330   12.7640 C.2   701  4HG701      0.2813
     14  C11       36.8340   18.7100   12.6390 C.3   701  4HG701      0.2288
     15  C12       36.0860   17.6270   11.8600 C.2   701  4HG701      0.3865
     16  O2        34.8510   17.5830   12.0280 O.co2 701  4HG701     -0.2437
     17  O3        38.5590   20.6000   13.6300 O.2   701  4HG701     -0.2670
     18  O4        36.7490   16.8340   11.1600 O.co2 701  4HG701     -0.2437
     19  N2        38.2340   18.8680   12.2210 N.am  701  4HG701     -0.1883
@<TRIPOS>BOND
     1     1     2   ar
     2     1     4   ar
     3     2     3   ar
     4     4     5   ar
     5     3    11    1
     6     3     6   ar
     7     5     6   ar
     8     5    10    1
     9    18    15   ar
    10    12    10    1
    11     6     7    1
    12    10     9    1
    13    15    16   ar
    14    15    14    1
    15     7     8    1
    16    19    14    1
    17    19    13   am
    18     9     8    2
    19     9    13    1
    20    13    17    2
