@<TRIPOS>MOLECULE
2g1n_1IG_A_1.pdb
 29 31 0 0 0
SMALL
GASTEIGER

@<TRIPOS>ATOM
      1  C1        24.8970   71.6710   79.0080 C.2   885  1IG885      0.2201
      2  N1        25.8340   72.3870   78.3620 N.2   885  1IG885     -0.3112
      3  C2        25.9350   73.6730   78.7060 C.1   885  1IG885      0.2419
      4  N2        25.1760   74.2760   79.6400 N.2   885  1IG885     -0.3339
      5  C3        24.2250   73.5710   80.3030 C.2   885  1IG885      0.1122
      6  C4        24.0450   72.2020   80.0080 C.3   885  1IG885      0.1421
      7  N3        24.8060   70.3690   78.6490 N.pl3 885  1IG885     -0.0962
      8  N4        26.8480   74.4300   78.0960 N.pl3 885  1IG885     -0.0232
      9  C5        23.4200   74.3410   81.3320 C.3   885  1IG885      0.0563
     10  C6        24.1040   74.3770   82.6920 C.3   885  1IG885      0.0075
     11  C7        21.7080   71.2890   80.2730 C.ar  885  1IG885     -0.0028
     12  C8        20.8210   70.4140   80.9080 C.ar  885  1IG885      0.0071
     13  C9        21.2630   69.5600   81.9400 C.ar  885  1IG885      0.0393
     14  C10       22.6250   69.5690   82.3580 C.ar  885  1IG885      0.0592
     15  C11       23.4740   70.4860   81.6780 C.ar  885  1IG885      0.0120
     16  C12       23.0440   71.3180   80.6620 C.ar  885  1IG885     -0.0068
     17  S1        20.0310   68.5260   82.6360 S.3   885  1IG885     -0.1053
     18  C14       20.8880   67.5120   83.8410 C.3   885  1IG885      0.1122
     19  C15       22.4080   67.7920   84.1070 C.2   885  1IG885      0.2381
     20  N5        23.1390   68.7420   83.3930 N.am  885  1IG885     -0.2557
     21  C16       24.5850   68.8260   83.7980 C.3   885  1IG885      0.1216
     22  C17       24.8330   69.9330   84.8330 C.3   885  1IG885      0.1369
     23  N6        26.1090   70.5910   84.5670 N.am  885  1IG885     -0.2036
     24  C13       26.7030   71.3840   85.4830 C.2   885  1IG885      0.2419
     25  C19       28.0340   71.9750   85.0370 C.3   885  1IG885      0.0964
     26  C21       20.7520   66.0330   83.4290 C.3   885  1IG885      0.0204
     27  C20       20.1170   67.7840   85.1370 C.3   885  1IG885      0.0204
     28  O4        22.9330   67.1140   84.9830 O.2   885  1IG885     -0.2737
     29  O1        26.2590   71.6310   86.5880 O.2   885  1IG885     -0.2733
@<TRIPOS>BOND
     1     8     3    1
     2     2     3    2
     3     2     1    2
     4     7     1    1
     5     3     4    2
     6     1     6    1
     7     4     5    2
     8     6     5    1
     9     6    16    1
    10    11    16   ar
    11    11    12   ar
    12     5     9    1
    13    16    15   ar
    14    12    13   ar
    15     9    10    1
    16    15    14   ar
    17    13    14   ar
    18    13    17    1
    19    14    20    1
    20    17    18    1
    21    20    21    1
    22    20    19   am
    23    26    18    1
    24    21    22    1
    25    18    19    1
    26    18    27    1
    27    19    28    2
    28    23    22    1
    29    23    24   am
    30    25    24    1
    31    24    29    2
