@<TRIPOS>MOLECULE
2g1o_2IG_A_1.pdb
 28 31 0 0 0
SMALL
GASTEIGER

@<TRIPOS>ATOM
      1  C1         7.6800   95.4700  141.7070 C.2   885  2IG885      0.2201
      2  N1         7.0060   96.4310  142.3780 N.2   885  2IG885     -0.3112
      3  C2         7.2560   96.5310  143.6940 C.1   885  2IG885      0.2419
      4  N2         8.1090   95.7400  144.3610 N.2   885  2IG885     -0.3339
      5  C3         8.7950   94.7660  143.7060 C.2   885  2IG885      0.1122
      6  C4         8.6100   94.5920  142.3100 C.3   885  2IG885      0.1421
      7  N3         7.4130   95.4010  140.3860 N.pl3 885  2IG885     -0.0962
      8  N4         6.6240   97.4790  144.3990 N.pl3 885  2IG885     -0.0232
      9  C5         9.7440   93.9210  144.5580 C.3   885  2IG885      0.0563
     10  C6        11.1070   94.5830  144.7600 C.3   885  2IG885      0.0075
     11  C7         9.0720   92.1800  141.3840 C.ar  885  2IG885     -0.0033
     12  C8         9.9320   91.3350  140.5800 C.ar  885  2IG885      0.0012
     13  C9        11.0530   91.9160  139.9380 C.ar  885  2IG885      0.0172
     14  C10       11.3040   93.2710  140.0830 C.ar  885  2IG885      0.0596
     15  C11       10.4770   94.0870  140.8580 C.ar  885  2IG885      0.0138
     16  C12        9.3570   93.5670  141.5190 C.ar  885  2IG885     -0.0066
     17  N5        12.4300   93.6370  139.3830 N.ar  885  2IG885     -0.3271
     18  C13       12.9630   95.0200  139.3360 C.3   885  2IG885      0.1086
     19  C14       13.8410   95.3600  140.5560 C.3   885  2IG885      0.0565
     20  C15       13.9140   96.8670  140.8390 C.3   885  2IG885      0.1443
     21  O1        14.7420   97.1070  141.9680 O.3   885  2IG885     -0.3510
     22  C16       14.8980   98.4660  142.3310 C.3   885  2IG885      0.1741
     23  C17       14.0920   92.3870  137.9290 C.ar  885  2IG885      0.0172
     24  C18       12.9450   92.5200  138.7610 C.ar  885  2IG885      0.0599
     25  C19       12.1310   91.4100  139.0660 C.ar  885  2IG885      0.0172
     26  C20       12.4280   90.1270  138.5590 C.ar  885  2IG885      0.0015
     27  C21       13.5780   89.9740  137.7210 C.ar  885  2IG885      0.0001
     28  C22       14.4100   91.0960  137.4060 C.ar  885  2IG885      0.0015
@<TRIPOS>BOND
     1    28    27   ar
     2    28    23   ar
     3    27    26   ar
     4    23    24   ar
     5    26    25   ar
     6    24    25   ar
     7    24    17   ar
     8    25    13   ar
     9    18    17    1
    10    18    19    1
    11    17    14   ar
    12    13    14   ar
    13    13    12   ar
    14    14    15   ar
    15     7     1    1
    16    19    20    1
    17    12    11   ar
    18    20    21    1
    19    15    16   ar
    20    11    16   ar
    21    16     6    1
    22     1     6    1
    23     1     2    2
    24    21    22    1
    25     6     5    1
    26     2     3    2
    27     3     4    2
    28     3     8    1
    29     5     4    2
    30     5     9    1
    31     9    10    1
