@<TRIPOS>MOLECULE
2g1p_SAH_A_1.pdb
 26 28 0 0 0
SMALL
GASTEIGER

@<TRIPOS>ATOM
      1  N        -19.3710  -27.0800   31.6030 N.3   401  SAH401     -0.1208
      2  CA       -19.7640  -28.3480   32.3540 C.3   401  SAH401      0.1952
      3  CB       -20.8800  -29.1530   31.7790 C.3   401  SAH401      0.0422
      4  CG       -22.2270  -28.4790   31.5830 C.3   401  SAH401      0.0597
      5  SD       -23.3950  -29.7930   31.0530 S.3   401  SAH401     -0.1375
      6  C        -18.4600  -29.2370   32.4780 C.2   401  SAH401      0.3819
      7  O        -17.3960  -28.8280   31.9750 O.co2 401  SAH401     -0.2441
      8  OXT      -18.5960  -30.3490   33.1110 O.co2 401  SAH401     -0.2441
      9  C5'      -24.9520  -28.9450   31.0940 C.3   401  SAH401      0.0899
     10  C4'      -25.5570  -28.9190   32.5760 C.3   401  SAH401      0.1630
     11  O4'      -26.8170  -28.2420   32.3990 O.3   401  SAH401     -0.3153
     12  C3'      -25.9380  -30.2630   33.1530 C.3   401  SAH401      0.2168
     13  O3'      -25.1560  -30.5930   34.3100 O.3   401  SAH401     -0.2175
     14  C2'      -27.4830  -30.1050   33.4560 C.3   401  SAH401      0.2569
     15  O2'      -27.8480  -30.7750   34.6360 O.3   401  SAH401     -0.2130
     16  C1'      -27.6790  -28.5920   33.5210 C.3   401  SAH401      0.3185
     17  N9       -28.9200  -28.0890   33.2750 N.pl3 401  SAH401     -0.1439
     18  C8       -29.9650  -28.4910   32.4520 C.3   401  SAH401      0.3377
     19  N7       -31.0130  -27.7220   32.4800 N.2   401  SAH401     -0.2095
     20  C5       -30.6730  -26.6950   33.3950 C.2   401  SAH401      0.2526
     21  C6       -31.4040  -25.5350   33.8470 C.2   401  SAH401      0.4393
     22  N6       -32.6490  -25.2090   33.4370 N.pl3 401  SAH401      0.2180
     23  N1       -30.7380  -24.7560   34.7460 N.2   401  SAH401      0.0021
     24  C2       -29.4760  -25.0370   35.2020 C.3   401  SAH401      0.5254
     25  N3       -28.7450  -26.1300   34.7950 N.2   401  SAH401     -0.0055
     26  C4       -29.4000  -26.9100   33.8960 C.2   401  SAH401      0.3518
@<TRIPOS>BOND
     1     5     9    1
     2     5     4    1
     3     9    10    1
     4     4     3    1
     5     1     2    1
     6     3     2    1
     7     7     6   ar
     8     2     6    1
     9    11    10    1
    10    11    16    1
    11    18    19    1
    12    18    17    1
    13     6     8   ar
    14    19    20    2
    15    10    12    1
    16    12    14    1
    17    12    13    1
    18    17    16    1
    19    17    26    1
    20    20    21    1
    21    20    26    1
    22    22    21    1
    23    14    16    1
    24    14    15    1
    25    21    23    2
    26    26    25    2
    27    23    24    1
    28    25    24    1
