@<TRIPOS>MOLECULE
2g1q_ADP_A_1.pdb
 27 29 0 0 0
SMALL
GASTEIGER

@<TRIPOS>ATOM
      1  PB        14.8880    6.4770   98.9080 P.3   601  ADP601      0.5373
      2  O1B       14.5030    7.1700   97.6830 O.2   601  ADP601     -0.2221
      3  O2B       15.3620    4.9720   98.5660 O.3   601  ADP601     -0.1143
      4  O3B       15.9850    7.1690   99.6230 O.3   601  ADP601     -0.1143
      5  PA        13.3570    6.9450  101.2690 P.3   601  ADP601      0.2231
      6  O1A       14.3600    6.5550  102.2440 O.3   601  ADP601     -0.4370
      7  O2A       13.3120    8.4050  101.1400 O.2   601  ADP601     -0.5169
      8  O3A       13.6730    6.3050   99.8680 O.3   601  ADP601     -0.2261
      9  O5'       11.9070    6.5370  101.7290 O.3   601  ADP601     -0.3111
     10  C5'       10.9310    5.7560  101.0570 C.3   601  ADP601      0.1813
     11  C4'        9.7000    5.6780  102.0270 C.3   601  ADP601      0.1821
     12  O4'        9.8650    4.4360  102.7080 O.3   601  ADP601     -0.3135
     13  C3'        9.6280    6.7390  103.1630 C.3   601  ADP601      0.2184
     14  O3'        8.2620    7.1250  103.4360 O.3   601  ADP601     -0.2174
     15  C2'       10.2480    6.0910  104.3820 C.3   601  ADP601      0.2570
     16  O2'        9.7410    6.6580  105.5970 O.3   601  ADP601     -0.2130
     17  C1'        9.9260    4.6190  104.1380 C.3   601  ADP601      0.3186
     18  N9        10.9580    3.6440  104.6330 N.pl3 601  ADP601     -0.1439
     19  C8        12.0870    3.2880  103.9490 C.3   601  ADP601      0.3377
     20  N7        12.7700    2.4110  104.6450 N.2   601  ADP601     -0.2095
     21  C5        12.1230    2.1850  105.7730 C.2   601  ADP601      0.2526
     22  C6        12.3260    1.3720  106.8910 C.2   601  ADP601      0.4393
     23  N6        13.4170    0.5930  106.9420 N.pl3 601  ADP601      0.2180
     24  N1        11.4130    1.3740  107.9460 N.2   601  ADP601      0.0021
     25  C2        10.2830    2.1540  107.9360 C.3   601  ADP601      0.5254
     26  N3        10.0660    2.9460  106.8460 N.2   601  ADP601     -0.0055
     27  C4        10.9400    2.9870  105.7690 C.2   601  ADP601      0.3518
@<TRIPOS>BOND
     1     2     1    2
     2     3     1    1
     3     1     4    1
     4     1     8    1
     5     8     5    1
     6    10     9    1
     7    10    11    1
     8     7     5    2
     9     5     9    1
    10     5     6    1
    11    11    12    1
    12    11    13    1
    13    12    17    1
    14    13    14    1
    15    13    15    1
    16    19    18    1
    17    19    20    1
    18    17    15    1
    19    17    18    1
    20    15    16    1
    21    18    27    1
    22    20    21    2
    23    27    21    1
    24    27    26    2
    25    21    22    1
    26    26    25    1
    27    22    23    1
    28    22    24    2
    29    25    24    1
