@<TRIPOS>MOLECULE
2g1q_N9H_A_1.pdb
 28 30 0 0 0
SMALL
GASTEIGER

@<TRIPOS>ATOM
      1  C1        22.1460   16.5720  105.4300 C.ar  604  N9H604      0.1403
      2  C2        21.0310   16.5870  106.3280 C.ar  604  N9H604      0.0331
      3  C3        20.8720   15.4240  107.1610 C.ar  604  N9H604      0.0448
      4  C4        21.8670   14.3750  107.0430 C.ar  604  N9H604      0.1414
      5  C5        22.9670   14.3710  106.1260 C.ar  604  N9H604      0.0320
      6  C6        23.0910   15.5070  105.2860 C.ar  604  N9H604      0.0319
      7  C10       19.7110   15.3360  108.1100 C.2   604  N9H604      0.0811
      8  N1        19.0180   16.3610  108.6240 N.2   604  N9H604     -0.1782
      9  N12       18.1030   15.9790  109.5870 N.am  604  N9H604     -0.1593
     10  C13       18.0150   14.5180  109.6450 C.3   604  N9H604      0.1261
     11  C14       19.3160   14.1440  108.9590 C.3   604  N9H604      0.0761
     12  C17       18.0570   14.0090  111.1000 C.ar  604  N9H604      0.0000
     13  C19       17.2450   12.8820  111.5650 C.ar  604  N9H604     -0.0024
     14  C20       17.3820   12.3720  112.9470 C.ar  604  N9H604     -0.0003
     15  C21       18.3290   13.0230  113.8590 C.ar  604  N9H604     -0.0000
     16  C22       19.1230   14.1550  113.4340 C.ar  604  N9H604     -0.0003
     17  C23       18.9650   14.6470  112.0540 C.ar  604  N9H604     -0.0024
     18  C29       17.0760   16.8160  110.1080 C.2   604  N9H604      0.3427
     19  N30       17.1770   18.1730  110.0160 N.am  604  N9H604     -0.1870
     20  C31       16.0940   19.1500  110.2760 C.3   604  N9H604      0.1169
     21  O39       16.1400   16.2160  110.6230 O.2   604  N9H604     -0.2490
     22  F40       21.7860   13.3450  107.8640 F     604  N9H604     -0.2041
     23  F41       22.3250   17.6150  104.6930 F     604  N9H604     -0.2042
     24  C7        16.8120   13.9780  108.7570 C.2   604  N9H604     -0.0052
     25  C8        16.7200   14.4850  107.2450 C.2   604  N9H604     -0.0083
     26  C9        15.1130   19.2480  109.1050 C.3   604  N9H604      0.0253
     27  C11       15.6870   13.9620  106.1350 C.3   604  N9H604      0.1351
     28  N2        15.8870   12.5840  105.6320 N.3   604  N9H604     -0.1262
@<TRIPOS>BOND
     1    23     1    1
     2     6     1   ar
     3     6     5   ar
     4     1     2   ar
     5    28    27    1
     6     5     4   ar
     7    27    25    1
     8     2     3   ar
     9     4     3   ar
    10     4    22    1
    11     3     7    1
    12    25    24    2
    13     7     8    2
    14     7    11    1
    15     8     9    1
    16    24    10    1
    17    11    10    1
    18    26    20    1
    19     9    10    1
    20     9    18   am
    21    10    12    1
    22    19    18   am
    23    19    20    1
    24    18    21    2
    25    12    13   ar
    26    12    17   ar
    27    13    14   ar
    28    17    16   ar
    29    14    15   ar
    30    16    15   ar
