@<TRIPOS>MOLECULE
2g1r_3IG_A_1.pdb
 29 31 0 0 0
SMALL
GASTEIGER

@<TRIPOS>ATOM
      1  C1        78.7740   24.9270   71.3990 C.2   885  3IG885      0.2201
      2  N1        78.1240   25.8870   72.1090 N.2   885  3IG885     -0.3112
      3  C2        78.4120   25.9540   73.4200 C.1   885  3IG885      0.2419
      4  N2        79.2800   25.1420   74.0530 N.2   885  3IG885     -0.3339
      5  C3        79.9420   24.1750   73.3570 C.2   885  3IG885      0.1122
      6  C4        79.7170   24.0300   71.9620 C.3   885  3IG885      0.1421
      7  N3        78.4810   24.8790   70.0870 N.pl3 885  3IG885     -0.0962
      8  N4        77.8080   26.8820   74.1580 N.pl3 885  3IG885     -0.0232
      9  C5        80.9080   23.3170   74.1550 C.3   885  3IG885      0.0563
     10  C6        82.3070   23.9280   74.2220 C.3   885  3IG885      0.0075
     11  C7        80.0660   21.6980   70.8870 C.ar  885  3IG885     -0.0002
     12  C8        80.8820   20.8710   70.0510 C.ar  885  3IG885      0.0379
     13  C9        82.0640   21.3930   69.4480 C.ar  885  3IG885      0.1524
     14  C10       82.4330   22.7510   69.6740 C.ar  885  3IG885      0.0879
     15  C11       81.5990   23.5170   70.5160 C.ar  885  3IG885      0.0146
     16  C12       80.4420   23.0330   71.1150 C.ar  885  3IG885     -0.0066
     17  O3        82.8420   20.5490   68.6520 O.3   885  3IG885     -0.4727
     18  C14       83.7710   21.1520   67.7220 C.3   885  3IG885      0.2012
     19  C15       84.3310   22.5670   68.1510 C.2   885  3IG885      0.2657
     20  N5        83.6160   23.2810   69.1000 N.am  885  3IG885     -0.2514
     21  C16       84.1350   24.6620   69.4400 C.3   885  3IG885      0.1218
     22  C17       84.6940   24.7810   70.8780 C.3   885  3IG885      0.1369
     23  N6        84.8000   26.1880   71.2740 N.am  885  3IG885     -0.2036
     24  C13       85.9730   26.7360   71.6710 C.2   885  3IG885      0.2419
     25  C19       85.8740   28.2220   72.0300 C.3   885  3IG885      0.0964
     26  C21       83.0870   21.3010   66.3440 C.3   885  3IG885      0.0532
     27  C20       84.9340   20.1560   67.5890 C.3   885  3IG885      0.0532
     28  O4        85.3510   22.9890   67.6210 O.2   885  3IG885     -0.2708
     29  O1        87.0420   26.1360   71.7420 O.2   885  3IG885     -0.2733
@<TRIPOS>BOND
     1    26    18    1
     2    27    18    1
     3    28    19    2
     4    18    19    1
     5    18    17    1
     6    19    20   am
     7    17    13    1
     8    20    21    1
     9    20    14    1
    10    21    22    1
    11    13    14   ar
    12    13    12   ar
    13    14    15   ar
    14    12    11   ar
    15     7     1    1
    16    15    16   ar
    17    22    23    1
    18    11    16   ar
    19    16     6    1
    20    23    24   am
    21     1     6    1
    22     1     2    2
    23    24    29    2
    24    24    25    1
    25     6     5    1
    26     2     3    2
    27     5     4    2
    28     5     9    1
    29     3     4    2
    30     3     8    1
    31     9    10    1
