@<TRIPOS>MOLECULE
2g1s_4IG_A_1.pdb
 34 37 0 0 0
SMALL
GASTEIGER

@<TRIPOS>ATOM
      1  C1        78.8340   24.8840   71.4570 C.2   885  4IG885      0.2201
      2  N1        78.2340   25.8950   72.1340 N.2   885  4IG885     -0.3112
      3  C2        78.5360   26.0040   73.4320 C.1   885  4IG885      0.2419
      4  N2        79.3640   25.1780   74.0920 N.2   885  4IG885     -0.3339
      5  C3        79.9780   24.1600   73.4380 C.2   885  4IG885      0.1122
      6  C4        79.7660   23.9800   72.0390 C.3   885  4IG885      0.1421
      7  N3        78.5040   24.7840   70.1570 N.pl3 885  4IG885     -0.0962
      8  N4        77.9990   26.9980   74.1300 N.pl3 885  4IG885     -0.0232
      9  C5        80.8890   23.2670   74.2690 C.3   885  4IG885      0.0563
     10  C6        82.2470   23.9070   74.5600 C.3   885  4IG885      0.0075
     11  C7        80.2300   21.6880   70.9880 C.ar  885  4IG885     -0.0002
     12  C8        81.0680   20.8700   70.1720 C.ar  885  4IG885      0.0379
     13  C9        82.2350   21.4110   69.5800 C.ar  885  4IG885      0.1531
     14  C10       82.5810   22.8050   69.8100 C.ar  885  4IG885      0.0878
     15  C11       81.7210   23.5610   70.6230 C.ar  885  4IG885      0.0146
     16  C12       80.5600   23.0410   71.2150 C.ar  885  4IG885     -0.0066
     17  O3        83.0620   20.5800   68.7560 O.3   885  4IG885     -0.4642
     18  C14       83.6830   21.4360   67.7770 C.3   885  4IG885      0.2640
     19  C15       84.5630   22.5560   68.3650 C.2   885  4IG885      0.2741
     20  N5        83.7600   23.3450   69.1980 N.am  885  4IG885     -0.2527
     21  C16       84.1890   24.7660   69.3750 C.3   885  4IG885      0.1010
     22  C17       85.0720   25.0040   70.6000 C.3   885  4IG885      0.0539
     23  C18       84.9930   26.4600   71.0730 C.3   885  4IG885      0.1440
     24  O1        86.0930   26.7080   71.9210 O.3   885  4IG885     -0.3510
     25  C19       86.1670   28.0090   72.4510 C.3   885  4IG885      0.1741
     26  O4        85.7250   22.7320   68.0630 O.2   885  4IG885     -0.2703
     27  C20       83.9190   21.1360   63.9600 C.ar  885  4IG885      0.1422
     28  C21       84.3290   21.0230   65.3080 C.ar  885  4IG885      0.0295
     29  C22       83.3810   21.3050   66.3220 C.ar  885  4IG885      0.0306
     30  C23       82.0620   21.6590   65.9650 C.ar  885  4IG885      0.0295
     31  C24       81.6880   21.7630   64.6270 C.ar  885  4IG885      0.1422
     32  C25       82.5990   21.5080   63.5910 C.ar  885  4IG885      0.0592
     33  F2        84.7990   20.8910   62.9890 F     885  4IG885     -0.2041
     34  F1        80.4270   22.1180   64.3770 F     885  4IG885     -0.2041
@<TRIPOS>BOND
     1    33    27    1
     2    32    27   ar
     3    32    31   ar
     4    27    28   ar
     5    34    31    1
     6    31    30   ar
     7    28    29   ar
     8    30    29   ar
     9    29    18    1
    10    18    19    1
    11    18    17    1
    12    26    19    2
    13    19    20   am
    14    17    13    1
    15    20    21    1
    16    20    14    1
    17    21    22    1
    18    13    14   ar
    19    13    12   ar
    20    14    15   ar
    21     7     1    1
    22    12    11   ar
    23    22    23    1
    24    15    16   ar
    25    11    16   ar
    26    23    24    1
    27    16     6    1
    28     1     6    1
    29     1     2    2
    30    24    25    1
    31     6     5    1
    32     2     3    2
    33     3     4    2
    34     3     8    1
    35     5     4    2
    36     5     9    1
    37     9    10    1
