@<TRIPOS>MOLECULE
2g1t_112_E_1.pdb
 35 37 0 0 0
SMALL
GASTEIGER

@<TRIPOS>ATOM
      1  NS         5.1130    3.2550  -38.4440 N.am  1101  1121101    -0.0870
      2  C2S        3.8590    3.7050  -38.4540 C.2   1101  1121101     0.2723
      3  O2S        3.4320    4.1520  -37.3790 O.2   1101  1121101    -0.2707
      4  C1S        2.9680    3.7060  -39.7000 C.3   1101  1121101     0.1571
      5  PG         2.5910    6.3550  -40.3440 P.3   1101  1121101     0.4244
      6  S1G        1.7560    4.8150  -39.6980 S.3   1101  1121101    -0.0186
      7  O2G        2.4100    6.6300  -41.7600 O.2   1101  1121101    -0.2432
      8  O3G        4.0170    6.2840  -39.9740 O.3   1101  1121101    -0.1310
      9  PB         0.6760    8.3530  -39.7550 P.3   1101  1121101     0.2262
     10  O1B       -0.3520    7.3570  -40.1940 O.2   1101  1121101    -0.5168
     11  O2B        0.3930    8.9860  -38.4580 O.3   1101  1121101    -0.4369
     12  O3B        2.0760    7.7010  -39.6890 O.3   1101  1121101    -0.2410
     13  PA         0.3890    9.8090  -42.3830 P.3   1101  1121101     0.2189
     14  O1A        1.6370   10.1690  -43.0360 O.2   1101  1121101    -0.5170
     15  O2A       -0.5080    8.7410  -42.8730 O.3   1101  1121101    -0.4371
     16  O3A        0.3980    9.4480  -40.7460 O.3   1101  1121101    -0.2701
     17  O5'       -0.1590   11.2470  -42.0150 O.3   1101  1121101    -0.3112
     18  C5'       -1.2760   11.3000  -41.2650 C.3   1101  1121101     0.1813
     19  C4'       -1.6610   12.7290  -41.0020 C.3   1101  1121101     0.1821
     20  O4'       -1.9150   13.4180  -42.2190 O.3   1101  1121101    -0.3135
     21  C3'       -2.8890   12.6970  -40.1870 C.3   1101  1121101     0.2184
     22  O3'       -2.5410   12.9200  -38.8380 O.3   1101  1121101    -0.2174
     23  C2'       -3.7490   13.7760  -40.7910 C.3   1101  1121101     0.2570
     24  O2'       -3.6660   15.0140  -40.0640 O.3   1101  1121101    -0.2130
     25  C1'       -3.2390   13.8300  -42.2640 C.3   1101  1121101     0.3186
     26  N9        -3.9960   12.9030  -43.2100 N.pl3 1101  1121101    -0.1439
     27  C8        -3.6710   11.6490  -43.7800 C.3   1101  1121101     0.3377
     28  N7        -4.5220   11.0620  -44.5810 N.2   1101  1121101    -0.2095
     29  C5        -5.5230   11.9840  -44.5670 C.2   1101  1121101     0.2526
     30  C6        -6.7960   12.0520  -45.2090 C.2   1101  1121101     0.4393
     31  N6        -7.2050   10.9800  -46.0620 N.pl3 1101  1121101     0.2180
     32  N1        -7.6350   13.1450  -45.0090 N.2   1101  1121101     0.0021
     33  C2        -7.2550   14.1980  -44.1790 C.3   1101  1121101     0.5254
     34  N3        -6.0660   14.2730  -43.4980 N.2   1101  1121101    -0.0055
     35  C4        -5.2290   13.1350  -43.7270 C.2   1101  1121101     0.3518
@<TRIPOS>BOND
     1    31    30    1
     2    30    32    2
     3    30    29    1
     4    32    33    1
     5    28    29    2
     6    28    27    1
     7    29    35    1
     8    33    34    1
     9    27    26    1
    10    35    34    2
    11    35    26    1
    12    26    25    1
    13    14    13    2
    14    15    13    1
    15    13    17    1
    16    13    16    1
    17    25    20    1
    18    25    23    1
    19    20    19    1
    20    17    18    1
    21     7     5    2
    22    18    19    1
    23    19    21    1
    24    23    21    1
    25    23    24    1
    26    16     9    1
    27     5     8    1
    28     5     6    1
    29     5    12    1
    30    10     9    2
    31    21    22    1
    32     9    12    1
    33     9    11    1
    34     4     6    1
    35     4     2    1
    36     2     1   am
    37     2     3    2
