@<TRIPOS>MOLECULE
2g1u_AMP_A_1.pdb
 23 25 0 0 0
SMALL
GASTEIGER

@<TRIPOS>ATOM
      1  P         11.2110   26.9650   18.7270 P.3   301  AMP301      0.5327
      2  O1P       10.0020   26.5130   19.5630 O.3   301  AMP301     -0.1145
      3  O2P       11.0920   28.4490   18.3970 O.2   301  AMP301     -0.2224
      4  O3P       12.6140   26.6090   19.2360 O.3   301  AMP301     -0.1145
      5  O5'       11.1110   26.2040   17.3220 O.3   301  AMP301     -0.2675
      6  C5'       12.0230   26.3820   16.2380 C.3   301  AMP301      0.1860
      7  C4'       11.2660   26.0770   14.9370 C.3   301  AMP301      0.1823
      8  O4'       12.1340   26.2880   13.8350 O.3   301  AMP301     -0.3135
      9  C3'       10.7530   24.6110   14.8820 C.3   301  AMP301      0.2184
     10  O3'        9.3270   24.5440   14.6340 O.3   301  AMP301     -0.2174
     11  C2'       11.6250   23.9870   13.7960 C.3   301  AMP301      0.2570
     12  O2'       11.0720   22.8670   13.0390 O.3   301  AMP301     -0.2130
     13  C1'       11.9610   25.2150   12.9130 C.3   301  AMP301      0.3186
     14  N9        13.1540   25.0490   12.1020 N.pl3 301  AMP301     -0.1439
     15  C8        14.3830   24.6660   12.5160 C.3   301  AMP301      0.3377
     16  N7        15.2280   24.5990   11.4610 N.2   301  AMP301     -0.2095
     17  C5        14.5120   24.9170   10.3580 C.2   301  AMP301      0.2526
     18  C6        14.8440   24.9780    8.9380 C.2   301  AMP301      0.4393
     19  N6        16.0760   24.7040    8.4730 N.pl3 301  AMP301      0.2180
     20  N1        13.8300   25.3230    8.0900 N.2   301  AMP301      0.0021
     21  C2        12.5980   25.6260    8.5760 C.3   301  AMP301      0.5254
     22  N3        12.1950   25.5610    9.8830 N.2   301  AMP301     -0.0055
     23  C4        13.1630   25.2070   10.7890 C.2   301  AMP301      0.3518
@<TRIPOS>BOND
     1    20    21    1
     2    20    18    2
     3    19    18    1
     4    21    22    1
     5    18    17    1
     6    22    23    2
     7    17    23    1
     8    17    16    2
     9    23    14    1
    10    16    15    1
    11    14    15    1
    12    14    13    1
    13    13    11    1
    14    13     8    1
    15    12    11    1
    16    11     9    1
    17     8     7    1
    18    10     9    1
    19     9     7    1
    20     7     6    1
    21     6     5    1
    22     5     1    1
    23     3     1    2
    24     1     4    1
    25     1     2    1
