@<TRIPOS>MOLECULE
2g1y_5IG_A_1.pdb
 28 30 0 0 0
SMALL
GASTEIGER

@<TRIPOS>ATOM
      1  C1        27.3650  106.3890  130.6310 C.2   885  5IG885      0.2201
      2  N1        28.0590  107.1070  131.5340 N.2   885  5IG885     -0.3112
      3  C2        27.8160  108.4200  131.5610 C.1   885  5IG885      0.2419
      4  N2        26.9440  109.0510  130.7560 N.2   885  5IG885     -0.3339
      5  C3        26.2260  108.3450  129.8410 C.2   885  5IG885      0.1122
      6  C4        26.4110  106.9510  129.7470 C.3   885  5IG885      0.1421
      7  N3        27.6220  105.0660  130.6200 N.pl3 885  5IG885     -0.0962
      8  N4        28.4760  109.1670  132.4390 N.pl3 885  5IG885     -0.0232
      9  C6        25.2490  109.1290  128.9660 C.3   885  5IG885      0.0563
     10  C7        25.9960  105.8530  127.4620 C.ar  885  5IG885     -0.0002
     11  C8        25.1930  104.9780  126.6870 C.ar  885  5IG885      0.0379
     12  C9        24.0730  104.3300  127.2660 C.ar  885  5IG885      0.1524
     13  C10       23.7300  104.5560  128.6380 C.ar  885  5IG885      0.0878
     14  C11       24.5420  105.4390  129.3600 C.ar  885  5IG885      0.0146
     15  C12       25.6580  106.0800  128.8110 C.ar  885  5IG885     -0.0066
     16  O3        23.3370  103.5030  126.4410 O.3   885  5IG885     -0.4727
     17  C14       22.3660  102.6280  127.0300 C.3   885  5IG885      0.2012
     18  C15       21.8700  102.9890  128.4960 C.2   885  5IG885      0.2656
     19  N5        22.6160  103.9150  129.2160 N.am  885  5IG885     -0.2531
     20  C16       22.1760  104.1690  130.6340 C.3   885  5IG885      0.1010
     21  C17       21.2070  105.3680  130.8100 C.3   885  5IG885      0.0539
     22  C18       21.2520  105.9580  132.2310 C.3   885  5IG885      0.1440
     23  O1        20.1000  106.7400  132.4910 O.3   885  5IG885     -0.3510
     24  C19       20.0440  107.3260  133.7790 C.3   885  5IG885      0.1741
     25  C21       22.9770  101.2140  127.0900 C.3   885  5IG885      0.0532
     26  C20       21.1970  102.6480  126.0420 C.3   885  5IG885      0.0532
     27  O4        20.8950  102.4090  128.9520 O.2   885  5IG885     -0.2708
     28  C5        23.8550  109.2430  129.5760 C.3   885  5IG885      0.0075
@<TRIPOS>BOND
     1    26    17    1
     2    16    17    1
     3    16    12    1
     4    11    12   ar
     5    11    10   ar
     6    17    25    1
     7    17    18    1
     8    12    13   ar
     9    10    15   ar
    10    18    27    2
    11    18    19   am
    12    13    19    1
    13    13    14   ar
    14    15    14   ar
    15    15     6    1
    16     9    28    1
    17     9     5    1
    18    19    20    1
    19     6     5    1
    20     6     1    1
    21     5     4    2
    22     7     1    1
    23     1     2    2
    24    20    21    1
    25     4     3    2
    26    21    22    1
    27     2     3    2
    28     3     8    1
    29    22    23    1
    30    23    24    1
