@<TRIPOS>MOLECULE
2g20_L1A_A_1.pdb
 48 51 0 0 0
SMALL
GASTEIGER

@<TRIPOS>ATOM
      1  C1        15.3290   49.2580  102.6820 C.ar  885  L1A885     -0.0000
      2  C2        15.3660   47.9920  103.3200 C.ar  885  L1A885     -0.0003
      3  C3        14.1540   47.3630  103.7020 C.ar  885  L1A885     -0.0042
      4  C4        12.9020   47.9850  103.4520 C.ar  885  L1A885     -0.0202
      5  C5        12.8750   49.2540  102.8110 C.ar  885  L1A885     -0.0042
      6  C6        14.0820   49.8880  102.4280 C.ar  885  L1A885     -0.0003
      7  N1        10.3210   44.3730  103.8530 N.am  885  L1A885     -0.1961
      8  C7         9.9240   45.5610  103.3490 C.2   885  L1A885      0.2599
      9  C8        11.0580   46.4110  102.7380 C.3   885  L1A885      0.1806
     10  C9        11.6330   47.2940  103.8630 C.3   885  L1A885      0.0551
     11  O1         8.7560   45.9590  103.3520 O.2   885  L1A885     -0.2717
     12  N2        10.5300   47.2610  101.6770 N.3   885  L1A885     -0.0583
     13  C10       10.0010   42.8400  105.7090 C.2   885  L1A885      0.2617
     14  N3         9.5420   43.4160  106.9020 N.am  885  L1A885     -0.2030
     15  C11        7.3300   40.7050  104.2110 C.3   885  L1A885      0.1203
     16  C12        7.5880   41.8440  103.5710 C.2   885  L1A885      0.1025
     17  C13        8.9450   42.4470  103.3720 C.3   885  L1A885      0.0864
     18  C14        9.3480   43.4660  104.4570 C.3   885  L1A885      0.1794
     19  S1         5.6410   40.3230  104.2630 S.3   885  L1A885     -0.0568
     20  N4         3.9190   42.2160  102.9970 N.pl3 885  L1A885     -0.0867
     21  C15        5.2090   41.7930  103.3660 C.2   885  L1A885      0.2457
     22  N5         6.3530   42.4710  103.0810 N.2   885  L1A885     -0.3856
     23  O2        10.8470   41.9490  105.6070 O.2   885  L1A885     -0.2715
     24  C16        9.9050   43.1510  108.3470 C.3   885  L1A885      0.1282
     25  C17       11.4180   43.1150  108.5820 C.3   885  L1A885      0.0244
     26  C18        9.0970   41.8590  108.7850 C.3   885  L1A885      0.2018
     27  C19        9.2320   40.4460  108.1170 C.3   885  L1A885      0.1839
     28  C20        8.2600   39.4780  108.8610 C.3   885  L1A885      0.0356
     29  C21        8.1450   38.0180  108.3900 C.3   885  L1A885      0.0026
     30  C22        7.2630   37.9770  107.1240 C.3   885  L1A885      0.0001
     31  C23        7.5070   37.1170  109.4620 C.3   885  L1A885      0.0001
     32  O3         7.7810   42.2560  108.5950 O.3   885  L1A885     -0.2186
     33  O4        10.5210   39.9310  108.2470 O.3   885  L1A885     -0.2204
     34  O5        14.6630   45.9680   99.0320 O.3   885  L1A885     -0.3507
     35  C24       14.1930   47.3100   98.8900 C.3   885  L1A885      0.1613
     36  C25       12.8470   47.4510   99.6270 C.3   885  L1A885      0.1290
     37  S2        10.3230   46.6150  100.0930 S.O2  885  L1A885      0.1163
     38  N6        11.8300   46.4480   99.2460 N.3   885  L1A885     -0.1391
     39  C26       12.4140   45.0780   99.3170 C.3   885  L1A885      0.1290
     40  C27       13.7540   44.9670   98.5490 C.3   885  L1A885      0.1613
     41  O6         9.5900   47.5890   99.3700 O.2   885  L1A885     -0.1396
     42  O7         9.7870   45.3100  100.2980 O.2   885  L1A885     -0.1396
     43  C28       11.5410   45.7570  108.2710 C.3   885  L1A885      0.0001
     44  C29       12.2720   44.3810  108.2660 C.3   885  L1A885      0.0018
     45  C30       13.0850   44.2610  106.9500 C.3   885  L1A885      0.0001
     46  C31       14.2280   45.3210  106.9170 C.3   885  L1A885      0.0000
     47  C32       13.9880   46.6090  107.7860 C.3   885  L1A885      0.0000
     48  C33       12.4910   46.9790  108.0470 C.3   885  L1A885      0.0000
@<TRIPOS>BOND
     1    40    34    1
     2    40    39    1
     3    35    34    1
     4    35    36    1
     5    38    39    1
     6    38    36    1
     7    38    37    1
     8    41    37    2
     9    37    42    2
    10    37    12    1
    11    12     9    1
    12     6     1   ar
    13     6     5   ar
    14     1     2   ar
    15     9     8    1
    16     9    10    1
    17     5     4   ar
    18    20    21    1
    19    22    21    2
    20    22    16    2
    21     2     3   ar
    22     8    11    2
    23     8     7   am
    24    21    19    1
    25    17    16    1
    26    17    18    1
    27     4     3   ar
    28     4    10    1
    29    16    15    1
    30     7    18    1
    31    15    19    1
    32    18    13    1
    33    23    13    2
    34    13    14   am
    35    14    24    1
    36    46    45    1
    37    46    47    1
    38    45    44    1
    39    30    29    1
    40    47    48    1
    41    48    43    1
    42    27    33    1
    43    27    26    1
    44    27    28    1
    45    44    43    1
    46    44    25    1
    47    24    25    1
    48    24    26    1
    49    29    28    1
    50    29    31    1
    51    32    26    1
