@<TRIPOS>MOLECULE
2g21_L1B_A_1.pdb
 25 27 0 0 0
SMALL
GASTEIGER

@<TRIPOS>ATOM
      1  C1        27.3920  105.7980  130.0020 C.2   885  L1B885      0.2201
      2  N1        27.9590  106.4670  131.0370 N.2   885  L1B885     -0.3112
      3  C2        27.6380  107.7790  131.1650 C.1   885  L1B885      0.2419
      4  N2        26.8190  108.4280  130.3380 N.2   885  L1B885     -0.3339
      5  C3        26.2360  107.7710  129.3000 C.2   885  L1B885      0.1122
      6  C4        26.4810  106.3880  129.0820 C.3   885  L1B885      0.1418
      7  N3        27.7390  104.4970  129.8800 N.pl3 885  L1B885     -0.0962
      8  N4        28.1660  108.4940  132.1720 N.pl3 885  L1B885     -0.0232
      9  C5        25.3160  108.6110  128.4440 C.3   885  L1B885      0.0563
     10  C6        23.9580  108.8180  129.1230 C.3   885  L1B885      0.0075
     11  C7        25.9820  105.4100  126.7390 C.2   885  L1B885     -0.0247
     12  C8        25.1440  104.5990  125.9250 C.3   885  L1B885      0.0533
     13  C9        24.0110  103.9240  126.4560 C.2   885  L1B885     -0.0042
     14  C10       23.7050  104.0660  127.8610 C.2   885  L1B885      0.0476
     15  C11       24.5750  104.8910  128.6340 C.2   885  L1B885      0.0108
     16  C12       25.6910  105.5580  128.1200 C.2   885  L1B885     -0.0108
     17  C13       23.1740  103.0780  125.5240 C.2   885  L1B885     -0.0014
     18  C14       21.9480  102.3670  126.1320 C.2   885  L1B885      0.0158
     19  C15       21.6750  102.5460  127.6430 C.2   885  L1B885      0.0654
     20  N5        22.5900  103.4090  128.4350 N.pl3 885  L1B885     -0.2861
     21  C16       22.2500  103.5120  129.8900 C.3   885  L1B885      0.0982
     22  C17       21.4620  104.8240  130.1050 C.3   885  L1B885      0.0538
     23  C18       21.3950  105.3900  131.5280 C.3   885  L1B885      0.1440
     24  O1        20.2440  106.1090  131.9450 O.3   885  L1B885     -0.3510
     25  C19       20.3820  106.5480  133.3020 C.3   885  L1B885      0.1741
@<TRIPOS>BOND
     1    17    18    1
     2    17    13    2
     3    12    13    1
     4    12    11    1
     5    18    19    2
     6    13    14    1
     7    11    16    2
     8    19    20    1
     9    14    20    1
    10    14    15    2
    11    16    15    1
    12    16     6    1
    13    20    21    1
    14     9    10    1
    15     9     5    1
    16     6     5    1
    17     6     1    1
    18     5     4    2
    19     7     1    1
    20    21    22    1
    21     1     2    2
    22    22    23    1
    23     4     3    2
    24     2     3    2
    25     3     8    1
    26    23    24    1
    27    24    25    1
