@<TRIPOS>MOLECULE
2g22_6IG_A_1.pdb
 33 36 0 0 0
SMALL
GASTEIGER

@<TRIPOS>ATOM
      1  C1        78.6820   24.7050   71.2200 C.2   885  6IG885      0.1997
      2  N1        77.9900   25.5780   72.0010 N.2   885  6IG885     -0.3129
      3  C2        78.2710   25.5940   73.3030 C.1   885  6IG885      0.2418
      4  N2        79.1630   24.7970   73.8910 N.2   885  6IG885     -0.3339
      5  C3        79.8650   23.9120   73.1430 C.2   885  6IG885      0.1121
      6  C4        79.6610   23.8240   71.7280 C.3   885  6IG885      0.1404
      7  N3        78.3530   24.7390   69.8810 N.pl3 885  6IG885     -0.2117
      8  N4        77.5980   26.4800   74.0360 N.pl3 885  6IG885     -0.0232
      9  C5        80.8460   23.0700   73.9190 C.3   885  6IG885      0.0563
     10  C6        82.1420   23.8250   74.1940 C.3   885  6IG885      0.0075
     11  C7        80.0610   21.5530   70.5810 C.ar  885  6IG885     -0.0037
     12  C8        80.8820   20.7390   69.7490 C.ar  885  6IG885     -0.0033
     13  C9        82.0890   21.2370   69.1760 C.ar  885  6IG885     -0.0088
     14  C10       82.4760   22.5880   69.4490 C.ar  885  6IG885      0.0435
     15  C11       81.6260   23.3630   70.2850 C.ar  885  6IG885      0.0108
     16  C12       80.4370   22.8790   70.8540 C.ar  885  6IG885     -0.0069
     17  C13       82.9330   20.3340   68.2900 C.3   885  6IG885      0.0294
     18  C14       84.4130   20.7730   68.2150 C.3   885  6IG885      0.0261
     19  C15       84.5650   22.3090   68.0230 C.3   885  6IG885      0.0911
     20  N5        83.6760   23.1270   68.8920 N.pl3 885  6IG885     -0.3076
     21  C16       84.0810   24.5500   69.0770 C.3   885  6IG885      0.0933
     22  C17       84.7860   24.8550   70.4210 C.3   885  6IG885      0.0535
     23  C18       84.6680   26.3500   70.7600 C.3   885  6IG885      0.1440
     24  O1        85.7610   26.7800   71.5490 O.3   885  6IG885     -0.3510
     25  C19       85.7160   28.1490   71.9040 C.3   885  6IG885      0.1741
     26  C20       77.3400   25.6950   69.4060 C.3   885  6IG885      0.1192
     27  C21       77.9570   26.9510   68.7980 C.3   885  6IG885      0.0497
     28  C22       80.5280   26.2180   65.3420 C.ar  885  6IG885     -0.0000
     29  C23       79.2040   26.7080   65.1790 C.ar  885  6IG885     -0.0003
     30  C24       78.3900   26.9390   66.3150 C.ar  885  6IG885     -0.0042
     31  C25       78.8770   26.6860   67.6270 C.ar  885  6IG885     -0.0204
     32  C26       80.2160   26.1890   67.7820 C.ar  885  6IG885     -0.0042
     33  C27       81.0350   25.9580   66.6390 C.ar  885  6IG885     -0.0003
@<TRIPOS>BOND
     1    29    28   ar
     2    29    30   ar
     3    28    33   ar
     4    30    31   ar
     5    33    32   ar
     6    31    32   ar
     7    31    27    1
     8    19    18    1
     9    19    20    1
    10    18    17    1
    11    17    13    1
    12    27    26    1
    13    20    21    1
    14    20    14    1
    15    21    22    1
    16    13    14   ar
    17    13    12   ar
    18    26     7    1
    19    14    15   ar
    20    12    11   ar
    21     7     1    1
    22    15    16   ar
    23    22    23    1
    24    11    16   ar
    25    23    24    1
    26    16     6    1
    27     1     6    1
    28     1     2    2
    29    24    25    1
    30     6     5    1
    31     2     3    2
    32     5     4    2
    33     5     9    1
    34     3     4    2
    35     3     8    1
    36     9    10    1
