@<TRIPOS>MOLECULE
2g24_7IG_A_1.pdb
 26 28 0 0 0
SMALL
GASTEIGER

@<TRIPOS>ATOM
      1  C1        27.6260  106.0630  130.2130 C.2   334  7IG334      0.2201
      2  N1        28.1670  106.6390  131.3250 N.2   334  7IG334     -0.3112
      3  C2        27.8690  107.9350  131.5210 C.1   334  7IG334      0.2419
      4  N2        27.1000  108.6550  130.7040 N.2   334  7IG334     -0.3339
      5  C3        26.5520  108.1000  129.5930 C.2   334  7IG334      0.1122
      6  C4        26.7840  106.7440  129.2820 C.3   334  7IG334      0.1421
      7  N3        27.9410  104.7510  130.0340 N.pl3 334  7IG334     -0.0962
      8  N4        28.3560  108.5670  132.5890 N.pl3 334  7IG334     -0.0232
      9  C5        25.7100  109.0690  128.8000 C.3   334  7IG334      0.0563
     10  C6        24.2370  109.0790  129.2140 C.3   334  7IG334      0.0075
     11  C7        24.2590  104.4610  127.6560 C.ar  334  7IG334      0.0158
     12  C8        24.9920  105.2280  128.5600 C.ar  334  7IG334     -0.0021
     13  C9        26.1200  105.9740  128.1740 C.ar  334  7IG334     -0.0080
     14  C10       26.5060  105.9330  126.8080 C.ar  334  7IG334     -0.0021
     15  C11       25.7580  105.1480  125.8700 C.ar  334  7IG334      0.0158
     16  C12       24.6210  104.3970  126.2830 C.ar  334  7IG334      0.0657
     17  N5        23.9150  103.6310  125.3640 N.pl3 334  7IG334     -0.2328
     18  C13       24.5380   99.7310  127.2010 C.ar  334  7IG334      0.1421
     19  C14       24.2810  101.0340  126.7400 C.ar  334  7IG334      0.0272
     20  C15       23.0160  101.3710  126.1560 C.ar  334  7IG334      0.0038
     21  C16       22.0350  100.3550  126.0600 C.ar  334  7IG334      0.0272
     22  C17       22.3190   99.0520  126.5320 C.ar  334  7IG334      0.1421
     23  C18       23.5680   98.7100  127.1090 C.ar  334  7IG334      0.0592
     24  F1        25.7480   99.4700  127.7420 F     334  7IG334     -0.2041
     25  C19       22.7180  102.7840  125.6460 C.3   334  7IG334      0.1387
     26  F2        21.3760   98.1120  126.4270 F     334  7IG334     -0.2041
@<TRIPOS>BOND
     1    17    25    1
     2    17    16    1
     3    25    20    1
     4    15    16   ar
     5    15    14   ar
     6    21    20   ar
     7    21    22   ar
     8    20    19   ar
     9    16    11   ar
    10    26    22    1
    11    22    23   ar
    12    19    18   ar
    13    14    13   ar
    14    23    18   ar
    15    18    24    1
    16    11    12   ar
    17    13    12   ar
    18    13     6    1
    19     9    10    1
    20     9     5    1
    21     6     5    1
    22     6     1    1
    23     5     4    2
    24     7     1    1
    25     1     2    2
    26     4     3    2
    27     2     3    2
    28     3     8    1
