@<TRIPOS>MOLECULE
2g25_TDK_A_1.pdb
 34 35 0 0 0
SMALL
GASTEIGER

@<TRIPOS>ATOM
      1  O2B       22.3120  -32.0520   19.1530 O.3   887  TDK887     -0.1143
      2  PB        22.3420  -31.7080   17.7220 P.3   887  TDK887      0.5373
      3  O3B       23.3840  -30.7920   17.2410 O.2   887  TDK887     -0.2221
      4  O1B       20.9140  -31.1180   17.3000 O.3   887  TDK887     -0.1143
      5  O3A       22.4410  -33.0920   16.8940 O.3   887  TDK887     -0.2261
      6  PA        21.5290  -33.4490   15.6050 P.3   887  TDK887      0.2230
      7  O1A       20.1380  -32.9850   15.8100 O.3   887  TDK887     -0.4370
      8  O2A       21.7580  -34.8740   15.2990 O.2   887  TDK887     -0.5169
      9  O7        22.2080  -32.5660   14.4470 O.3   887  TDK887     -0.3134
     10  C7        23.4800  -32.9610   13.9320 C.3   887  TDK887      0.1544
     11  C6        23.8080  -32.1770   12.7350 C.3   887  TDK887      0.0661
     12  C5        25.1590  -32.4420   12.1810 C.2   887  TDK887      0.0164
     13  S1        26.5390  -32.2440   13.1890 S.3   887  TDK887     -0.0946
     14  C4        25.5550  -32.7940   10.9290 C.2   887  TDK887      0.0279
     15  CM4       24.6720  -32.9900    9.7500 C.3   887  TDK887      0.0473
     16  N3        26.9200  -32.8960   10.8130 N.pl3 887  TDK887     -0.2966
     17  C2        27.6030  -32.5950   11.9400 C.3   887  TDK887      0.1650
     18  CMA       29.0590  -32.2190   12.0490 C.3   887  TDK887      0.2468
     19  OM1       29.8610  -33.0940   11.2290 O.3   887  TDK887     -0.2105
     20  CMB       29.5050  -32.2490   13.4870 C.3   887  TDK887      0.0484
     21  PC        29.1230  -30.4900   11.4000 P.3   887  TDK887      0.3985
     22  OM3       28.6450  -30.4740   10.0080 O.2   887  TDK887     -0.2529
     23  OM2       30.6700  -30.2120   11.4510 O.3   887  TDK887     -0.2883
     24  CMC       31.4310  -29.8300   10.3850 C.3   887  TDK887      0.1840
     25  OM4       28.4360  -29.5980   12.3470 O.3   887  TDK887     -0.1376
     26  C7'       27.5720  -33.3300    9.5550 C.3   887  TDK887      0.1238
     27  C5'       27.4630  -34.8270    9.3620 C.2   887  TDK887      0.0654
     28  C6'       26.7420  -35.3300    8.3840 C.2   887  TDK887      0.1115
     29  N1'       26.6920  -36.6350    8.1510 N.2   887  TDK887     -0.1861
     30  C2'       27.3870  -37.4890    8.9130 C.1   887  TDK887      0.0663
     31  CM2       27.3160  -38.9120    8.6010 C.3   887  TDK887      0.1291
     32  N3'       28.1350  -37.0950    9.9190 N.2   887  TDK887     -0.3368
     33  C4'       28.2050  -35.7690   10.1810 C.2   887  TDK887      0.2292
     34  N4'       28.9480  -35.4110   11.1770 N.pl3 887  TDK887     -0.0925
@<TRIPOS>BOND
     1    29    28    1
     2    29    30    2
     3    28    27    2
     4    31    30    1
     5    30    32    2
     6    27    26    1
     7    27    33    1
     8    26    16    1
     9    15    14    1
    10    32    33    2
    11    22    21    2
    12    33    34    1
    13    24    23    1
    14    16    14    1
    15    16    17    1
    16    14    12    2
    17    19    18    1
    18    21    23    1
    19    21    18    1
    20    21    25    1
    21    17    18    1
    22    17    13    1
    23    18    20    1
    24    12    11    1
    25    12    13    1
    26    11    10    1
    27    10     9    1
    28     9     6    1
    29     8     6    2
    30     6     7    1
    31     6     5    1
    32     5     2    1
    33     3     2    2
    34     4     2    1
    35     2     1    1
