@<TRIPOS>MOLECULE
2g26_3LG_B_1.pdb
 42 46 0 0 0
SMALL
GASTEIGER

@<TRIPOS>ATOM
      1  C1        18.3530   43.9710  127.5310 C.3   805  3LG805      0.2525
      2  O1        18.7240   44.6730  128.7080 O.3   805  3LG805     -0.4717
      3  C2        19.0760   46.0300  128.5230 C.ar  805  3LG805      0.1370
      4  C3        18.6600   47.0000  129.4790 C.ar  805  3LG805      0.0413
      5  C4        17.8400   46.5190  130.6520 C.3   805  3LG805      0.1716
      6  O2        18.4450   46.5680  131.9210 O.3   805  3LG805     -0.3488
      7  C5        19.8500   46.4240  127.3910 C.ar  805  3LG805      0.0367
      8  C6        20.2080   47.7750  127.2080 C.ar  805  3LG805      0.0031
      9  C7        19.8010   48.7420  128.1530 C.ar  805  3LG805     -0.0000
     10  C8        19.0310   48.3600  129.2840 C.ar  805  3LG805      0.0012
     11  C20       16.9280   37.4500  127.9310 C.3   805  3LG805      0.1407
     12  C21       16.5810   36.0100  127.4630 C.3   805  3LG805      0.1132
     13  N2        16.0640   35.2040  128.5550 N.3   805  3LG805     -0.2066
     14  C22       16.8180   35.1190  129.7980 C.3   805  3LG805      0.1741
     15  C23       17.1960   36.5190  130.3340 C.2   805  3LG805      0.2472
     16  N3        17.2350   37.5820  129.4320 N.am  805  3LG805     -0.2540
     17  O5        17.4400   36.6310  131.5350 O.2   805  3LG805     -0.2730
     18  C24       18.0620   37.9420  126.9290 C.3   805  3LG805      0.2268
     19  O6        18.7690   39.1550  126.9880 O.3   805  3LG805     -0.4736
     20  C25       18.9400   39.2320  130.0660 C.ar  805  3LG805      0.0180
     21  C26       17.5740   38.8200  129.9740 C.ar  805  3LG805      0.0542
     22  C27       16.5590   39.7000  130.4480 C.ar  805  3LG805      0.0180
     23  C28       16.9070   40.9630  130.9930 C.ar  805  3LG805      0.0382
     24  C29       18.2790   41.3650  131.0730 C.ar  805  3LG805      0.1386
     25  C30       19.2820   40.4870  130.6060 C.ar  805  3LG805      0.0382
     26  O7        18.6870   42.5990  131.5840 O.3   805  3LG805     -0.4754
     27  C31       18.4430   42.8860  132.9490 C.3   805  3LG805      0.2080
     28  C32       18.0900   44.3790  133.0870 C.3   805  3LG805      0.0794
     29  C33       19.0410   45.3340  132.3150 C.3   805  3LG805      0.1465
     30  N1        21.6550   41.5570  122.8110 N.ar  805  3LG805     -0.3160
     31  C9        20.8980   40.7110  123.6420 C.ar  805  3LG805      0.0606
     32  C10       20.7510   41.4070  124.8970 C.ar  805  3LG805      0.0203
     33  C11       21.4420   42.6560  124.7750 C.ar  805  3LG805      0.0202
     34  C12       21.9680   42.6890  123.4910 C.ar  805  3LG805      0.0764
     35  C13       20.2940   39.4440  123.5190 C.ar  805  3LG805      0.0203
     36  C14       19.5720   38.8660  124.6000 C.ar  805  3LG805      0.0384
     37  C15       19.4430   39.5830  125.8410 C.ar  805  3LG805      0.1387
     38  C16       20.0510   40.8540  125.9540 C.ar  805  3LG805      0.0384
     39  C17       22.0980   41.3280  121.4050 C.3   805  3LG805      0.2211
     40  C18       23.2670   40.3730  121.1080 C.2   805  3LG805      0.3875
     41  O3        23.2890   40.0310  119.7990 O.co2 805  3LG805     -0.2435
     42  O4        24.0480   39.9710  121.9060 O.co2 805  3LG805     -0.2435
@<TRIPOS>BOND
     1    41    40   ar
     2    40    39    1
     3    40    42   ar
     4    39    30    1
     5    30    34   ar
     6    30    31   ar
     7    34    33   ar
     8    35    31   ar
     9    35    36   ar
    10    31    32   ar
    11    36    37   ar
    12    33    32   ar
    13    32    38   ar
    14    37    38   ar
    15    37    19    1
    16    18    19    1
    17    18    11    1
    18     8     7   ar
    19     8     9   ar
    20     7     3   ar
    21    12    11    1
    22    12    13    1
    23     1     2    1
    24    11    16    1
    25     9    10   ar
    26     3     2    1
    27     3     4   ar
    28    13    14    1
    29    10     4   ar
    30    16    21    1
    31    16    15   am
    32     4     5    1
    33    14    15    1
    34    21    20   ar
    35    21    22   ar
    36    20    25   ar
    37    15    17    2
    38    22    23   ar
    39    25    24   ar
    40     5     6    1
    41    23    24   ar
    42    24    26    1
    43    26    27    1
    44     6    29    1
    45    29    28    1
    46    27    28    1
