@<TRIPOS>MOLECULE
2g27_4LG_A_1.pdb
 43 47 0 0 0
SMALL
GASTEIGER

@<TRIPOS>ATOM
      1  C1        24.3250  112.6740  124.8310 C.3   804  4LG804      0.2525
      2  O1        24.8700  111.6570  124.0160 O.3   804  4LG804     -0.4717
      3  C2        24.5800  111.7790  122.6560 C.ar  804  4LG804      0.1370
      4  C3        25.3310  112.5950  121.7540 C.ar  804  4LG804      0.0413
      5  C4        26.5070  113.3840  122.2540 C.3   804  4LG804      0.1716
      6  O2        27.1640  114.1300  121.2630 O.3   804  4LG804     -0.3488
      7  C5        23.4800  111.0330  122.1720 C.ar  804  4LG804      0.0367
      8  C6        23.1200  111.0890  120.8040 C.ar  804  4LG804      0.0031
      9  C7        23.8540  111.8900  119.9160 C.ar  804  4LG804     -0.0000
     10  C8        24.9450  112.6310  120.3930 C.ar  804  4LG804      0.0012
     11  C9        27.0370  109.8400  128.0960 C.ar  804  4LG804      0.1401
     12  C10       26.1210  109.3330  128.9920 C.ar  804  4LG804      0.0541
     13  C11       25.2580  108.3440  128.6890 C.ar  804  4LG804      0.0634
     14  C12       25.2190  107.7520  127.4060 C.ar  804  4LG804      0.0175
     15  C13       26.1230  108.2280  126.4230 C.ar  804  4LG804      0.0046
     16  C14       27.0450  109.2870  126.7640 C.ar  804  4LG804      0.0370
     17  N1        24.3350  107.7950  129.5020 N.ar  804  4LG804     -0.3160
     18  C15       23.6520  106.8180  128.8220 C.ar  804  4LG804      0.0763
     19  C16       24.1680  106.7490  127.5040 C.ar  804  4LG804      0.0201
     20  C17       24.3030  108.3880  130.8650 C.3   804  4LG804      0.2166
     21  C18       23.3500  107.9590  131.8840 C.2   804  4LG804      0.3405
     22  O3        23.6670  108.5600  133.0330 O.3   804  4LG804     -0.4431
     23  O4        22.4450  107.2330  131.7010 O.2   804  4LG804     -0.2479
     24  C19       22.8800  108.3340  134.1980 C.3   804  4LG804      0.2557
     25  C20       29.2790  111.7720  130.5120 C.3   804  4LG804      0.1407
     26  C21       29.5570  111.0990  131.8770 C.3   804  4LG804      0.1132
     27  N2        30.3870  111.9560  132.6590 N.3   804  4LG804     -0.2066
     28  C22       31.6930  112.3010  132.0970 C.3   804  4LG804      0.1741
     29  C23       31.6680  112.6020  130.5580 C.2   804  4LG804      0.2472
     30  N3        30.4970  112.3410  129.8180 N.am  804  4LG804     -0.2540
     31  O5        32.7010  113.0690  130.0810 O.2   804  4LG804     -0.2730
     32  C24       28.4300  110.6760  129.8440 C.3   804  4LG804      0.2268
     33  O6        27.9320  110.8190  128.5080 O.3   804  4LG804     -0.4736
     34  C25       30.6810  111.6100  127.4700 C.ar  804  4LG804      0.0180
     35  C26       30.4330  112.6170  128.4500 C.ar  804  4LG804      0.0542
     36  C27       30.0830  113.9180  127.9510 C.ar  804  4LG804      0.0180
     37  C28       29.9850  114.1910  126.5610 C.ar  804  4LG804      0.0382
     38  C29       30.2230  113.1600  125.6080 C.ar  804  4LG804      0.1386
     39  C30       30.5660  111.8750  126.0880 C.ar  804  4LG804      0.0382
     40  O7        30.1640  113.2560  124.2050 O.3   804  4LG804     -0.4754
     41  C31       29.8420  114.4870  123.5810 C.3   804  4LG804      0.2080
     42  C32       29.5350  114.2940  122.0890 C.3   804  4LG804      0.0794
     43  C33       28.2600  114.9660  121.5670 C.3   804  4LG804      0.1465
@<TRIPOS>BOND
     1     9    10   ar
     2     9     8   ar
     3    10     4   ar
     4     8     7   ar
     5     6    43    1
     6     6     5    1
     7    43    42    1
     8     4     5    1
     9     4     3   ar
    10    42    41    1
    11     7     3   ar
    12     3     2    1
    13    41    40    1
    14     2     1    1
    15    40    38    1
    16    38    39   ar
    17    38    37   ar
    18    39    34   ar
    19    15    16   ar
    20    15    14   ar
    21    37    36   ar
    22    16    11   ar
    23    14    19   ar
    24    14    13   ar
    25    34    35   ar
    26    19    18   ar
    27    36    35   ar
    28    11    33    1
    29    11    12   ar
    30    35    30    1
    31    33    32    1
    32    13    12   ar
    33    13    17   ar
    34    18    17   ar
    35    17    20    1
    36    30    25    1
    37    30    29   am
    38    32    25    1
    39    31    29    2
    40    25    26    1
    41    29    28    1
    42    20    21    1
    43    23    21    2
    44    26    27    1
    45    21    22    1
    46    28    27    1
    47    22    24    1
