@<TRIPOS>MOLECULE
2g28_TDK_A_1.pdb
 34 35 0 0 0
SMALL
GASTEIGER

@<TRIPOS>ATOM
      1  O2B       22.5440  -32.3290   18.8480 O.3   887  TDK887     -0.1143
      2  PB        22.6500  -31.9040   17.4220 P.3   887  TDK887      0.5373
      3  O3B       23.7450  -30.9800   17.0370 O.3   887  TDK887     -0.1143
      4  O1B       21.2470  -31.2610   16.9640 O.2   887  TDK887     -0.2221
      5  O3A       22.7670  -33.2650   16.5370 O.3   887  TDK887     -0.2261
      6  PA        21.8340  -33.6200   15.2640 P.3   887  TDK887      0.2230
      7  O1A       20.4330  -33.2040   15.5250 O.3   887  TDK887     -0.4370
      8  O2A       22.0870  -35.0420   14.9110 O.2   887  TDK887     -0.5169
      9  O7        22.4620  -32.6980   14.1170 O.3   887  TDK887     -0.3134
     10  C7        23.8320  -32.9030   13.7450 C.3   887  TDK887      0.1544
     11  C6        24.1600  -32.0930   12.5670 C.3   887  TDK887      0.0661
     12  C5        25.5050  -32.3450   11.9950 C.2   887  TDK887      0.0164
     13  S1        26.9060  -31.9510   12.9130 S.3   887  TDK887     -0.0946
     14  C4        25.8740  -32.8290   10.7690 C.2   887  TDK887      0.0279
     15  CM4       24.9510  -33.2420    9.6870 C.3   887  TDK887      0.0473
     16  N3        27.2460  -32.8630   10.5920 N.pl3 887  TDK887     -0.2966
     17  C2        27.9530  -32.4080   11.6520 C.3   887  TDK887      0.1650
     18  CMA       29.4280  -32.0710   11.7070 C.3   887  TDK887      0.2468
     19  OM1       30.1790  -33.0160   10.9100 O.3   887  TDK887     -0.2105
     20  CMB       29.8940  -32.0600   13.1340 C.3   887  TDK887      0.0484
     21  PC        29.5820  -30.3800   10.9780 P.3   887  TDK887      0.3985
     22  OM3       29.1040  -30.4060    9.5600 O.2   887  TDK887     -0.2529
     23  OM2       31.1640  -30.1970   11.0530 O.3   887  TDK887     -0.2883
     24  CMC       32.0410  -30.5070   10.0430 C.3   887  TDK887      0.1840
     25  OM4       28.9400  -29.4050   11.8900 O.3   887  TDK887     -0.1376
     26  C7'       27.8750  -33.2780    9.2980 C.3   887  TDK887      0.1238
     27  C5'       27.8150  -34.7820    9.0550 C.2   887  TDK887      0.0654
     28  C6'       27.1590  -35.2720    8.0290 C.2   887  TDK887      0.1115
     29  N1'       27.1700  -36.5730    7.7410 N.2   887  TDK887     -0.1861
     30  C2'       27.8680  -37.4310    8.5100 C.1   887  TDK887      0.0663
     31  CM2       27.8680  -38.8520    8.1560 C.3   887  TDK887      0.1291
     32  N3'       28.5490  -37.0440    9.5590 N.2   887  TDK887     -0.3368
     33  C4'       28.5520  -35.7270    9.8670 C.2   887  TDK887      0.2292
     34  N4'       29.2360  -35.3780   10.9110 N.pl3 887  TDK887     -0.0925
@<TRIPOS>BOND
     1    29    28    1
     2    29    30    2
     3    28    27    2
     4    31    30    1
     5    30    32    2
     6    27    26    1
     7    27    33    1
     8    26    16    1
     9    32    33    2
    10    22    21    2
    11    15    14    1
    12    33    34    1
    13    24    23    1
    14    16    14    1
    15    16    17    1
    16    14    12    2
    17    19    18    1
    18    21    23    1
    19    21    18    1
    20    21    25    1
    21    17    18    1
    22    17    13    1
    23    18    20    1
    24    12    11    1
    25    12    13    1
    26    11    10    1
    27    10     9    1
    28     9     6    1
    29     8     6    2
    30     6     7    1
    31     6     5    1
    32     5     2    1
    33     4     2    2
    34     3     2    1
    35     2     1    1
