@<TRIPOS>MOLECULE
2g2f_112_C_1.pdb
 35 37 0 0 0
SMALL
GASTEIGER

@<TRIPOS>ATOM
      1  NS        13.5780   20.5310   15.7040 N.am  201  112201     -0.0870
      2  C2S       14.0260   20.4250   14.4400 C.2   201  112201      0.2723
      3  O2S       14.3450   19.2800   14.0720 O.2   201  112201     -0.2707
      4  C1S       14.1630   21.6350   13.4640 C.3   201  112201      0.1571
      5  PG        12.3870   21.3790   11.3300 P.3   201  112201      0.4244
      6  S1G       14.1700   21.3090   11.8100 S.3   201  112201     -0.0186
      7  O2G       12.0600   22.3260   10.2480 O.2   201  112201     -0.2432
      8  O3G       11.6350   21.6750   12.5700 O.3   201  112201     -0.1310
      9  PB        12.3450   19.0650    9.6020 P.3   201  112201      0.2262
     10  O1B       12.7310   17.7440   10.1840 O.3   201  112201     -0.4369
     11  O2B       11.3120   18.9950    8.5450 O.2   201  112201     -0.5168
     12  O3B       11.7780   20.0100   10.7360 O.3   201  112201     -0.2410
     13  PA        14.6800   18.9510    7.5210 P.3   201  112201      0.2189
     14  O1A       14.7100   19.9110    6.4130 O.2   201  112201     -0.5170
     15  O2A       15.9360   18.4830    8.1650 O.3   201  112201     -0.4371
     16  O3A       13.6970   19.4070    8.8740 O.3   201  112201     -0.2701
     17  O5'       13.6510   17.8150    7.0230 O.3   201  112201     -0.3112
     18  C5'       12.6150   18.2080    6.1980 C.3   201  112201      0.1813
     19  C4'       11.7520   17.0220    5.8060 C.3   201  112201      0.1821
     20  O4'       12.3270   16.2950    4.7670 O.3   201  112201     -0.3135
     21  C3'       11.5220   16.1070    6.9860 C.3   201  112201      0.2184
     22  O3'       10.1270   15.9630    7.2180 O.3   201  112201     -0.2174
     23  C2'       12.1830   14.7920    6.6380 C.3   201  112201      0.2570
     24  O2'       11.3930   13.6620    7.0260 O.3   201  112201     -0.2130
     25  C1'       12.5390   14.9690    5.0840 C.3   201  112201      0.3186
     26  N9        13.9560   14.6340    4.7360 N.pl3 201  112201     -0.1439
     27  C8        15.1800   15.1720    5.1820 C.3   201  112201      0.3377
     28  N7        16.2970   14.6650    4.7220 N.2   201  112201     -0.2095
     29  C5        15.8060   13.7020    3.8940 C.2   201  112201      0.2526
     30  C6        16.4300   12.7230    3.0530 C.2   201  112201      0.4393
     31  N6        17.8870   12.6540    2.9910 N.pl3 201  112201      0.2180
     32  N1        15.6310   11.8410    2.2980 N.2   201  112201      0.0021
     33  C2        14.2450   11.9030    2.3590 C.3   201  112201      0.5254
     34  N3        13.5280   12.7860    3.1240 N.2   201  112201     -0.0055
     35  C4        14.3560   13.6590    3.8760 C.2   201  112201      0.3518
@<TRIPOS>BOND
     1    32    33    1
     2    32    30    2
     3    33    34    1
     4    31    30    1
     5    30    29    1
     6    34    35    2
     7    35    29    1
     8    35    26    1
     9    29    28    2
    10    28    27    1
    11    26    25    1
    12    26    27    1
    13    20    25    1
    14    20    19    1
    15    25    23    1
    16    19    18    1
    17    19    21    1
    18    18    17    1
    19    14    13    2
    20    23    21    1
    21    23    24    1
    22    21    22    1
    23    17    13    1
    24    13    15    1
    25    13    16    1
    26    11     9    2
    27    16     9    1
    28     9    10    1
    29     9    12    1
    30     7     5    2
    31    12     5    1
    32     5     6    1
    33     5     8    1
    34     6     4    1
    35     4     2    1
    36     3     2    2
    37     2     1   am
