@<TRIPOS>MOLECULE
2g2f_AGS_B_1.pdb
 31 33 0 0 0
SMALL
GASTEIGER

@<TRIPOS>ATOM
      1  PG        22.3480  123.0550   36.6250 P.3   601  AGS601      0.4340
      2  S1G       20.8210  122.0020   37.0140 S.3   601  AGS601      0.0416
      3  O2G       22.1930  123.6090   35.1680 O.2   601  AGS601     -0.2423
      4  O3G       22.7010  124.1040   37.6580 O.3   601  AGS601     -0.1305
      5  PB        24.1500  121.3500   37.9840 P.3   601  AGS601      0.2262
      6  O1B       22.9210  121.1730   39.0010 O.3   601  AGS601     -0.4369
      7  O2B       24.6610  119.9830   37.5000 O.2   601  AGS601     -0.5168
      8  O3B       23.7130  122.1640   36.6930 O.3   601  AGS601     -0.2405
      9  PA        26.9330  121.9750   39.0970 P.3   601  AGS601      0.2189
     10  O1A       27.6250  123.1610   38.4500 O.2   601  AGS601     -0.5170
     11  O2A       27.0440  121.6760   40.6180 O.3   601  AGS601     -0.4371
     12  O3A       25.2720  122.0050   38.8350 O.3   601  AGS601     -0.2701
     13  O5'       27.1450  120.7200   37.9870 O.3   601  AGS601     -0.3112
     14  C5'       27.8380  120.9830   36.7700 C.3   601  AGS601      0.1813
     15  C4'       27.9440  119.7080   35.9150 C.3   601  AGS601      0.1821
     16  O4'       29.2060  119.1440   36.1380 O.3   601  AGS601     -0.3135
     17  C3'       26.8680  118.6740   36.2540 C.3   601  AGS601      0.2184
     18  O3'       25.8970  118.5550   35.2330 O.3   601  AGS601     -0.2174
     19  C2'       27.6250  117.4070   36.4790 C.3   601  AGS601      0.2570
     20  O2'       27.4400  116.4030   35.4020 O.3   601  AGS601     -0.2130
     21  C1'       29.0580  117.8060   36.5290 C.3   601  AGS601      0.3186
     22  N9        29.4220  117.6030   38.0160 N.pl3 601  AGS601     -0.1439
     23  C8        29.0860  118.3280   39.2000 C.3   601  AGS601      0.3377
     24  N7        29.5620  117.9370   40.3730 N.2   601  AGS601     -0.2095
     25  C5        30.2920  116.8420   39.9880 C.2   601  AGS601      0.2526
     26  C6        31.1000  115.9230   40.7460 C.2   601  AGS601      0.4393
     27  N6        31.2390  116.0900   42.1650 N.pl3 601  AGS601      0.2180
     28  N1        31.7430  114.8820   40.1180 N.2   601  AGS601      0.0021
     29  C2        31.6220  114.7120   38.7220 C.3   601  AGS601      0.5254
     30  N3        30.8840  115.5290   37.8500 N.2   601  AGS601     -0.0055
     31  C4        30.2370  116.5870   38.5400 C.2   601  AGS601      0.3518
@<TRIPOS>BOND
     1     3     1    2
     2    18    17    1
     3    20    19    1
     4    15    16    1
     5    15    17    1
     6    15    14    1
     7    16    21    1
     8    17    19    1
     9    19    21    1
    10    21    22    1
    11     1     8    1
    12     1     2    1
    13     1     4    1
    14     8     5    1
    15    14    13    1
    16     7     5    2
    17    30    31    2
    18    30    29    1
    19     5    12    1
    20     5     6    1
    21    13     9    1
    22    22    31    1
    23    22    23    1
    24    10     9    2
    25    31    25    1
    26    29    28    1
    27    12     9    1
    28     9    11    1
    29    23    24    1
    30    25    24    2
    31    25    26    1
    32    28    26    2
    33    26    27    1
