@<TRIPOS>MOLECULE
2g2h_P16_A_1.pdb
 29 32 0 0 0
SMALL
GASTEIGER

@<TRIPOS>ATOM
      1  O1       -44.4210   11.4390  -27.2950 O.3   532  P16532     -0.2152
      2  C2       -43.6300   10.6920  -26.4180 C.3   532  P16532      0.2086
      3  C3       -42.5210   11.5000  -25.7510 C.ar  532  P16532      0.0119
      4  C4       -42.8480   12.5780  -24.8410 C.ar  532  P16532     -0.0017
      5  C5       -41.8130   13.3290  -24.2160 C.ar  532  P16532      0.0011
      6  C6       -40.4410   13.0340  -24.4730 C.ar  532  P16532      0.0173
      7  C7       -40.0860   11.9600  -25.3800 C.ar  532  P16532      0.0823
      8  N9       -38.7390   11.5870  -25.7100 N.pl3 532  P16532     -0.1357
      9  C10      -37.5600   12.2630  -25.4470 C.1   532  P16532      0.1711
     10  N11      -36.4040   11.6400  -25.9260 N.2   532  P16532     -0.1682
     11  C12      -35.2240   12.2770  -25.7080 C.2   532  P16532      0.1158
     12  C13      -35.1290   13.5350  -25.0140 C.ar  532  P16532      0.0676
     13  C16      -33.8780   14.2430  -24.7820 C.ar  532  P16532      0.0105
     14  C17      -33.8560   15.4470  -24.1150 C.ar  532  P16532      0.0580
     15  C18      -35.1390   16.0650  -23.6060 C.ar  532  P16532      0.2627
     16  O21      -35.2160   17.1320  -23.0060 O.2   532  P16532     -0.2669
     17  N19      -36.3840   15.3320  -23.8550 N.ar  532  P16532     -0.2681
     18  C14      -36.3920   14.1010  -24.5470 C.ar  532  P16532      0.2117
     19  N15      -37.5700   13.4500  -24.7740 N.2   532  P16532     -0.3179
     20  C20      -37.6830   15.8990  -23.3760 C.3   532  P16532      0.1361
     21  C22      -32.5910   16.2060  -23.8800 C.ar  532  P16532      0.0257
     22  C27      -31.7530   15.9920  -22.7160 C.ar  532  P16532      0.0586
     23 CL28      -32.1480   14.8190  -21.4890 Cl    532  P16532     -0.0822
     24  C26      -30.5510   16.7510  -22.5340 C.ar  532  P16532      0.0114
     25  C25      -30.1600   17.7280  -23.4920 C.ar  532  P16532      0.0017
     26  C24      -30.9510   17.9650  -24.6470 C.ar  532  P16532      0.0114
     27  C23      -32.1520   17.2130  -24.8390 C.ar  532  P16532      0.0586
     28 CL29      -33.0750   17.5680  -26.3030 Cl    532  P16532     -0.0822
     29  C8       -41.1430   11.1990  -26.0160 C.ar  532  P16532      0.0156
@<TRIPOS>BOND
     1     1     2    1
     2     2     3    1
     3    28    27    1
     4    29     3   ar
     5    29     7   ar
     6    10    11    1
     7    10     9    2
     8     3     4   ar
     9     8     9    1
    10     8     7    1
    11    11    12    2
    12     9    19    2
    13     7     6   ar
    14    12    13   ar
    15    12    18   ar
    16     4     5   ar
    17    27    26   ar
    18    27    21   ar
    19    13    14   ar
    20    19    18    2
    21    26    25   ar
    22    18    17   ar
    23     6     5   ar
    24    14    21    1
    25    14    15   ar
    26    21    22   ar
    27    17    15   ar
    28    17    20    1
    29    15    16    2
    30    25    24   ar
    31    22    24   ar
    32    22    23    1
