@<TRIPOS>MOLECULE
2g2i_III_C_1.pdb
 48 48 0 0 0
SMALL
GASTEIGER

@<TRIPOS>ATOM
      1  N         -0.4190  -35.6950  -28.1140 N.3   104  GLU104     -0.1231
      2  CA        -0.8550  -36.8880  -28.8940 C.3   104  GLU104      0.1694
      3  C         -2.3640  -37.1210  -28.7620 C.2   104  GLU104      0.2592
      4  O         -3.0890  -36.2620  -28.2480 O.2   104  GLU104     -0.2718
      5  CB        -0.0890  -38.1260  -28.4190 C.3   104  GLU104      0.0304
      6  N         -2.8280  -38.2800  -29.2400 N.am  105  GLU105     -0.1966
      7  CA        -4.2470  -38.6450  -29.1700 C.3   105  GLU105      0.1728
      8  C         -4.4970  -39.5650  -27.9770 C.2   105  GLU105      0.2616
      9  O         -3.7920  -40.5470  -27.7560 O.2   105  GLU105     -0.2715
     10  CB        -4.6980  -39.3240  -30.4740 C.3   105  GLU105      0.0334
     11  N         -5.5240  -39.2300  -27.2150 N.am  106  ILE106     -0.1963
     12  CA        -5.8860  -39.9670  -26.0160 C.3   106  ILE106      0.1727
     13  C         -6.8750  -41.1030  -26.2690 C.2   106  ILE106      0.2616
     14  O         -6.5620  -42.2890  -26.0990 O.2   106  ILE106     -0.2715
     15  CB        -6.5230  -38.9960  -24.9870 C.3   106  ILE106      0.0290
     16  CG1       -5.4830  -38.0030  -24.4890 C.3   106  ILE106      0.0022
     17  CG2       -7.1300  -39.7560  -23.8280 C.3   106  ILE106      0.0023
     18  CD1       -6.1080  -36.8010  -23.8030 C.3   106  ILE106      0.0001
     19  N         -8.0800  -40.7070  -26.6580 N.am  107  PHE107     -0.1960
     20  CA        -9.1720  -41.6260  -26.9030 C.3   107  PHE107      0.1771
     21  C         -8.9760  -42.4870  -28.1610 C.2   107  PHE107      0.2620
     22  O         -8.1340  -42.1960  -29.0020 O.2   107  PHE107     -0.2715
     23  CB       -10.4800  -40.8180  -26.9460 C.3   107  PHE107      0.0574
     24  CG       -10.6730  -39.9040  -25.7400 C.ar  107  PHE107     -0.0200
     25  CD1       -9.8810  -38.7700  -25.5660 C.ar  107  PHE107     -0.0042
     26  CD2      -11.6300  -40.1910  -24.7680 C.ar  107  PHE107     -0.0042
     27  CE1      -10.0380  -37.9370  -24.4420 C.ar  107  PHE107     -0.0003
     28  CE2      -11.7940  -39.3620  -23.6390 C.ar  107  PHE107     -0.0003
     29  CZ       -10.9950  -38.2370  -23.4800 C.ar  107  PHE107     -0.0000
     30  N         -9.7390  -43.5690  -28.2590 N.am  108  GLY108     -0.1940
     31  CA        -9.6310  -44.4680  -29.3940 C.3   108  GLY108      0.2014
     32  C        -10.2650  -45.7940  -29.0250 C.2   108  GLY108      0.2639
     33  O        -10.3830  -46.1000  -27.8440 O.2   108  GLY108     -0.2714
     34  N        -10.6780  -46.5790  -30.0150 N.am  109  GLU109     -0.1963
     35  CA       -11.3110  -47.8670  -29.7400 C.3   109  GLU109      0.1728
     36  C        -10.3050  -49.0200  -29.8530 C.2   109  GLU109      0.2616
     37  O         -9.2650  -48.8730  -30.4980 O.2   109  GLU109     -0.2715
     38  CB       -12.4890  -48.0770  -30.6930 C.3   109  GLU109      0.0334
     39  N        -10.6080  -50.1560  -29.2190 N.am  110  PHE110     -0.1963
     40  CA        -9.7100  -51.3160  -29.2520 C.3   110  PHE110      0.1728
     41  C        -10.1830  -52.4300  -30.1820 C.2   110  PHE110      0.2616
     42  O        -11.3820  -52.6950  -30.3040 O.2   110  PHE110     -0.2715
     43  CB        -9.5060  -51.8770  -27.8350 C.3   110  PHE110      0.0334
     44  N         -9.2160  -53.0760  -30.8300 N.am  111  GLU111     -0.1977
     45  CA        -9.4800  -54.1750  -31.7530 C.3   111  GLU111      0.1597
     46  C         -8.3430  -55.2040  -31.6950 C.2   111  GLU111      0.2287
     47  O         -7.2850  -54.8930  -31.1050 O.2   111  GLU111     -0.2864
     48  CB        -9.6280  -53.6350  -33.1730 C.3   111  GLU111      0.0319
@<TRIPOS>BOND
     1    48    45    1
     2    45    46    1
     3    45    44    1
     4    46    47    2
     5    44    41   am
     6    38    35    1
     7    37    36    2
     8    10     7    1
     9    42    41    2
    10    41    40    1
    11    34    35    1
    12    34    32   am
    13    36    35    1
    14    36    39   am
    15    31    32    1
    16    31    30    1
    17    40    39    1
    18    40    43    1
    19     6     7    1
    20     6     3   am
    21     7     8    1
    22    32    33    2
    23    22    21    2
    24     2     3    1
    25     2     5    1
    26     2     1    1
    27     3     4    2
    28    30    21   am
    29    21    20    1
    30     8     9    2
    31     8    11   am
    32    11    12    1
    33    23    20    1
    34    23    24    1
    35    20    19    1
    36    19    13   am
    37    13    14    2
    38    13    12    1
    39    12    15    1
    40    24    25   ar
    41    24    26   ar
    42    25    27   ar
    43    15    16    1
    44    15    17    1
    45    26    28   ar
    46    16    18    1
    47    27    29   ar
    48    28    29   ar
