@<TRIPOS>MOLECULE
2g2i_ADP_A_1.pdb
 27 29 0 0 0
SMALL
GASTEIGER

@<TRIPOS>ATOM
      1  PB       -10.8210  -31.2850  -21.4030 P.3   820  ADP820      0.5373
      2  O1B      -10.8310  -31.3540  -19.9090 O.3   820  ADP820     -0.1143
      3  O2B      -10.1070  -32.6240  -21.9740 O.2   820  ADP820     -0.2221
      4  O3B       -9.9930  -29.9910  -21.8890 O.3   820  ADP820     -0.1143
      5  PA       -13.1820  -29.8850  -21.4990 P.3   820  ADP820      0.2231
      6  O1A      -13.5080  -29.0560  -22.6890 O.2   820  ADP820     -0.5169
      7  O2A      -14.5630  -30.3210  -20.7520 O.3   820  ADP820     -0.4370
      8  O3A      -12.3510  -31.2130  -21.9970 O.3   820  ADP820     -0.2261
      9  O5'      -12.2710  -28.9930  -20.5110 O.3   820  ADP820     -0.3111
     10  C5'      -13.1260  -28.2130  -19.6460 C.3   820  ADP820      0.1813
     11  C4'      -12.2910  -27.2600  -18.7500 C.3   820  ADP820      0.1821
     12  O4'      -13.1300  -26.7790  -17.6880 O.3   820  ADP820     -0.3135
     13  C3'      -11.0910  -27.9670  -18.0750 C.3   820  ADP820      0.2184
     14  O3'       -9.8650  -27.5940  -18.7050 O.3   820  ADP820     -0.2174
     15  C2'      -11.1190  -27.5340  -16.6150 C.3   820  ADP820      0.2570
     16  O2'       -9.8930  -26.8800  -16.2520 O.3   820  ADP820     -0.2130
     17  C1'      -12.3130  -26.5870  -16.5140 C.3   820  ADP820      0.3186
     18  N9       -13.0980  -26.8560  -15.3070 N.pl3 820  ADP820     -0.1439
     19  C8       -14.0960  -27.7810  -15.1590 C.3   820  ADP820      0.3377
     20  N7       -14.5760  -27.7360  -13.9530 N.2   820  ADP820     -0.2095
     21  C5       -13.9220  -26.7880  -13.2510 C.2   820  ADP820      0.2526
     22  C6       -13.9990  -26.2880  -11.9250 C.2   820  ADP820      0.4393
     23  N6       -14.9210  -26.8190  -11.0280 N.pl3 820  ADP820      0.2180
     24  N1       -13.1540  -25.2940  -11.5550 N.2   820  ADP820      0.0021
     25  C2       -12.2590  -24.7760  -12.4080 C.3   820  ADP820      0.5254
     26  N3       -12.1600  -25.2200  -13.6590 N.2   820  ADP820     -0.0055
     27  C4       -12.9630  -26.2080  -14.1160 C.2   820  ADP820      0.3518
@<TRIPOS>BOND
     1     6     5    2
     2     8     5    1
     3     8     1    1
     4     3     1    2
     5     4     1    1
     6     5     7    1
     7     5     9    1
     8     1     2    1
     9     9    10    1
    10    10    11    1
    11    11    13    1
    12    11    12    1
    13    14    13    1
    14    13    15    1
    15    12    17    1
    16    15    17    1
    17    15    16    1
    18    17    18    1
    19    18    19    1
    20    18    27    1
    21    19    20    1
    22    27    26    2
    23    27    21    1
    24    20    21    2
    25    26    25    1
    26    21    22    1
    27    25    24    1
    28    22    24    2
    29    22    23    1
