@<TRIPOS>MOLECULE
2g2l_III_C_1.pdb
 25 24 0 0 0
SMALL
GASTEIGER

@<TRIPOS>ATOM
      1  N         -0.4210   -3.6120   12.6520 N.3    15  ALA15      -0.1231
      2  CA        -1.2410   -3.1360   13.8200 C.3    15  ALA15       0.1694
      3  C         -2.0980   -4.2950   14.3530 C.2    15  ALA15       0.2593
      4  O         -2.4750   -5.1800   13.5860 O.2    15  ALA15      -0.2718
      5  CB        -2.1010   -1.9290   13.4280 C.3    15  ALA15       0.0304
      6  N         -2.3720   -4.3140   15.6580 N.am   16  THR16      -0.1939
      7  CA        -3.2420   -5.3320   16.2660 C.3    16  THR16       0.2028
      8  C         -4.1840   -4.6750   17.2600 C.2    16  THR16       0.2643
      9  O         -3.7270   -4.1470   18.2770 O.2    16  THR16      -0.2714
     10  CB        -2.4470   -6.3830   17.0520 C.3    16  THR16       0.1808
     11  OG1       -1.4700   -6.9860   16.2050 O.3    16  THR16      -0.2208
     12  CG2       -3.3690   -7.4770   17.5900 C.3    16  THR16       0.0379
     13  N         -5.4880   -4.7290   16.9690 N.am   17  GLY17      -0.1939
     14  CA        -6.5270   -4.2180   17.8640 C.3    17  GLY17       0.2014
     15  C         -6.6270   -4.9480   19.1940 C.2    17  GLY17       0.2639
     16  O         -6.6290   -6.1680   19.2470 O.2    17  GLY17      -0.2714
     17  N         -6.7060   -4.1760   20.2730 N.am   18  LEU18      -0.1941
     18  CA        -6.7570   -4.6900   21.6480 C.3    18  LEU18       0.1978
     19  C         -7.8650   -3.9990   22.4620 C.2    18  LEU18       0.3842
     20  O         -8.3360   -2.8960   22.1730 O.co2  18  LEU18      -0.2437
     21  CB        -5.4030   -4.5030   22.3350 C.3    18  LEU18       0.0333
     22  CG        -4.2060   -5.1120   21.6240 C.3    18  LEU18       0.0023
     23  CD1       -2.9100   -4.6610   22.2820 C.3    18  LEU18       0.0001
     24  CD2       -4.3110   -6.6060   21.6560 C.3    18  LEU18       0.0001
     25  OXT       -8.3410   -4.5470   23.4510 O.co2  18  LEU18      -0.2437
@<TRIPOS>BOND
     1     1     2    1
     2     5     2    1
     3     4     3    2
     4     2     3    1
     5     3     6   am
     6     6     7    1
     7    11    10    1
     8     7    10    1
     9     7     8    1
    10    13     8   am
    11    13    14    1
    12    10    12    1
    13     8     9    2
    14    14    15    1
    15    15    16    2
    16    15    17   am
    17    17    18    1
    18    22    24    1
    19    22    23    1
    20    22    21    1
    21    18    21    1
    22    18    19    1
    23    20    19   ar
    24    19    25   ar
