@<TRIPOS>MOLECULE
2g2r_TNS_A_1.pdb
 26 27 0 0 0
SMALL
GASTEIGER

@<TRIPOS>ATOM
      1  O22      -23.3700    7.6020  -11.7830 O.co2 1005  TNS1005    -0.2457
      2  C20      -24.1050    6.7540  -11.1980 C.2   1005  TNS1005     0.3649
      3  O21      -24.9790    6.0630  -11.7940 O.co2 1005  TNS1005    -0.2457
      4  C19      -23.9210    6.5390   -9.6950 C.3   1005  TNS1005     0.1141
      5  C18      -25.2140    6.7530   -8.8850 C.3   1005  TNS1005     0.0136
      6  C17      -25.4810    8.2490   -8.7220 C.3   1005  TNS1005     0.0220
      7  C16      -25.9720    8.6170   -7.3240 C.3   1005  TNS1005     0.0908
      8  N15      -25.2160    9.7930   -6.8810 N.pl3 1005  TNS1005    -0.3058
      9  C23      -25.4980   11.1210   -7.4260 C.3   1005  TNS1005     0.1122
     10  C14      -24.2420    9.6060   -5.8950 C.ar  1005  TNS1005     0.0479
     11  C13      -23.7240    8.3310   -5.7280 C.ar  1005  TNS1005     0.0145
     12  C12      -22.7710    8.0810   -4.7600 C.ar  1005  TNS1005     0.0013
     13  C9       -23.8040   10.6420   -5.0770 C.ar  1005  TNS1005     0.0145
     14  C10      -22.8420   10.3930   -4.0990 C.ar  1005  TNS1005     0.0013
     15  C11      -22.3300    9.1090   -3.9490 C.ar  1005  TNS1005     0.0001
     16  C8       -21.3130    8.7710   -2.9430 C.2   1005  TNS1005     0.0000
     17  C7       -20.8200    9.6730   -2.1160 C.2   1005  TNS1005     0.0000
     18  C3       -19.8020    9.2940   -1.1130 C.ar  1005  TNS1005     0.0001
     19  C2       -19.3510   10.3150   -0.2960 C.ar  1005  TNS1005     0.0017
     20  C4       -19.2900    8.0050   -0.9770 C.ar  1005  TNS1005     0.0017
     21  C5       -18.3250    7.7620   -0.0030 C.ar  1005  TNS1005     0.0241
     22  C6       -17.8870    8.8150    0.8190 C.ar  1005  TNS1005     0.1429
     23  C1       -18.3970   10.0890    0.6710 C.ar  1005  TNS1005     0.0241
     24  N24      -16.9220    8.6380    1.8190 N.pl3 1005  TNS1005     0.0577
     25  O26      -16.4270    7.5370    2.0100 O.2   1005  TNS1005    -0.1261
     26  O25      -16.5600    9.5850    2.5110 O.2   1005  TNS1005    -0.1261
@<TRIPOS>BOND
     1     3     2   ar
     2     1     2   ar
     3     2     4    1
     4     4     5    1
     5     5     6    1
     6     6     7    1
     7     9     8    1
     8     7     8    1
     9     8    10    1
    10    10    11   ar
    11    10    13   ar
    12    11    12   ar
    13    13    14   ar
    14    12    15   ar
    15    14    15   ar
    16    15    16    1
    17    16    17    2
    18    17    18    1
    19    18    20   ar
    20    18    19   ar
    21    20    21   ar
    22    19    23   ar
    23    21    22   ar
    24    23    22   ar
    25    22    24    1
    26    24    25    2
    27    24    26    2
