@<TRIPOS>MOLECULE
2g2z_COZ_A_1.pdb
 48 50 0 0 0
SMALL
GASTEIGER

@<TRIPOS>ATOM
      1  N1A       77.2390    7.7460   18.1190 N.2   1001  COZ1001     0.0021
      2  C2A       78.5130    7.3460   17.7940 C.3   1001  COZ1001     0.5254
      3  N3A       79.4140    8.2880   17.2140 N.2   1001  COZ1001    -0.0055
      4  C4A       78.9030    9.6460   16.9620 C.2   1001  COZ1001     0.3518
      5  C5A       77.6190    9.9590   17.3060 C.2   1001  COZ1001     0.2526
      6  C6A       76.7440    9.0620   17.9130 C.2   1001  COZ1001     0.4393
      7  N6A       75.4270    9.3770   18.3450 N.pl3 1001  COZ1001     0.2180
      8  N7A       77.3750   11.3190   16.9440 N.2   1001  COZ1001    -0.2095
      9  C8A       78.5700   11.8010   16.3820 C.3   1001  COZ1001     0.3377
     10  N9A       79.4990   10.7750   16.3940 N.pl3 1001  COZ1001    -0.1439
     11  C1B       80.8810   10.9700   15.9320 C.3   1001  COZ1001     0.3185
     12  C2B       81.4180    9.8160   15.0690 C.3   1001  COZ1001     0.2543
     13  O2B       80.3910    9.1920   14.2950 O.3   1001  COZ1001    -0.2131
     14  C3B       82.3440   10.6220   14.1750 C.3   1001  COZ1001     0.1928
     15  O3B       82.6820    9.9560   12.9690 O.3   1001  COZ1001    -0.2673
     16  P3B       84.1710   10.2370   12.3250 P.3   1001  COZ1001     0.5327
     17  O7A       84.1980   11.7430   11.9450 O.3   1001  COZ1001    -0.1145
     18  O8A       85.1930    9.8720   13.4360 O.3   1001  COZ1001    -0.1145
     19  O9A       84.2740    9.2990   11.0800 O.2   1001  COZ1001    -0.2224
     20  C4B       81.6240   11.9520   13.9580 C.3   1001  COZ1001     0.1795
     21  O4B       80.9930   12.2030   15.2110 O.3   1001  COZ1001    -0.3136
     22  C5B       80.5690   11.8460   12.8430 C.3   1001  COZ1001     0.1812
     23  O5B       79.4600   12.6970   13.1160 O.3   1001  COZ1001    -0.3112
     24  P1A       79.5240   14.3160   12.7960 P.3   1001  COZ1001     0.2189
     25  O1A       80.9460   14.7570   12.7470 O.3   1001  COZ1001    -0.4371
     26  O2A       78.7540   14.5910   11.5560 O.2   1001  COZ1001    -0.5170
     27  O3A       78.7680   15.0560   14.0890 O.3   1001  COZ1001    -0.2703
     28  P2A       78.5400   16.7090   14.0680 P.3   1001  COZ1001     0.2188
     29  O4A       77.5230   17.0480   13.0400 O.2   1001  COZ1001    -0.5170
     30  O5A       79.8510   17.3830   13.8770 O.3   1001  COZ1001    -0.4371
     31  O6A       77.9480   17.0950   15.5570 O.3   1001  COZ1001    -0.3138
     32  CBP       78.6580   18.3400   17.5240 C.3   1001  COZ1001     0.0645
     33  CCP       78.8040   17.0610   16.6920 C.3   1001  COZ1001     0.1519
     34  CDP       79.5440   18.1840   18.7670 C.3   1001  COZ1001     0.0056
     35  CEP       79.1820   19.5170   16.6940 C.3   1001  COZ1001     0.0056
     36  CAP       77.1710   18.5540   17.8990 C.3   1001  COZ1001     0.2312
     37  OAP       76.5920   17.3620   18.4240 O.3   1001  COZ1001    -0.2131
     38  C9P       76.9650   19.6800   18.8710 C.2   1001  COZ1001     0.2719
     39  O9P       77.0030   20.8690   18.5620 O.2   1001  COZ1001    -0.2706
     40  N8P       76.7280   19.3110   20.1850 N.am  1001  COZ1001    -0.2028
     41  C7P       76.6140   20.3170   21.2460 C.3   1001  COZ1001     0.1248
     42  C6P       75.3920   20.0490   22.1210 C.3   1001  COZ1001     0.1102
     43  C5P       75.4600   20.9260   23.3290 C.2   1001  COZ1001     0.2432
     44  O5P       75.4870   20.4770   24.4740 O.2   1001  COZ1001    -0.2733
     45  N4P       75.5250   22.2940   23.1110 N.am  1001  COZ1001    -0.2044
     46  C3P       75.7250   23.2330   24.2290 C.3   1001  COZ1001     0.1276
     47  C2P       76.8690   24.2020   23.9170 C.3   1001  COZ1001     0.0920
     48  S1P       78.4090   23.3030   23.5900 S.3   1001  COZ1001    -0.0802
@<TRIPOS>BOND
     1    19    16    2
     2    26    24    2
     3    17    16    1
     4    16    15    1
     5    16    18    1
     6    25    24    1
     7    24    23    1
     8    24    27    1
     9    22    23    1
    10    22    20    1
    11    15    14    1
    12    29    28    2
    13    30    28    1
    14    20    14    1
    15    20    21    1
    16    28    27    1
    17    28    31    1
    18    14    12    1
    19    13    12    1
    20    12    11    1
    21    21    11    1
    22    31    33    1
    23    11    10    1
    24     9    10    1
    25     9     8    1
    26    10     4    1
    27    33    32    1
    28    35    32    1
    29     8     5    2
    30     4     3    2
    31     4     5    1
    32     3     2    1
    33     5     6    1
    34    32    36    1
    35    32    34    1
    36     2     1    1
    37    36    37    1
    38    36    38    1
    39     6     1    2
    40     6     7    1
    41    39    38    2
    42    38    40   am
    43    40    41    1
    44    41    42    1
    45    42    43    1
    46    45    43   am
    47    45    46    1
    48    43    44    2
    49    48    47    1
    50    47    46    1
