@<TRIPOS>MOLECULE
2g30_III_S_1.pdb
 21 21 0 0 0
SMALL
GASTEIGER

@<TRIPOS>ATOM
      1  N         -3.5790  -13.2320    6.9070 N.3     6  ALA6       -0.1231
      2  CA        -2.5220  -14.3000    7.0930 C.3     6  ALA6        0.1694
      3  C         -1.2360  -14.0810    6.2530 C.2     6  ALA6        0.2592
      4  O         -1.0170  -14.7710    5.2520 O.2     6  ALA6       -0.2718
      5  CB        -3.1410  -15.6680    6.7910 C.3     6  ALA6        0.0304
      6  N         -0.3500  -13.1950    6.7410 N.am    7  ALA7       -0.1966
      7  CA         0.5520  -12.3740    5.9240 C.3     7  ALA7        0.1728
      8  C          2.0090  -12.8220    5.9000 C.2     7  ALA7        0.2616
      9  O          2.7810  -12.3300    5.0780 O.2     7  ALA7       -0.2715
     10  CB         0.5150  -10.9050    6.4390 C.3     7  ALA7        0.0334
     11  N          2.3810  -13.7020    6.8220 N.am    8  PHE8       -0.1974
     12  CA         3.7580  -14.1580    6.9570 C.3     8  PHE8        0.1639
     13  C          3.8100  -15.6660    7.1130 C.2     8  PHE8        0.2290
     14  O          4.8470  -16.2840    6.8020 O.2     8  PHE8       -0.2864
     15  CB         4.4180  -13.5470    8.1820 C.3     8  PHE8        0.0560
     16  CG         4.5010  -12.0430    8.1480 C.ar    8  PHE8       -0.0200
     17  CD1        3.5640  -11.2620    8.8180 C.ar    8  PHE8       -0.0042
     18  CD2        5.5350  -11.4240    7.4870 C.ar    8  PHE8       -0.0042
     19  CE1        3.6670   -9.8610    8.8080 C.ar    8  PHE8       -0.0003
     20  CE2        5.6470  -10.0050    7.4700 C.ar    8  PHE8       -0.0003
     21  CZ         4.7000   -9.2370    8.1390 C.ar    8  PHE8       -0.0000
@<TRIPOS>BOND
     1     9     8    2
     2     4     3    2
     3     8     7    1
     4     8    11   am
     5     7    10    1
     6     7     6    1
     7     3     6   am
     8     3     2    1
     9     5     2    1
    10    14    13    2
    11    11    12    1
    12     1     2    1
    13    12    13    1
    14    12    15    1
    15    20    18   ar
    16    20    21   ar
    17    18    16   ar
    18    21    19   ar
    19    16    15    1
    20    16    17   ar
    21    19    17   ar
