@<TRIPOS>MOLECULE
2g36_TRP_A_1.pdb
 15 16 0 0 0
SMALL
GASTEIGER

@<TRIPOS>ATOM
      1  N         22.9920   60.8170    1.5350 N.3   401  TRP401     -0.1205
      2  CA        22.5040   60.7270    2.9300 C.3   401  TRP401      0.1984
      3  C         22.8990   59.3700    3.4700 C.2   401  TRP401      0.3822
      4  O         23.0990   59.2470    4.6710 O.co2 401  TRP401     -0.2440
      5  CB        20.9840   60.8720    2.9840 C.3   401  TRP401      0.0549
      6  CG        20.5080   61.5360    4.2270 C.2   401  TRP401     -0.0138
      7  CD1       20.1440   62.8380    4.3500 C.2   401  TRP401      0.0907
      8  CD2       20.3620   60.9560    5.5330 C.3   401  TRP401      0.0819
      9  NE1       19.7610   63.1070    5.6390 N.2   401  TRP401     -0.2482
     10  CE2       19.8890   61.9700    6.3860 C.2   401  TRP401      0.0665
     11  CE3       20.5770   59.6840    6.0580 C.2   401  TRP401     -0.0164
     12  CZ2       19.6340   61.7540    7.7310 C.2   401  TRP401      0.0153
     13  CZ3       20.3310   59.4700    7.3950 C.2   401  TRP401     -0.0038
     14  CH2       19.8650   60.5000    8.2180 C.2   401  TRP401      0.0009
     15  OXT       23.0210   58.3840    2.7300 O.co2 401  TRP401     -0.2440
@<TRIPOS>BOND
     1     1     2    1
     2    15     3   ar
     3     2     5    1
     4     2     3    1
     5     5     6    1
     6     3     4   ar
     7     6     7    2
     8     6     8    1
     9     7     9    1
    10     8    11    1
    11     8    10    1
    12     9    10    2
    13    11    13    2
    14    10    12    1
    15    13    14    1
    16    12    14    2
