@<TRIPOS>MOLECULE
2g3h_HEM_A_1.pdb
 43 50 0 0 0
SMALL
GASTEIGER

@<TRIPOS>ATOM
      1 FE         16.4680   -2.2770    9.6300 Fe    154  HEM154      0.0000
      2  CHA       17.8700   -4.9210    8.0050 C.2   154  HEM154      0.0000
      3  CHB       13.6590   -4.1940   10.2680 C.2   154  HEM154      0.0000
      4  CHC       15.1200    0.2610   11.4210 C.2   154  HEM154      0.0000
      5  CHD       19.1530   -0.3100    8.7980 C.2   154  HEM154      0.0000
      6  NA        15.9030   -4.1420    9.2440 N.2   154  HEM154      0.0000
      7  C1A       16.6510   -5.1120    8.5840 C.2   154  HEM154      0.0000
      8  C2A       15.8910   -6.3650    8.5280 C.2   154  HEM154      0.0000
      9  C3A       14.7210   -6.1450    9.1440 C.2   154  HEM154      0.0000
     10  C4A       14.6810   -4.7590    9.5700 C.2   154  HEM154      0.0000
     11  CMA       13.5540   -7.1490    9.3480 C.3   154  HEM154      0.0000
     12  CAA       16.3880   -7.6880    7.9180 C.3   154  HEM154      0.0000
     13  CBA       16.6870   -8.7230    9.0030 C.3   154  HEM154      0.0000
     14  CGA       17.7000   -8.3400   10.0340 C.2   154  HEM154      0.0000
     15  O1A       18.8110   -7.9210    9.6870 O.co2 154  HEM154      0.0000
     16  O2A       17.3920   -8.5060   11.2330 O.co2 154  HEM154      0.0000
     17  NB        14.7940   -2.0660   10.6390 N.ar  154  HEM154      0.0000
     18  C1B       13.7510   -2.9060   10.7800 C.ar  154  HEM154      0.0000
     19  C2B       12.7360   -2.2910   11.4890 C.ar  154  HEM154      0.0000
     20  C3B       13.1280   -1.0750   11.9090 C.ar  154  HEM154      0.0000
     21  C4B       14.4220   -0.8910   11.3330 C.ar  154  HEM154      0.0000
     22  CMB       11.4000   -3.0070   11.9480 C.3   154  HEM154      0.0000
     23  CAB       12.4310    0.0010   12.7450 C.2   154  HEM154      0.0000
     24  CBB       11.1330    0.0610   12.8360 C.2   154  HEM154      0.0000
     25  NC        17.0230   -0.4170   10.0320 N.2   154  HEM154      0.0000
     26  C1C       16.3020    0.4890   10.7840 C.2   154  HEM154      0.0000
     27  C2C       16.9520    1.7690   10.7250 C.2   154  HEM154      0.0000
     28  C3C       18.0680    1.6400    9.9750 C.2   154  HEM154      0.0000
     29  C4C       18.1480    0.2500    9.5350 C.2   154  HEM154      0.0000
     30  CMC       16.4150    3.0220   11.4360 C.3   154  HEM154      0.0000
     31  CAC       19.0580    2.7930    9.7150 C.2   154  HEM154      0.0000
     32  CBC       19.7200    2.9130    8.6090 C.2   154  HEM154      0.0000
     33  ND        18.1700   -2.5430    8.6360 N.ar  154  HEM154      0.0000
     34  C1D       19.1360   -1.6170    8.3870 C.ar  154  HEM154      0.0000
     35  C2D       20.1250   -2.1920    7.6500 C.ar  154  HEM154      0.0000
     36  C3D       19.7420   -3.5660    7.2680 C.ar  154  HEM154      0.0000
     37  C4D       18.5280   -3.7410    7.9720 C.ar  154  HEM154      0.0000
     38  CMD       21.3460   -1.5130    6.9870 C.3   154  HEM154      0.0000
     39  CAD       20.5220   -4.5540    6.3880 C.3   154  HEM154      0.0000
     40  CBD       19.8370   -4.4460    5.0270 C.3   154  HEM154      0.0000
     41  CGD       20.3200   -5.3830    3.9460 C.2   154  HEM154      0.0000
     42  O1D       21.3590   -6.0720    4.1470 O.co2 154  HEM154      0.0000
     43  O2D       19.6980   -5.3410    2.8320 O.co2 154  HEM154      0.0000
@<TRIPOS>BOND
     1    43    41   ar
     2    41    42   ar
     3    41    40    1
     4    40    39    1
     5    39    36    1
     6    38    35    1
     7    36    35   ar
     8    36    37   ar
     9    35    34   ar
    10    12     8    1
    11    12    13    1
    12    37     2    2
    13    37    33   ar
    14     2     7    1
    15    34    33   ar
    16    34     5    2
    17     8     7    1
    18     8     9    2
    19     7     6    2
    20    32    31    2
    21    33     1    1
    22     5    29    1
    23    13    14    1
    24     9    11    1
    25     9    10    1
    26     6    10    1
    27     6     1    1
    28    29    28    1
    29    29    25    2
    30    10     3    2
    31     1    25    1
    32     1    17    1
    33    15    14   ar
    34    31    28    1
    35    28    27    2
    36    25    26    1
    37    14    16   ar
    38     3    18    1
    39    17    18   ar
    40    17    21   ar
    41    27    26    1
    42    27    30    1
    43    18    19   ar
    44    26     4    2
    45    21     4    1
    46    21    20   ar
    47    19    20   ar
    48    19    22    1
    49    20    23    1
    50    23    24    2
