@<TRIPOS>MOLECULE
2g3j_XYS_A_2.pdb
 10 10 0 0 0
SMALL
GASTEIGER

@<TRIPOS>ATOM
      1  C1         2.1580  101.6590   46.1400 C.3   801  XYS801      0.3024
      2  C2         2.2350  102.8940   46.9770 C.3   801  XYS801      0.2434
      3  C3         1.9500  102.4690   48.4150 C.3   801  XYS801      0.2199
      4  C4         0.5410  101.8840   48.5160 C.3   801  XYS801      0.2143
      5  C5         0.3860  100.8120   47.4360 C.3   801  XYS801      0.1804
      6  O1         2.6050  101.9420   44.8280 O.3   801  XYS801     -0.1869
      7  O2         3.5130  103.4740   46.8690 O.3   801  XYS801     -0.2148
      8  O3         2.1240  103.5650   49.2780 O.3   801  XYS801     -0.2174
      9  O4         0.3170  101.2840   49.7770 O.3   801  XYS801     -0.2176
     10  O5         0.8560  101.2640   46.1680 O.3   801  XYS801     -0.3237
@<TRIPOS>BOND
     1     6     1    1
     2     1    10    1
     3     1     2    1
     4    10     5    1
     5     7     2    1
     6     2     3    1
     7     5     4    1
     8     3     4    1
     9     3     8    1
    10     4     9    1
