@<TRIPOS>MOLECULE
2g3n_BOG_A_1.pdb
 14 14 0 0 0
SMALL
GASTEIGER

@<TRIPOS>ATOM
      1  C1        -6.8260   19.6290   76.8130 C.3   2000  BOG2000     0.2695
      2  O1        -6.7100   19.0920   75.4920 O.3   2000  BOG2000    -0.3286
      3  C2        -5.6170   20.5730   77.0800 C.3   2000  BOG2000     0.2406
      4  O2        -4.4040   19.8400   76.9410 O.3   2000  BOG2000    -0.2149
      5  C3        -5.7320   21.1910   78.5030 C.3   2000  BOG2000     0.2198
      6  O3        -4.6340   22.0550   78.7510 O.3   2000  BOG2000    -0.2174
      7  C4        -7.0650   21.9740   78.6070 C.3   2000  BOG2000     0.2144
      8  O4        -7.2000   22.5680   79.9120 O.3   2000  BOG2000    -0.2176
      9  C5        -8.2650   20.9960   78.3230 C.3   2000  BOG2000     0.1835
     10  O5        -8.0810   20.4050   76.9790 O.3   2000  BOG2000    -0.3256
     11  C6        -9.6020   21.7580   78.3950 C.3   2000  BOG2000     0.2142
     12  O6       -10.6460   21.0880   77.6700 O.3   2000  BOG2000    -0.2176
     13  C1'       -7.7640   18.2090   75.1180 C.3   2000  BOG2000     0.1450
     14  C2'       -8.0310   18.4850   73.6570 C.3   2000  BOG2000     0.0347
@<TRIPOS>BOND
     1    14    13    1
     2    13     2    1
     3     2     1    1
     4     1    10    1
     5     1     3    1
     6     4     3    1
     7    10     9    1
     8     3     5    1
     9    12    11    1
    10     9    11    1
    11     9     7    1
    12     5     7    1
    13     5     6    1
    14     7     8    1
