@<TRIPOS>MOLECULE
2g3v_III_E_1.pdb
 39 38 0 0 0
SMALL
GASTEIGER

@<TRIPOS>ATOM
      1  N        112.0850   99.6050   69.2160 N.3     1  UNK1        0.0000
      2  CA       112.0960   98.1960   68.7310 C.3     1  UNK1        0.0000
      3  C        112.0020   98.1430   67.2100 C.2     1  UNK1        0.0000
      4  O        112.8650   97.6370   66.5370 O.2     1  UNK1        0.0000
      5  CB       110.9470   97.4170   69.3560 C.3     1  UNK1        0.0000
      6  N        110.9050   98.7190   66.7490 N.am    2  UNK2        0.0000
      7  CA       110.6510   98.8050   65.2830 C.3     2  UNK2        0.0000
      8  C        111.7950   99.5220   64.5740 C.2     2  UNK2        0.0000
      9  O        112.1370   99.1880   63.4550 O.2     2  UNK2        0.0000
     10  CB       109.3350   99.5250   65.0190 C.3     2  UNK2        0.0000
     11  N        112.3730  100.4960   65.2500 N.am    3  UNK3        0.0000
     12  CA       113.4950  101.2940   64.6810 C.3     3  UNK3        0.0000
     13  C        114.7870  100.4840   64.6670 C.2     3  UNK3        0.0000
     14  O        115.4880  100.4280   63.6530 O.2     3  UNK3        0.0000
     15  CB       113.6860  102.5760   65.4790 C.3     3  UNK3        0.0000
     16  N        115.1130   99.9120   65.8030 N.am    4  UNK4        0.0000
     17  CA       116.3770   99.1310   65.9220 C.3     4  UNK4        0.0000
     18  C        116.2750   97.8120   65.1630 C.2     4  UNK4        0.0000
     19  O        117.2570   97.0780   65.0640 O.2     4  UNK4        0.0000
     20  CB       116.6980   98.8720   67.3870 C.3     4  UNK4        0.0000
     21  N        115.0900   97.5320   64.7110 N.am    5  UNK5        0.0000
     22  CA       114.9180   96.3110   63.8740 C.3     5  UNK5        0.0000
     23  C        115.2640   96.5970   62.4160 C.2     5  UNK5        0.0000
     24  O        114.9250   95.9070   61.5110 O.2     5  UNK5        0.0000
     25  CB       113.4890   95.7960   63.9840 C.3     5  UNK5        0.0000
     26  N        116.0100   97.7390   62.2730 N.am    6  MET6        0.0000
     27  CA       116.4290   98.1730   60.9500 C.3     6  MET6        0.0000
     28  C        117.7940   98.8690   60.8290 C.2     6  MET6        0.0000
     29  O        118.4130   98.8210   59.7640 O.2     6  MET6        0.0000
     30  CB       115.3480   99.0620   60.3280 C.3     6  MET6        0.0000
     31  CG       114.2050   98.2550   59.7320 C.3     6  MET6        0.0000
     32 SE        113.1560   99.2030   58.4280 Se      6  MET6        0.0000
     33  CE       114.0790   98.7270   56.8190 C.3     6  MET6        0.0000
     34  N        118.2820   99.4800   61.8950 N.am    7  UNK7        0.0000
     35  CA       119.5600  100.2450   61.8730 C.3     7  UNK7        0.0000
     36  C        120.5460   99.6300   60.8850 C.2     7  UNK7        0.0000
     37  O        121.1780  100.4380   60.1350 O.co2   7  UNK7        0.0000
     38  CB       120.1700  100.2890   63.2670 C.3     7  UNK7        0.0000
     39  OXT      120.6980   98.3900   60.8790 O.co2   7  UNK7        0.0000
@<TRIPOS>BOND
     1    33    32    1
     2    32    31    1
     3    31    30    1
     4    29    28    2
     5    37    36   ar
     6    30    27    1
     7    28    27    1
     8    28    34   am
     9    39    36   ar
    10    36    35    1
    11    27    26    1
    12    24    23    2
    13    35    34    1
    14    35    38    1
    15    26    23   am
    16    23    22    1
    17     9     8    2
    18    14    13    2
    19    22    25    1
    20    22    21    1
    21     8    11   am
    22     8     7    1
    23    13    12    1
    24    13    16   am
    25    12    11    1
    26    12    15    1
    27    21    18   am
    28    10     7    1
    29    19    18    2
    30    18    17    1
    31     7     6    1
    32    16    17    1
    33    17    20    1
    34     4     3    2
    35     6     3   am
    36     3     2    1
    37     2     1    1
    38     2     5    1
