@<TRIPOS>MOLECULE
2g3y_GDP_A_1.pdb
 28 30 0 0 0
SMALL
GASTEIGER

@<TRIPOS>ATOM
      1  PB       -17.2310    6.4200  -10.7370 P.3   1001  GDP1001     0.5373
      2  O1B      -15.7990    6.0960  -10.4280 O.3   1001  GDP1001    -0.1143
      3  O2B      -17.5960    5.9700  -12.1380 O.2   1001  GDP1001    -0.2221
      4  O3B      -18.1780    5.8170   -9.7450 O.3   1001  GDP1001    -0.1143
      5  O3A      -17.3170    8.0190  -10.5660 O.3   1001  GDP1001    -0.2261
      6  PA       -18.2580    9.0340  -11.4000 P.3   1001  GDP1001     0.2231
      7  O1A      -19.6750    8.5430  -11.3280 O.3   1001  GDP1001    -0.4370
      8  O2A      -17.7070    9.2950  -12.7830 O.2   1001  GDP1001    -0.5169
      9  O5'      -18.0550   10.3180  -10.4720 O.3   1001  GDP1001    -0.3111
     10  C5'      -18.7240   10.4210   -9.2100 C.3   1001  GDP1001     0.1813
     11  C4'      -18.8660   11.9020   -8.9020 C.3   1001  GDP1001     0.1799
     12  O4'      -17.5870   12.5310   -8.9970 O.3   1001  GDP1001    -0.3326
     13  C3'      -19.7520   12.5880   -9.9380 C.3   1001  GDP1001     0.2158
     14  O3'      -20.5960   13.5170   -9.2700 O.3   1001  GDP1001    -0.2175
     15  C2'      -18.7910   13.2720  -10.8830 C.3   1001  GDP1001     0.2310
     16  O2'      -19.2990   14.4760  -11.4440 O.3   1001  GDP1001    -0.2158
     17  C1'      -17.6370   13.5840   -9.9680 C.3   1001  GDP1001     0.2293
     18  N9       -16.3450   13.7010  -10.6690 N.pl3 1001  GDP1001    -0.2354
     19  C8       -15.7350   12.8290  -11.4890 C.3   1001  GDP1001     0.2246
     20  N7       -14.5410   13.3270  -11.9210 N.2   1001  GDP1001    -0.2322
     21  C5       -14.3870   14.5360  -11.3620 C.2   1001  GDP1001     0.2182
     22  C6       -13.3770   15.6000  -11.3550 C.1   1001  GDP1001     0.2372
     23  O6       -12.3140   15.5170  -12.0100 O.2   1001  GDP1001    -0.2069
     24  N1       -13.6400   16.6910  -10.6160 N.2   1001  GDP1001    -0.2485
     25  C2       -14.7630   16.8310   -9.9020 C.1   1001  GDP1001     0.2531
     26  N2       -14.9840   17.9270   -9.1780 N.pl3 1001  GDP1001    -0.0226
     27  N3       -15.7240   15.9020   -9.8490 N.2   1001  GDP1001    -0.3074
     28  C4       -15.5770   14.7550  -10.5470 C.2   1001  GDP1001     0.2300
@<TRIPOS>BOND
     1     8     6    2
     2     3     1    2
     3    23    22    2
     4    20    19    1
     5    20    21    2
     6    19    18    1
     7    16    15    1
     8     6     7    1
     9     6     5    1
    10     6     9    1
    11    21    22    1
    12    21    28    1
    13    22    24    2
    14    15    17    1
    15    15    13    1
    16     1     5    1
    17     1     2    1
    18     1     4    1
    19    18    28    1
    20    18    17    1
    21    24    25    2
    22    28    27    2
    23     9    10    1
    24    17    12    1
    25    13    14    1
    26    13    11    1
    27    25    27    2
    28    25    26    1
    29    10    11    1
    30    12    11    1
