@<TRIPOS>MOLECULE
2g41_NAG_A_1.pdb
 14 14 0 0 0
SMALL
GASTEIGER

@<TRIPOS>ATOM
      1  C1        13.3190   51.1400    7.6180 C.3   363  NAG363      0.1665
      2  C2        13.9880   51.8000    8.8480 C.3   363  NAG363      0.1576
      3  C3        13.1990   52.9950    9.3690 C.3   363  NAG363      0.2069
      4  C4        12.5490   53.7890    8.2200 C.3   363  NAG363      0.2134
      5  C5        11.9400   52.9180    7.2010 C.3   363  NAG363      0.1809
      6  C6        11.2560   53.7330    6.1240 C.3   363  NAG363      0.2141
      7  C7        15.2590   50.2720   10.1670 C.2   363  NAG363      0.2420
      8  C8        15.4020   49.5190   11.4740 C.3   363  NAG363      0.0964
      9  N2        14.0870   50.8300    9.9160 N.am  363  NAG363     -0.2019
     10  O3        14.0610   53.8420   10.1260 O.3   363  NAG363     -0.2184
     11  O4        11.4470   54.4790    8.7070 O.3   363  NAG363     -0.2176
     12  O5        12.9320   52.1000    6.6480 O.3   363  NAG363     -0.3489
     13  O6        12.1630   54.1220    5.1140 O.3   363  NAG363     -0.2176
     14  O7        16.2070   50.3490    9.3890 O.2   363  NAG363     -0.2733
@<TRIPOS>BOND
     1    13     6    1
     2     6     5    1
     3    12     5    1
     4    12     1    1
     5     5     4    1
     6     1     2    1
     7     4    11    1
     8     4     3    1
     9     2     3    1
    10     2     9    1
    11     3    10    1
    12    14     7    2
    13     9     7   am
    14     7     8    1
