@<TRIPOS>MOLECULE
2g44_T3O_A_1.pdb
 19 21 0 0 0
SMALL
GASTEIGER

@<TRIPOS>ATOM
      1  CAN      -22.2100   -0.5120   -3.9940 C.3   700  T3O700      0.0095
      2  CAD      -21.8390   -0.2640   -5.4550 C.3   700  T3O700      0.0495
      3  CAI      -23.0050   -0.6470   -6.3160 C.2   700  T3O700     -0.0458
      4  CAL      -22.7290   -1.0220   -7.7460 C.3   700  T3O700      0.0261
      5  CAO      -24.2750   -0.6700   -5.8460 C.2   700  T3O700     -0.0344
      6  CAM      -24.6530   -0.3100   -4.4210 C.3   700  T3O700      0.0277
      7  CAP      -23.4580    0.3030   -3.6840 C.3   700  T3O700      0.0297
      8  CAK      -23.2440    1.7720   -4.0440 C.3   700  T3O700      0.0935
      9  CAF      -24.2990    2.2970   -5.0240 C.3   700  T3O700      0.0296
     10  CAQ      -23.3180    2.5740   -2.7580 C.3   700  T3O700      0.0296
     11  OAR      -21.9160    1.9820   -4.5580 O.3   700  T3O700     -0.3563
     12  CAB      -21.5320    1.2070   -5.7050 C.3   700  T3O700      0.1408
     13  CAA      -20.0760    1.4170   -5.9600 C.ar  700  T3O700      0.0050
     14  CAC      -19.5670    1.1750   -7.2370 C.ar  700  T3O700      0.0013
     15  CAH      -18.2180    1.3710   -7.5150 C.ar  700  T3O700      0.0418
     16  CAJ      -17.3660    1.8210   -6.5120 C.ar  700  T3O700      0.1957
     17  OAS      -16.0490    2.0080   -6.8200 O.3   700  T3O700     -0.2866
     18  CAG      -17.8640    2.0730   -5.2260 C.ar  700  T3O700      0.0418
     19  CAE      -19.2200    1.8750   -4.9460 C.ar  700  T3O700      0.0013
@<TRIPOS>BOND
     1     4     3    1
     2    15    14   ar
     3    15    16   ar
     4    14    13   ar
     5    17    16    1
     6    16    18   ar
     7     3     5    2
     8     3     2    1
     9    13    12    1
    10    13    19   ar
    11     5     6    1
    12    12     2    1
    13    12    11    1
    14     2     1    1
    15    18    19   ar
    16     9     8    1
    17    11     8    1
    18     6     7    1
    19     8     7    1
    20     8    10    1
    21     1     7    1
