@<TRIPOS>MOLECULE
2g46_SAH_A_1.pdb
 45 47 0 0 0
SMALL
GASTEIGER

@<TRIPOS>ATOM
      1  N        -10.0660   -0.2780   -8.5320 N.3   301  SAH301     -0.3183
      2  CA        -9.8720    0.9140   -7.6510 C.3   301  SAH301      0.1084
      3  CB       -11.0450    0.8890   -6.6640 C.3   301  SAH301     -0.0182
      4  CG       -12.1770    1.7730   -7.1940 C.3   301  SAH301     -0.0043
      5  SD       -12.1300    3.3770   -6.3560 S.3   301  SAH301     -0.1580
      6  C         -8.5430    0.8080   -6.8990 C.2   301  SAH301      0.3724
      7  O         -8.2270    1.6910   -6.1190 O.co2 301  SAH301     -0.2446
      8  OXT       -7.7850   -0.1140   -7.1530 O.co2 301  SAH301     -0.2446
      9  C5'      -13.9220    3.6160   -6.2190 C.3   301  SAH301      0.0226
     10  C4'      -14.3700    4.5870   -7.2050 C.3   301  SAH301      0.0984
     11  O4'      -14.8940    3.8990   -8.3580 O.3   301  SAH301     -0.3489
     12  C3'      -15.4750    5.4530   -6.6160 C.3   301  SAH301      0.1119
     13  O3'      -15.0770    6.8260   -6.5640 O.3   301  SAH301     -0.3865
     14  C2'      -16.6770    5.2730   -7.5140 C.3   301  SAH301      0.1266
     15  O2'      -17.0690    6.5170   -8.1000 O.3   301  SAH301     -0.3849
     16  C1'      -16.2680    4.2720   -8.5840 C.3   301  SAH301      0.1617
     17  N9       -17.1430    3.0850   -8.5420 N.pl3 301  SAH301     -0.2234
     18  C8       -17.0390    1.9820   -7.7570 C.2   301  SAH301      0.1451
     19  N7       -18.0800    1.2280   -7.6400 N.2   301  SAH301     -0.3871
     20  C5       -19.0040    1.8990   -8.4430 C.2   301  SAH301      0.2211
     21  C6       -20.3390    1.6380   -8.7720 C.2   301  SAH301      0.2227
     22  N6       -21.0110    0.5830   -8.3130 N.pl3 301  SAH301     -0.3300
     23  N1       -20.9560    2.5070   -9.5930 N.2   301  SAH301     -0.3296
     24  C2       -20.3020    3.5700  -10.0650 C.1   301  SAH301      0.0930
     25  N3       -19.0410    3.9120   -9.8180 N.2   301  SAH301     -0.3287
     26  C4       -18.4440    3.0270   -8.9950 C.2   301  SAH301      0.2354
     27  H2       -20.8640    4.2310  -10.7240 H     301  SAH301      0.1751
     28  HN1      -10.5130   -1.0520   -7.9940 H     301  SAH301      0.1190
     29  HN2       -9.1420   -0.5940   -8.8890 H     301  SAH301      0.1190
     30  HA        -9.8980    1.8200   -8.2380 H     301  SAH301      0.0576
     31  HB1      -11.4020   -0.1230   -6.5520 H     301  SAH301      0.0293
     32  HB2      -10.7160    1.2630   -5.7060 H     301  SAH301      0.0293
     33  HG1      -13.1260    1.2950   -7.0030 H     301  SAH301      0.0377
     34  HG2      -12.0530    1.9180   -8.2570 H     301  SAH301      0.0377
     35 H5'1      -14.4230    2.6740   -6.3900 H     301  SAH301      0.0402
     36 H5'2      -14.1610    3.9740   -5.2280 H     301  SAH301      0.0402
     37  H4'      -13.5350    5.2200   -7.5080 H     301  SAH301      0.0632
     38  H3'      -15.7180    5.1080   -5.6110 H     301  SAH301      0.0647
     39 HO3'      -15.8700    7.3570   -6.6670 H     301  SAH301      0.2100
     40  H2'      -17.5060    4.8670   -6.9340 H     301  SAH301      0.0663
     41 HO2'      -17.9970    6.4420   -8.3350 H     301  SAH301      0.2101
     42  H1'      -16.3530    4.7420   -9.5640 H     301  SAH301      0.0841
     43  H8       -16.1100    1.7440   -7.2420 H     301  SAH301      0.1149
     44 HN61      -21.8240    0.2470   -8.8090 H     301  SAH301      0.1448
     45 HN62      -20.7160    0.1280   -7.4610 H     301  SAH301      0.1448
@<TRIPOS>BOND
     1    27    24    1
     2    24    25    2
     3    24    23    2
     4    25    26    2
     5    23    21    2
     6    42    16    1
     7    26    17    1
     8    26    20    1
     9    29     1    1
    10    44    22    1
    11    21    20    1
    12    21    22    1
    13    16    17    1
    14    16    11    1
    15    16    14    1
    16    17    18    1
    17     1    28    1
    18     1     2    1
    19    20    19    2
    20    11    10    1
    21    41    15    1
    22    22    45    1
    23    34     4    1
    24    30     2    1
    25    15    14    1
    26    18    19    2
    27    18    43    1
    28     2     6    1
    29     2     3    1
    30    14    40    1
    31    14    12    1
    32    37    10    1
    33    10    12    1
    34    10     9    1
    35     4    33    1
    36     4     3    1
    37     4     5    1
    38     8     6   ar
    39     6     7   ar
    40    39    13    1
    41     3    31    1
    42     3    32    1
    43    12    13    1
    44    12    38    1
    45    35     9    1
    46     5     9    1
    47     9    36    1
