@<TRIPOS>MOLECULE
2g47_III_C_1.pdb
 22 21 0 0 0
SMALL
GASTEIGER

@<TRIPOS>ATOM
      1  N        116.6470   -2.8870   -0.7080 N.3     1  ASP1       -0.1225
      2  CA       115.7050   -4.0310   -0.6340 C.3     1  ASP1        0.1805
      3  C        115.8520   -5.0900   -1.7270 C.2     1  ASP1        0.2598
      4  O        116.7550   -5.0390   -2.5760 O.2     1  ASP1       -0.2718
      5  CB       114.2550   -3.5150   -0.6110 C.3     1  ASP1        0.1424
      6  CG       113.8650   -2.7600   -1.8700 C.2     1  ASP1        0.3668
      7  OD1      114.7460   -2.4460   -2.7020 O.co2   1  ASP1       -0.2456
      8  OD2      112.6540   -2.4650   -2.0080 O.co2   1  ASP1       -0.2456
      9  N        114.9390   -6.0610   -1.6740 N.am    2  ALA2       -0.1966
     10  CA       114.9050   -7.1690   -2.6280 C.3     2  ALA2        0.1728
     11  C        114.1970   -6.8160   -3.9370 C.2     2  ALA2        0.2616
     12  O        113.0750   -6.3040   -3.9760 O.2     2  ALA2       -0.2715
     13  CB       114.2560   -8.4060   -1.9850 C.3     2  ALA2        0.0334
     14  N        114.8930   -7.1350   -5.0150 N.am    3  GLU3       -0.1977
     15  CA       114.4510   -6.8870   -6.3770 C.3     3  GLU3        0.1602
     16  C        113.0090   -7.2780   -6.7760 C.2     3  GLU3        0.2287
     17  O        112.4810   -8.3510   -6.4370 O.2     3  GLU3       -0.2864
     18  CB       115.4730   -7.5300   -7.3120 C.3     3  GLU3        0.0415
     19  CG       115.9110   -6.5810   -8.3840 C.3     3  GLU3        0.1163
     20  CD       115.0290   -6.6740   -9.5890 C.2     3  GLU3        0.3649
     21  OE1      114.5090   -7.7930   -9.8210 O.co2   3  GLU3       -0.2457
     22  OE2      114.8670   -5.6580  -10.3140 O.co2   3  GLU3       -0.2457
@<TRIPOS>BOND
     1    22    20   ar
     2    21    20   ar
     3    20    19    1
     4    19    18    1
     5    18    15    1
     6    16    17    2
     7    16    15    1
     8    15    14    1
     9    14    11   am
    10    12    11    2
    11    11    10    1
    12     7     6   ar
    13    10    13    1
    14    10     9    1
    15     4     3    2
    16     8     6   ar
    17     6     5    1
    18     3     9   am
    19     3     2    1
    20     1     2    1
    21     2     5    1
