@<TRIPOS>MOLECULE
2g48_III_C_1.pdb
 40 39 0 0 0
SMALL
GASTEIGER

@<TRIPOS>ATOM
      1  N        108.6220   64.8810   26.0570 N.3     1  LYS1       -0.1231
      2  CA       108.8870   66.0000   25.1130 C.3     1  LYS1        0.1693
      3  C        108.2760   67.3050   25.6240 C.2     1  LYS1        0.2592
      4  O        107.6090   67.3290   26.6610 O.2     1  LYS1       -0.2718
      5  CB       108.3350   65.6590   23.7170 C.3     1  LYS1        0.0285
      6  CG       106.8400   65.3310   23.6720 C.3     1  LYS1        0.0035
      7  CD       106.3400   65.0510   22.2440 C.3     1  LYS1        0.0206
      8  CE       106.5400   63.5930   21.8040 C.3     1  LYS1        0.1093
      9  NZ       107.9610   63.1150   21.8250 N.3     1  LYS1       -0.1314
     10  N        108.5240   68.3810   24.8840 N.am    2  CYS2       -0.1956
     11  CA       108.0320   69.7220   25.2040 C.3     2  CYS2        0.1843
     12  C        106.5710   69.8390   24.7240 C.2     2  CYS2        0.2625
     13  O        106.2770   69.4910   23.5800 O.2     2  CYS2       -0.2714
     14  CB       108.9290   70.7370   24.4810 C.3     2  CYS2        0.0997
     15  SG       108.8770   72.4330   25.0760 S.3     2  CYS2       -0.0797
     16  N        105.6610   70.3160   25.5820 N.am    3  ASN3       -0.1958
     17  CA       104.2440   70.4360   25.1980 C.3     3  ASN3        0.1819
     18  C        104.1110   71.2560   23.9260 C.2     3  ASN3        0.2622
     19  O        103.2090   71.0580   23.1150 O.2     3  ASN3       -0.2715
     20  CB       103.4070   71.0870   26.3040 C.3     3  ASN3        0.1195
     21  CG       101.9210   70.8240   26.1220 C.2     3  ASN3        0.2630
     22  OD1      101.5290   69.7090   25.7800 O.2     3  ASN3       -0.2716
     23  ND2      101.0920   71.8370   26.3550 N.am    3  ASN3       -0.0877
     24  N        105.0320   72.1910   23.7860 N.am    4  THR4       -0.1937
     25  CA       105.1360   73.0700   22.6350 C.3     4  THR4        0.2028
     26  C        105.2530   72.2880   21.3150 C.2     4  THR4        0.2642
     27  O        105.3570   72.8880   20.2480 O.2     4  THR4       -0.2714
     28  CB       106.4310   73.8720   22.7600 C.3     4  THR4        0.1808
     29  OG1      106.1410   75.2700   22.8080 O.3     4  THR4       -0.2208
     30  CG2      107.3640   73.5630   21.5910 C.3     4  THR4        0.0379
     31  N        105.2410   70.9660   21.3710 N.am    5  ALA5       -0.1963
     32  CA       105.4770   70.1880   20.1640 C.3     5  ALA5        0.1728
     33  C        104.4240   69.1390   19.9160 C.2     5  ALA5        0.2616
     34  O        104.4760   68.3830   18.9510 O.2     5  ALA5       -0.2715
     35  CB       106.8340   69.5420   20.2820 C.3     5  ALA5        0.0334
     36  N        103.4710   69.1310   20.8340 N.am    6  THR6       -0.1977
     37  CA       102.3600   68.2190   20.7960 C.3     6  THR6        0.1597
     38  C        101.8540   67.9300   19.3840 C.2     6  THR6        0.2287
     39  O        101.1910   68.7270   18.7390 O.2     6  THR6       -0.2864
     40  CB       101.2360   68.7650   21.7210 C.3     6  THR6        0.0319
@<TRIPOS>BOND
     1    39    38    2
     2    34    33    2
     3    38    37    1
     4    33    32    1
     5    33    36   am
     6    32    35    1
     7    32    31    1
     8    27    26    2
     9    37    36    1
    10    37    40    1
    11    26    31   am
    12    26    25    1
    13    30    28    1
    14     8     9    1
    15     8     7    1
    16     7     6    1
    17    25    28    1
    18    25    24    1
    19    28    29    1
    20    19    18    2
    21    13    12    2
    22     6     5    1
    23     5     2    1
    24    24    18   am
    25    18    17    1
    26    14    15    1
    27    14    11    1
    28    12    11    1
    29    12    16   am
    30    10    11    1
    31    10     3   am
    32     2     3    1
    33     2     1    1
    34    17    16    1
    35    17    20    1
    36     3     4    2
    37    22    21    2
    38    21    20    1
    39    21    23   am
