@<TRIPOS>MOLECULE
2g49_III_C_1.pdb
 29 29 0 0 0
SMALL
GASTEIGER

@<TRIPOS>ATOM
      1  N        152.1910   61.6640   25.8370 N.3     1  HIS1       -0.1227
      2  CA       150.9880   61.3910   25.0110 C.3     1  HIS1        0.1749
      3  C        150.1480   60.2190   25.5300 C.2     1  HIS1        0.2597
      4  O        150.5080   59.5440   26.5060 O.2     1  HIS1       -0.2718
      5  CB       151.4010   61.1360   23.5550 C.3     1  HIS1        0.0718
      6  CG       152.2440   59.9120   23.3600 C.2     1  HIS1        0.0650
      7  ND1      151.7160   58.6870   23.0070 N.2     1  HIS1       -0.2310
      8  CD2      153.5850   59.7340   23.4310 C.3     1  HIS1        0.1683
      9  CE1      152.6940   57.8100   22.8640 C.2     1  HIS1        0.1939
     10  NE2      153.8400   58.4210   23.1150 N.2     1  HIS1       -0.2440
     11  N        149.0300   59.9880   24.8430 N.am    2  SER2       -0.1938
     12  CA       148.0810   58.9390   25.1870 C.3     2  SER2        0.2055
     13  C        148.4440   57.5930   24.5690 C.2     2  SER2        0.2643
     14  O        148.7200   57.4820   23.3690 O.2     2  SER2       -0.2714
     15  CB       146.6690   59.3560   24.7560 C.3     2  SER2        0.2130
     16  OG       145.7190   58.3360   25.0180 O.3     2  SER2       -0.2179
     17  N        148.4200   56.5770   25.4240 N.am    3  GLN3       -0.1963
     18  CA       148.7550   55.1940   25.0900 C.3     3  GLN3        0.1733
     19  C        148.0280   54.5370   23.9130 C.2     3  GLN3        0.2616
     20  O        146.8130   54.3200   23.9530 O.2     3  GLN3       -0.2715
     21  CB       148.5680   54.3370   26.3370 C.3     3  GLN3        0.0408
     22  CG       149.8410   53.7610   26.9160 C.3     3  GLN3        0.0908
     23  CD       150.3810   52.6060   26.0940 C.2     3  GLN3        0.2608
     24  OE1      151.5260   52.6390   25.6400 O.2     3  GLN3       -0.2717
     25  NE2      149.5500   51.5870   25.8760 N.am    3  GLN3       -0.0878
     26  N        148.8170   54.1300   22.9170 N.am    4  GLY4       -0.1955
     27  CA       148.2870   53.5240   21.7010 C.3     4  GLY4        0.1869
     28  C        149.3360   52.6220   21.0620 C.2     4  GLY4        0.2309
     29  O        149.1550   51.4130   20.8540 O.2     4  GLY4       -0.2863
@<TRIPOS>BOND
     1    29    28    2
     2    28    27    1
     3    27    26    1
     4     9     7    1
     5     9    10    2
     6    26    19   am
     7     7     6    2
     8    10     8    1
     9     6     8    1
    10     6     5    1
    11    14    13    2
    12     5     2    1
    13    19    20    2
    14    19    18    1
    15    13    12    1
    16    13    17   am
    17    15    16    1
    18    15    12    1
    19    11    12    1
    20    11     3   am
    21     2     3    1
    22     2     1    1
    23    18    17    1
    24    18    21    1
    25     3     4    2
    26    24    23    2
    27    25    23   am
    28    23    22    1
    29    21    22    1
