@<TRIPOS>MOLECULE
2g54_III_C_1.pdb
 40 40 0 0 0
SMALL
GASTEIGER

@<TRIPOS>ATOM
      1  N        110.6460   61.8570  -13.1100 N.3     1  PHE1       -0.1227
      2  CA       111.6600   61.3620  -12.1550 C.3     1  PHE1        0.1736
      3  C        112.4310   60.1610  -12.7020 C.2     1  PHE1        0.2595
      4  O        112.1030   59.6370  -13.7620 O.2     1  PHE1       -0.2718
      5  CB       110.9950   61.0110  -10.8170 C.3     1  PHE1        0.0547
      6  CG       109.9510   59.9420  -10.9550 C.ar    1  PHE1       -0.0202
      7  CD1      110.2520   58.6110  -10.6170 C.ar    1  PHE1       -0.0042
      8  CD2      108.6210   60.2850  -11.2610 C.ar    1  PHE1       -0.0042
      9  CE1      109.2720   57.5970  -10.7410 C.ar    1  PHE1       -0.0003
     10  CE2      107.6270   59.2810  -11.3890 C.ar    1  PHE1       -0.0003
     11  CZ       107.9440   57.9440  -11.0530 C.ar    1  PHE1       -0.0000
     12  N        113.4590   59.7390  -11.9700 N.am    2  VAL2       -0.1966
     13  CA       114.3110   58.6170  -12.3690 C.3     2  VAL2        0.1727
     14  C        113.7350   57.2760  -11.9200 C.2     2  VAL2        0.2616
     15  O        113.2680   57.1450  -10.7860 O.2     2  VAL2       -0.2715
     16  CB       115.7340   58.7650  -11.7730 C.3     2  VAL2        0.0290
     17  CG1      116.6850   57.7930  -12.4480 C.3     2  VAL2        0.0023
     18  CG2      116.2210   60.2060  -11.9290 C.3     2  VAL2        0.0023
     19  N        113.7900   56.2830  -12.8070 N.am    3  ASN3       -0.1958
     20  CA       113.2520   54.9490  -12.5230 C.3     3  ASN3        0.1819
     21  C        114.0780   54.0340  -11.6440 C.2     3  ASN3        0.2621
     22  O        114.9220   53.2830  -12.1240 O.2     3  ASN3       -0.2715
     23  CB       112.9710   54.1670  -13.8010 C.3     3  ASN3        0.1195
     24  CG       112.2880   52.8420  -13.5080 C.2     3  ASN3        0.2630
     25  OD1      111.0790   52.8070  -13.2400 O.2     3  ASN3       -0.2716
     26  ND2      113.0590   51.7510  -13.5100 N.am    3  ASN3       -0.0877
     27  N        113.7900   54.0650  -10.3600 N.am    4  GLN4       -0.1963
     28  CA       114.4680   53.2400   -9.3660 C.3     4  GLN4        0.1733
     29  C        113.2540   52.9260   -8.5100 C.2     4  GLN4        0.2616
     30  O        113.2060   51.9700   -7.7160 O.2     4  GLN4       -0.2715
     31  CB       115.4160   54.1310   -8.5700 C.3     4  GLN4        0.0408
     32  CG       114.6320   55.1230   -7.6950 C.3     4  GLN4        0.0908
     33  CD       115.2360   56.5260   -7.6370 C.2     4  GLN4        0.2608
     34  OE1      116.4420   56.6900   -7.4130 O.2     4  GLN4       -0.2717
     35  NE2      114.3850   57.5500   -7.8170 N.am    4  GLN4       -0.0878
     36  N        112.2730   53.8010   -8.7250 N.am    5  HIS5       -0.1977
     37  CA       111.0010   53.8230   -8.0350 C.3     5  HIS5        0.1597
     38  C        109.9130   53.9760   -9.0970 C.2     5  HIS5        0.2287
     39  O        109.9080   54.9660   -9.8530 O.2     5  HIS5       -0.2864
     40  CB       110.9800   55.0250   -7.0910 C.3     5  HIS5        0.0319
@<TRIPOS>BOND
     1    23    24    1
     2    23    20    1
     3     4     3    2
     4    26    24   am
     5    24    25    2
     6     1     2    1
     7    19    20    1
     8    19    14   am
     9     3     2    1
    10     3    12   am
    11    20    21    1
    12    17    16    1
    13    13    12    1
    14    13    14    1
    15    13    16    1
    16     2     5    1
    17    22    21    2
    18    18    16    1
    19    14    15    2
    20    21    27   am
    21    10     8   ar
    22    10    11   ar
    23     8     6   ar
    24    11     9   ar
    25     6     5    1
    26     6     7   ar
    27     9     7   ar
    28    27    28    1
    29    39    38    2
    30    28    31    1
    31    28    29    1
    32    38    37    1
    33    36    29   am
    34    36    37    1
    35    31    32    1
    36    29    30    2
    37    37    40    1
    38    35    33   am
    39    32    33    1
    40    33    34    2
