@<TRIPOS>MOLECULE
2g56_III_C_1.pdb
 35 35 0 0 0
SMALL
GASTEIGER

@<TRIPOS>ATOM
      1  N        116.5070   -3.0880   -0.7390 N.3     1  PHE1       -0.1227
      2  CA       115.3210   -3.9810   -0.8240 C.3     1  PHE1        0.1736
      3  C        115.5090   -5.0870   -1.8570 C.2     1  PHE1        0.2595
      4  O        116.5100   -5.1190   -2.5820 O.2     1  PHE1       -0.2718
      5  CB       114.0680   -3.1600   -1.1430 C.3     1  PHE1        0.0547
      6  CG       114.1260   -2.4620   -2.4790 C.ar    1  PHE1       -0.0202
      7  CD1      113.5310   -3.0340   -3.6040 C.ar    1  PHE1       -0.0042
      8  CD2      114.7350   -1.2100   -2.6060 C.ar    1  PHE1       -0.0042
      9  CE1      113.5830   -2.3940   -4.8520 C.ar    1  PHE1       -0.0003
     10  CE2      114.7950   -0.5590   -3.8510 C.ar    1  PHE1       -0.0003
     11  CZ       114.1970   -1.1430   -4.9690 C.ar    1  PHE1       -0.0000
     12  N        114.5320   -5.9870   -1.9140 N.am    2  VAL2       -0.1966
     13  CA       114.5770   -7.1290   -2.8180 C.3     2  VAL2        0.1727
     14  C        114.0080   -6.8690   -4.1940 C.2     2  VAL2        0.2616
     15  O        112.9190   -6.3000   -4.3440 O.2     2  VAL2       -0.2715
     16  CB       113.8220   -8.3210   -2.2330 C.3     2  VAL2        0.0290
     17  CG1      114.1880   -9.5930   -3.0010 C.3     2  VAL2        0.0023
     18  CG2      114.1270   -8.4420   -0.7510 C.3     2  VAL2        0.0023
     19  N        114.7400   -7.3280   -5.2000 N.am    3  ASN3       -0.1958
     20  CA       114.3020   -7.1170   -6.5480 C.3     3  ASN3        0.1819
     21  C        113.0260   -7.9100   -6.8140 C.2     3  ASN3        0.2621
     22  O        112.9220   -9.1100   -6.5110 O.2     3  ASN3       -0.2715
     23  CB       115.4050   -7.4600   -7.5110 C.3     3  ASN3        0.1195
     24  CG       115.1330   -6.8770   -8.8260 C.2     3  ASN3        0.2630
     25  OD1      114.5530   -5.7850   -8.9120 O.2     3  ASN3       -0.2716
     26  ND2      115.5170   -7.5810   -9.8790 N.am    3  ASN3       -0.0877
     27  N        112.0570   -7.2420   -7.4230 N.am    4  GLN4       -0.1977
     28  CA       110.7710   -7.8730   -7.5560 C.3     4  GLN4        0.1601
     29  C        110.0190   -7.7040   -8.8610 C.2     4  GLN4        0.2287
     30  O        109.8510   -8.6770   -9.5980 O.2     4  GLN4       -0.2864
     31  CB       109.9350   -7.3830   -6.3740 C.3     4  GLN4        0.0394
     32  CG       109.7660   -8.4670   -5.3100 C.3     4  GLN4        0.0908
     33  CD       108.9470   -8.0750   -4.0900 C.2     4  GLN4        0.2608
     34  OE1      107.9740   -7.3130   -4.1710 O.2     4  GLN4       -0.2717
     35  NE2      109.3240   -8.6360   -2.9400 N.am    4  GLN4       -0.0878
@<TRIPOS>BOND
     1    26    24   am
     2    30    29    2
     3    25    24    2
     4    29    28    1
     5    24    23    1
     6    28    27    1
     7    28    31    1
     8    23    20    1
     9    27    21   am
    10    21    20    1
    11    21    22    2
    12    20    19    1
    13    31    32    1
    14    32    33    1
    15    19    14   am
    16    11     9   ar
    17    11    10   ar
    18     9     7   ar
    19    15    14    2
    20    14    13    1
    21    34    33    2
    22    33    35   am
    23    10     8   ar
    24     7     6   ar
    25    17    16    1
    26    13    16    1
    27    13    12    1
    28     8     6   ar
    29     4     3    2
    30     6     5    1
    31    16    18    1
    32    12     3   am
    33     3     2    1
    34     5     2    1
    35     2     1    1
