@<TRIPOS>MOLECULE
2g58_III_B_1.pdb
 40 40 0 0 0
SMALL
GASTEIGER

@<TRIPOS>ATOM
      1  C1        -9.9110  -23.2010    4.8250 C.2     1  PHQ1        0.4218
      2  O1        -9.7820  -24.0800    5.8860 O.2     1  PHQ1       -0.2245
      3  O2       -11.0830  -23.2070    4.4020 O.3     1  PHQ1       -0.4285
      4  C2       -11.3640  -22.5360    3.1960 C.3     1  PHQ1        0.2368
      5  C3       -12.8040  -22.6670    2.7590 C.ar    1  PHQ1        0.0213
      6  C4       -13.2090  -22.0020    1.6160 C.ar    1  PHQ1       -0.0007
      7  C5       -14.5200  -22.0830    1.1540 C.ar    1  PHQ1       -0.0002
      8  C6       -15.4350  -22.8540    1.8470 C.ar    1  PHQ1       -0.0000
      9  C7       -15.0370  -23.5320    2.9940 C.ar    1  PHQ1       -0.0002
     10  C8       -13.7240  -23.4440    3.4510 C.ar    1  PHQ1       -0.0007
     11  N         -8.8230  -22.3180    5.1730 N.am    2  ILE2       -0.1611
     12  CA        -8.0370  -21.6220    6.2350 C.3     2  ILE2        0.1760
     13  C         -6.5270  -21.9220    6.1280 C.2     2  ILE2        0.2617
     14  O         -6.1270  -23.0600    5.7690 O.2     2  ILE2       -0.2715
     15  CB        -8.4910  -21.9450    7.4900 C.3     2  ILE2        0.0291
     16  CG1       -9.6310  -21.0160    7.9950 C.3     2  ILE2        0.0022
     17  CG2       -7.3170  -22.0130    8.4890 C.3     2  ILE2        0.0023
     18  CD1      -10.9950  -21.7180    8.1120 C.3     2  ILE2        0.0001
     19  N         -5.5720  -20.9990    6.2600 N.am    3  ALA3       -0.1963
     20  CA        -4.1350  -21.1790    6.5370 C.3     3  ALA3        0.1728
     21  C         -3.7360  -20.2900    7.7580 C.2     3  ALA3        0.2616
     22  O         -4.3880  -20.4320    8.8480 O.2     3  ALA3       -0.2715
     23  CB        -3.3030  -20.8580    5.3060 C.3     3  ALA3        0.0334
     24  N         -2.7660  -19.3810    7.7520 N.am    4  ARG4       -0.1963
     25  CA        -2.5080  -18.3230    8.7420 C.3     4  ARG4        0.1729
     26  C         -1.9390  -17.1780    7.9330 C.2     4  ARG4        0.2616
     27  O         -2.6430  -16.2240    7.6180 O.2     4  ARG4       -0.2715
     28  CB        -1.5560  -18.6260    9.9460 C.3     4  ARG4        0.0348
     29  CG        -1.1560  -17.4560   10.8410 C.3     4  ARG4        0.0492
     30  CD        -2.2290  -17.0330   11.8950 C.3     4  ARG4        0.2205
     31  NE        -2.5460  -17.7270   13.2090 N.pl3   4  ARG4       -0.0865
     32  CZ        -2.7760  -19.0650   13.3480 C.cat   4  ARG4        0.5346
     33  NH1       -2.6610  -19.9930   12.4080 N.pl3   4  ARG4        0.1354
     34  NH2       -3.1600  -19.4370   14.5730 N.pl3   4  ARG4        0.1354
     35  N         -0.6610  -17.2610    7.5850 N.am    5  SER5       -0.1950
     36  CA         0.0260  -16.1980    6.8170 C.3     5  SER5        0.1924
     37  C          0.4880  -14.9140    7.5060 C.2     5  SER5        0.2314
     38  O          0.6870  -13.8810    6.8620 O.2     5  SER5       -0.2863
     39  CB        -0.9890  -15.8700    5.7150 C.3     5  SER5        0.2116
     40  OG        -0.3440  -15.5110    4.4980 O.3     5  SER5       -0.2180
@<TRIPOS>BOND
     1     7     6   ar
     2     7     8   ar
     3     6     5   ar
     4     8     9   ar
     5     5     4    1
     6     5    10   ar
     7     9    10   ar
     8     4     3    1
     9     3     1    1
    10    40    39    1
    11     1    11   am
    12     1     2    2
    13    11    12    1
    14    23    20    1
    15    39    36    1
    16    14    13    2
    17    13    12    1
    18    13    19   am
    19    12    15    1
    20    19    20    1
    21    20    21    1
    22    36    37    1
    23    36    35    1
    24    38    37    2
    25    15    16    1
    26    15    17    1
    27    35    26   am
    28    27    26    2
    29    24    21   am
    30    24    25    1
    31    21    22    2
    32    26    25    1
    33    16    18    1
    34    25    28    1
    35    28    29    1
    36    29    30    1
    37    30    31    1
    38    33    32    1
    39    31    32    2
    40    32    34    1
