@<TRIPOS>MOLECULE
2g5c_NAD_A_1.pdb
 44 48 0 0 0
SMALL
GASTEIGER

@<TRIPOS>ATOM
      1  PA        43.2210   47.0030   57.3980 P.3   3686  NAD3686     0.2189
      2  O1A       44.3070   46.7090   56.4500 O.2   3686  NAD3686    -0.5170
      3  O2A       43.2880   46.2930   58.7330 O.3   3686  NAD3686    -0.4371
      4  O5B       43.1970   48.5850   57.5780 O.3   3686  NAD3686    -0.3112
      5  C5B       42.2680   49.1760   58.4400 C.3   3686  NAD3686     0.1813
      6  C4B       42.8450   50.4770   58.9680 C.3   3686  NAD3686     0.1821
      7  O4B       41.8690   50.9730   59.8460 O.3   3686  NAD3686    -0.3135
      8  C3B       44.1180   50.2780   59.8220 C.3   3686  NAD3686     0.2184
      9  O3B       45.2370   50.9780   59.2930 O.3   3686  NAD3686    -0.2174
     10  C2B       43.6760   50.7420   61.2120 C.3   3686  NAD3686     0.2570
     11  O2B       44.6810   51.3060   62.0280 O.3   3686  NAD3686    -0.2130
     12  C1B       42.5690   51.6910   60.8180 C.3   3686  NAD3686     0.3186
     13  N9A       41.5850   52.1120   61.8310 N.pl3 3686  NAD3686    -0.1439
     14  C8A       40.9500   51.3660   62.7960 C.3   3686  NAD3686     0.3377
     15  N7A       40.1310   52.1720   63.4930 N.2   3686  NAD3686    -0.2095
     16  C5A       40.2270   53.4240   62.9920 C.2   3686  NAD3686     0.2526
     17  C6A       39.6280   54.6550   63.3000 C.2   3686  NAD3686     0.4393
     18  N6A       38.7480   54.7570   64.2800 N.pl3 3686  NAD3686     0.2180
     19  N1A       39.9630   55.7910   62.5610 N.2   3686  NAD3686     0.0021
     20  C2A       40.8890   55.7140   61.5200 C.3   3686  NAD3686     0.5254
     21  N3A       41.4870   54.5010   61.2080 N.2   3686  NAD3686    -0.0055
     22  C4A       41.1510   53.3870   61.9390 C.2   3686  NAD3686     0.3518
     23  O3        41.7540   46.6890   56.7460 O.3   3686  NAD3686    -0.2703
     24  PN        41.3980   46.6830   55.1790 P.3   3686  NAD3686     0.2189
     25  O1N       42.2100   47.7180   54.5110 O.2   3686  NAD3686    -0.5170
     26  O2N       41.5660   45.2900   54.6820 O.3   3686  NAD3686    -0.4371
     27  O5D       39.8280   47.0310   55.0370 O.3   3686  NAD3686    -0.3112
     28  C5D       39.3120   48.2890   55.4260 C.3   3686  NAD3686     0.1813
     29  C4D       37.8120   48.4480   55.0900 C.3   3686  NAD3686     0.1799
     30  O4D       37.5600   47.9830   53.7740 O.3   3686  NAD3686    -0.3327
     31  C3D       36.7840   47.7460   55.9880 C.3   3686  NAD3686     0.2158
     32  O3D       35.7790   48.6940   56.3550 O.3   3686  NAD3686    -0.2175
     33  C2D       36.2010   46.6150   55.1550 C.3   3686  NAD3686     0.2309
     34  O2D       34.8280   46.3630   55.4400 O.3   3686  NAD3686    -0.2158
     35  C1D       36.4690   47.0860   53.7270 C.3   3686  NAD3686     0.2263
     36  N1N       36.7800   46.0280   52.7160 N.pl3 3686  NAD3686    -0.2787
     37  C2N       37.8040   45.1260   52.9970 C.3   3686  NAD3686     0.1244
     38  C3N       38.1220   44.1220   52.0730 C.2   3686  NAD3686     0.0544
     39  C7N       39.2290   43.1600   52.3910 C.2   3686  NAD3686     0.2818
     40  O7N       39.5140   42.1920   51.4680 O.2   3686  NAD3686    -0.2670
     41  N7N       39.9350   43.2020   53.5070 N.am  3686  NAD3686    -0.0839
     42  C4N       37.3860   44.0450   50.8580 C.2   3686  NAD3686     0.0033
     43  C5N       36.3490   44.9660   50.5840 C.2   3686  NAD3686     0.0157
     44  C6N       36.0540   45.9610   51.5310 C.2   3686  NAD3686     0.0633
@<TRIPOS>BOND
     1    43    42    1
     2    43    44    2
     3    42    38    2
     4    40    39    2
     5    44    36    1
     6    38    39    1
     7    38    37    1
     8    39    41   am
     9    36    37    1
    10    36    35    1
    11    35    30    1
    12    35    33    1
    13    30    29    1
    14    25    24    2
    15    26    24    1
    16    27    24    1
    17    27    28    1
    18    29    28    1
    19    29    31    1
    20    33    34    1
    21    33    31    1
    22    24    23    1
    23    31    32    1
    24     2     1    2
    25    23     1    1
    26     1     4    1
    27     1     3    1
    28     4     5    1
    29     5     6    1
    30     6     8    1
    31     6     7    1
    32     9     8    1
    33     8    10    1
    34     7    12    1
    35    12    10    1
    36    12    13    1
    37    21    20    1
    38    21    22    2
    39    10    11    1
    40    20    19    1
    41    13    22    1
    42    13    14    1
    43    22    16    1
    44    19    17    2
    45    14    15    1
    46    16    17    1
    47    16    15    2
    48    17    18    1
