@<TRIPOS>MOLECULE
2g5g_HEM_X_1.pdb
 43 50 0 0 0
SMALL
GASTEIGER

@<TRIPOS>ATOM
      1  CHA        7.3150   32.8990   75.4850 C.2   605  HEM605      0.0000
      2  CHB        5.4910   29.8070   72.1480 C.2   605  HEM605      0.0000
      3  CHC        4.2940   33.4750   69.2170 C.2   605  HEM605      0.0000
      4  CHD        6.0030   36.5900   72.5580 C.2   605  HEM605      0.0000
      5  C1A        6.9440   31.7360   74.8210 C.ar  605  HEM605      0.0000
      6  C2A        7.1770   30.3720   75.2830 C.ar  605  HEM605      0.0000
      7  C3A        6.6720   29.5330   74.3600 C.ar  605  HEM605      0.0000
      8  C4A        6.0950   30.3190   73.2880 C.ar  605  HEM605      0.0000
      9  CMA        6.6800   27.9890   74.4060 C.3   605  HEM605      0.0000
     10  CAA        7.8960   29.9860   76.6050 C.3   605  HEM605      0.0000
     11  CBA        6.9510   30.1420   77.7980 C.3   605  HEM605      0.0000
     12  CGA        7.6610   30.4140   79.1250 C.2   605  HEM605      0.0000
     13  O1A        8.8590   30.0320   79.2910 O.co2 605  HEM605      0.0000
     14  O2A        7.0160   31.0190   80.0320 O.co2 605  HEM605      0.0000
     15  C1B        5.1050   30.4980   71.0140 C.2   605  HEM605      0.0000
     16  C2B        4.7590   29.9350   69.7150 C.2   605  HEM605      0.0000
     17  C3B        4.4270   30.9420   68.8950 C.2   605  HEM605      0.0000
     18  C4B        4.5430   32.1890   69.6500 C.2   605  HEM605      0.0000
     19  CMB        4.7840   28.4360   69.3500 C.3   605  HEM605      0.0000
     20  CAB        3.9960   30.7820   67.4100 C.2   605  HEM605      0.0000
     21  CBB        3.5420   31.8240   66.7000 C.2   605  HEM605      0.0000
     22  C1C        4.6320   34.6380   69.8800 C.ar  605  HEM605      0.0000
     23  C2C        4.4020   35.9890   69.4000 C.ar  605  HEM605      0.0000
     24  C3C        4.8680   36.8400   70.3250 C.ar  605  HEM605      0.0000
     25  C4C        5.4170   36.0630   71.4240 C.ar  605  HEM605      0.0000
     26  CMC        3.7250   36.3600   68.0600 C.3   605  HEM605      0.0000
     27  CAC        4.8450   38.3870   70.2560 C.2   605  HEM605      0.0000
     28  CBC        3.7020   39.0540   70.0540 C.2   605  HEM605      0.0000
     29  C1D        6.5190   35.9370   73.6610 C.2   605  HEM605      0.0000
     30  C2D        7.0800   36.5780   74.8320 C.2   605  HEM605      0.0000
     31  C3D        7.4930   35.4280   75.7620 C.2   605  HEM605      0.0000
     32  C4D        7.1340   34.2070   75.0540 C.2   605  HEM605      0.0000
     33  CMD        7.2270   38.0960   75.0820 C.3   605  HEM605      0.0000
     34  CAD        8.1480   35.5570   77.1590 C.3   605  HEM605      0.0000
     35  CBD        7.2960   34.7940   78.1720 C.3   605  HEM605      0.0000
     36  CGD        6.8460   35.7000   79.2930 C.2   605  HEM605      0.0000
     37  O1D        5.6450   36.0800   79.3100 O.co2 605  HEM605      0.0000
     38  O2D        7.6790   36.0400   80.1780 O.co2 605  HEM605      0.0000
     39  NA         6.2870   31.6630   73.5940 N.ar  605  HEM605      0.0000
     40  NB         4.9520   31.8700   70.9270 N.2   605  HEM605      0.0000
     41  NC         5.2480   34.7260   71.1250 N.ar  605  HEM605      0.0000
     42  ND         6.5760   34.5630   73.8390 N.2   605  HEM605      0.0000
     43 FE          5.9170   33.2110   72.2480 Fe    605  HEM605      0.0000
@<TRIPOS>BOND
     1    21    20    2
     2    20    17    1
     3    26    23    1
     4    17    18    1
     5    17    16    2
     6     3    18    2
     7     3    22    1
     8    19    16    1
     9    23    22   ar
    10    23    24   ar
    11    18    40    1
    12    16    15    1
    13    22    41   ar
    14    28    27    2
    15    27    24    1
    16    24    25   ar
    17    40    15    2
    18    40    43    1
    19    15     2    1
    20    41    25   ar
    21    41    43    1
    22    25     4    1
    23     2     8    2
    24    43    39    1
    25    43    42    1
    26     4    29    2
    27     8    39   ar
    28     8     7   ar
    29    39     5   ar
    30    29    42    1
    31    29    30    1
    32    42    32    2
    33     7     9    1
    34     7     6   ar
    35     5     6   ar
    36     5     1    2
    37    30    33    1
    38    30    31    2
    39    32     1    1
    40    32    31    1
    41     6    10    1
    42    31    34    1
    43    10    11    1
    44    34    35    1
    45    11    12    1
    46    35    36    1
    47    12    13   ar
    48    12    14   ar
    49    36    37   ar
    50    36    38   ar
