@<TRIPOS>MOLECULE
2g5i_ADP_B_1.pdb
 27 29 0 0 0
SMALL
GASTEIGER

@<TRIPOS>ATOM
      1  PB         6.7810    2.5890  -19.5310 P.3   601  ADP601      0.5373
      2  O1B        7.4030    2.3540  -20.8460 O.2   601  ADP601     -0.2221
      3  O2B        5.4760    1.6680  -19.4080 O.3   601  ADP601     -0.1143
      4  O3B        7.8230    2.1890  -18.3750 O.3   601  ADP601     -0.1143
      5  PA         5.2730    4.8080  -20.3540 P.3   601  ADP601      0.2231
      6  O1A        4.1080    3.9420  -20.6110 O.2   601  ADP601     -0.5169
      7  O2A        4.7980    6.1560  -19.6090 O.3   601  ADP601     -0.4370
      8  O3A        6.3740    4.1600  -19.3140 O.3   601  ADP601     -0.2261
      9  O5'        5.9570    5.2830  -21.7500 O.3   601  ADP601     -0.3111
     10  C5'        6.3160    4.1430  -22.5450 C.3   601  ADP601      0.1813
     11  C4'        7.0200    4.5450  -23.8570 C.3   601  ADP601      0.1821
     12  O4'        6.1150    4.3680  -24.9940 O.3   601  ADP601     -0.3135
     13  C3'        7.4560    6.0240  -23.8780 C.3   601  ADP601      0.2184
     14  O3'        8.7250    6.1470  -24.5310 O.3   601  ADP601     -0.2174
     15  C2'        6.3400    6.7530  -24.6160 C.3   601  ADP601      0.2570
     16  O2'        6.8620    7.8770  -25.3300 O.3   601  ADP601     -0.2130
     17  C1'        5.8140    5.6740  -25.5800 C.3   601  ADP601      0.3186
     18  N9         4.3610    5.8070  -25.8020 N.pl3 601  ADP601     -0.1439
     19  C8         3.3780    6.1020  -24.8820 C.3   601  ADP601      0.3377
     20  N7         2.2050    6.1270  -25.4640 N.2   601  ADP601     -0.2095
     21  C5         2.3640    5.8400  -26.7830 C.2   601  ADP601      0.2526
     22  C6         1.4960    5.7250  -27.9130 C.2   601  ADP601      0.4393
     23  N6         0.1290    5.9060  -27.7810 N.pl3 601  ADP601      0.2180
     24  N1         2.0360    5.4110  -29.1160 N.2   601  ADP601      0.0021
     25  C2         3.3540    5.2310  -29.2690 C.3   601  ADP601      0.5254
     26  N3         4.1950    5.3350  -28.2470 N.2   601  ADP601     -0.0055
     27  C4         3.7510    5.6360  -27.0070 C.2   601  ADP601      0.3518
@<TRIPOS>BOND
     1    25    24    1
     2    25    26    1
     3    24    22    2
     4    26    27    2
     5    22    23    1
     6    22    21    1
     7    27    21    1
     8    27    18    1
     9    21    20    2
    10    18    17    1
    11    18    19    1
    12    17    12    1
    13    17    15    1
    14    20    19    1
    15    16    15    1
    16    12    11    1
    17    15    13    1
    18    14    13    1
    19    13    11    1
    20    11    10    1
    21    10     9    1
    22     9     5    1
    23     2     1    2
    24     6     5    2
    25     5     7    1
    26     5     8    1
    27     1     3    1
    28     1     8    1
    29     1     4    1
