@<TRIPOS>MOLECULE
2g5n_23M_A_1.pdb
 19 21 0 0 0
SMALL
GASTEIGER

@<TRIPOS>ATOM
      1  C1        -3.7170   49.0780    1.4520 C.ar  301  23M301      0.0324
      2  C2        -3.7120   48.8250    2.8480 C.ar  301  23M301      0.1315
      3  N3        -2.4500   48.8900    3.2940 N.2   301  23M301     -0.4019
      4  C4        -1.6380   49.1690    2.2520 C.2   301  23M301      0.1314
      5  C5        -2.3990   49.2940    1.0870 C.2   301  23M301      0.0346
      6  C6        -0.1390   49.3090    2.3710 C.ar  301  23M301      0.0293
      7  C7         0.5980   50.1950    1.5240 C.ar  301  23M301      0.0025
      8  C8         2.0130   50.3040    1.6570 C.ar  301  23M301     -0.0002
      9  C9         2.6990   49.5310    2.6320 C.ar  301  23M301     -0.0043
     10  C10        1.9840   48.6430    3.4850 C.ar  301  23M301     -0.0218
     11  C11        0.5650   48.5360    3.3480 C.ar  301  23M301     -0.0017
     12  C12        2.7190   47.8320    4.5110 C.3   301  23M301      0.0310
     13  C13       -4.9420   48.5580    3.5280 C.ar  301  23M301      0.0323
     14  C14       -6.1450   48.5470    2.7700 C.ar  301  23M301      0.0106
     15  C15       -6.1190   48.8030    1.3610 C.ar  301  23M301      0.0976
     16  C16       -4.9020   49.0770    0.6620 C.ar  301  23M301      0.0106
     17  C17       -7.3750   48.7690    0.6130 C.2   301  23M301      0.4766
     18  N18       -8.2780   47.6950    0.8010 N.pl3 301  23M301      0.2047
     19  N19       -7.7000   49.7850   -0.3160 N.pl3 301  23M301      0.2047
@<TRIPOS>BOND
     1    19    17    2
     2    17    18    1
     3    17    15    1
     4    16    15   ar
     5    16     1   ar
     6     5     1    2
     7     5     4    1
     8    15    14   ar
     9     1     2   ar
    10     7     8   ar
    11     7     6   ar
    12     8     9   ar
    13     4     6    1
    14     4     3    2
    15     6    11   ar
    16     9    10   ar
    17    14    13   ar
    18     2     3    2
    19     2    13   ar
    20    11    10   ar
    21    10    12    1
