@<TRIPOS>MOLECULE
2g5o_DRQ_A_1.pdb
 24 27 0 0 0
SMALL
GASTEIGER

@<TRIPOS>ATOM
      1  CAX      -21.7620    5.8850  -11.8600 C.3   201  DRQ201      0.0050
      2  CAW      -20.6940    5.4680  -10.8420 C.3   201  DRQ201      0.0260
      3  CAV      -20.2180    4.1780  -11.0600 C.2   201  DRQ201     -0.0260
      4  CAU      -20.2310    3.2480  -10.0320 C.2   201  DRQ201     -0.0014
      5  CAC      -20.7230    3.5630   -8.7670 C.ar  201  DRQ201      0.0383
      6  CAD      -22.1000    3.6820   -8.5210 C.ar  201  DRQ201     -0.0014
      7  CAT      -22.5470    3.9790   -7.2420 C.ar  201  DRQ201     -0.0263
      8  CAS      -24.0600    4.1480   -6.9420 C.3   201  DRQ201      0.0220
      9  CAR      -24.9690    3.1390   -7.6880 C.3   201  DRQ201      0.0044
     10  CAQ      -26.4730    3.3410   -7.3460 C.3   201  DRQ201      0.0028
     11  CAO      -26.6900    3.3980   -5.8110 C.3   201  DRQ201      0.0282
     12  CAP      -26.5000    2.0120   -5.1640 C.3   201  DRQ201      0.0025
     13  CAM      -28.0010    4.0600   -5.3610 C.3   201  DRQ201      0.1519
     14  OAN      -29.1620    3.2400   -5.5660 O.3   201  DRQ201     -0.2232
     15  CAL      -27.7250    4.2330   -3.8550 C.3   201  DRQ201      0.0329
     16  CAK      -26.2090    4.4910   -3.7480 C.3   201  DRQ201      0.0027
     17  CAJ      -25.7580    4.4410   -5.2110 C.3   201  DRQ201      0.0028
     18  CAI      -24.3150    4.0620   -5.4390 C.3   201  DRQ201      0.0044
     19  CAH      -23.3950    4.9740   -4.6370 C.3   201  DRQ201      0.0050
     20  CAG      -21.9640    4.4820   -4.7640 C.3   201  DRQ201      0.0261
     21  CAF      -21.6140    4.1570   -6.2150 C.ar  201  DRQ201     -0.0230
     22  CAE      -20.2590    4.0230   -6.4700 C.ar  201  DRQ201      0.0375
     23  CAA      -19.8060    3.7220   -7.7400 C.ar  201  DRQ201      0.1953
     24  OAB      -18.4690    3.5930   -7.9920 O.3   201  DRQ201     -0.2866
@<TRIPOS>BOND
     1     1     2    1
     2     3     2    1
     3     3     4    2
     4     4     5    1
     5     5     6   ar
     6     5    23   ar
     7     6     7   ar
     8    24    23    1
     9    23    22   ar
    10     9    10    1
    11     9     8    1
    12    10    11    1
    13     7     8    1
    14     7    21   ar
    15     8    18    1
    16    22    21   ar
    17    21    20    1
    18    11    13    1
    19    11    17    1
    20    11    12    1
    21    14    13    1
    22    18    17    1
    23    18    19    1
    24    13    15    1
    25    17    16    1
    26    20    19    1
    27    15    16    1
