@<TRIPOS>MOLECULE
2g5p_ADF_A_1.pdb
 29 31 0 0 0
SMALL
GASTEIGER

@<TRIPOS>ATOM
      1  C1         3.3930    1.1320    0.9710 C.2   800  ADF800      0.2414
      2  C2         3.5000    2.1360    2.1350 C.3   800  ADF800      0.1490
      3  C4         4.6740    1.8470    3.0800 C.3   800  ADF800      0.0283
      4  C5         4.1720    2.2280    4.4420 C.3   800  ADF800      0.0231
      5  C6         2.6770    2.0070    4.3470 C.3   800  ADF800      0.1169
      6  C9         2.2180    0.6350    4.8740 C.3   800  ADF800      0.2225
      7  O3         2.6900    0.1340    1.0930 O.2   800  ADF800     -0.2734
      8  N7         2.2910    2.1870    2.9570 N.3   800  ADF800     -0.2079
      9  N8         4.1280    1.4320   -0.1760 N.am  800  ADF800     -0.2786
     10  C10        2.1360   -0.3160    7.1770 C.ar  800  ADF800      0.1346
     11  O11        2.4650    0.7040    6.2650 O.3   800  ADF800     -0.4743
     12  C12        4.1510    0.5740   -1.3670 C.3   800  ADF800      0.0944
     13  C13        5.0640    1.3310   -2.3510 C.3   800  ADF800      0.0231
     14  C14        5.8970    2.2800   -1.5030 C.3   800  ADF800      0.0233
     15  C15        4.9740    2.6280   -0.3540 C.3   800  ADF800      0.0935
     16  C16        2.4390   -0.0690    8.5820 C.ar  800  ADF800      0.0114
     17  C17        2.0800   -1.0920    9.5150 C.ar  800  ADF800      0.0053
     18  C18        1.4400   -2.2970    9.1290 C.ar  800  ADF800      0.0797
     19  C19        1.1670   -2.5110    7.7520 C.ar  800  ADF800      0.0097
     20  C20        1.4960   -1.5380    6.7980 C.ar  800  ADF800      0.0368
     21  C21        4.7900   -0.8240   -1.2310 C.3   800  ADF800      0.1290
     22  N22        5.3260   -1.2730   -0.0790 N.3   800  ADF800     -0.1296
     23  C23        1.0780   -3.3250   10.1410 C.2   800  ADF800      0.3877
     24  C24        3.1420    1.2530    9.0790 C.3   800  ADF800      0.0218
     25  C25        2.3590    2.4980    8.5960 C.3   800  ADF800      0.0045
     26  C26        4.6050    1.3260    8.5580 C.3   800  ADF800      0.0045
     27  C27        3.2550    1.3780   10.6270 C.3   800  ADF800      0.0045
     28  O28        1.3280   -3.1140   11.3320 O.co2 800  ADF800     -0.2406
     29  O29        0.5210   -4.3770    9.7720 O.co2 800  ADF800     -0.2406
@<TRIPOS>BOND
     1    13    14    1
     2    13    12    1
     3    14    15    1
     4    12    21    1
     5    12     9    1
     6    21    22    1
     7    15     9    1
     8     9     1   am
     9     1     7    2
    10     1     2    1
    11     2     8    1
    12     2     3    1
    13     8     5    1
    14     3     4    1
    15     5     4    1
    16     5     6    1
    17     6    11    1
    18    11    10    1
    19    20    10   ar
    20    20    19   ar
    21    10    16   ar
    22    19    18   ar
    23    26    24    1
    24    16    24    1
    25    16    17   ar
    26    25    24    1
    27    24    27    1
    28    18    17   ar
    29    18    23    1
    30    29    23   ar
    31    23    28   ar
