@<TRIPOS>MOLECULE
2g5t_ACF_A_1.pdb
 26 28 0 0 0
SMALL
GASTEIGER

@<TRIPOS>ATOM
      1  C1        15.0380   -3.1780   34.3720 C.2   800  ACF800      0.2414
      2  C2        16.2640   -2.8610   35.2980 C.3   800  ACF800      0.1490
      3  C4        16.3980   -3.7420   36.5540 C.3   800  ACF800      0.0283
      4  C5        17.2210   -2.8850   37.4980 C.3   800  ACF800      0.0231
      5  C6        16.8410   -1.4420   37.1390 C.3   800  ACF800      0.1169
      6  C9        15.8640   -0.7930   38.1190 C.3   800  ACF800      0.2226
      7  O3        14.2040   -2.3080   34.1930 O.2   800  ACF800     -0.2734
      8  N7        16.2430   -1.4860   35.8070 N.3   800  ACF800     -0.2079
      9  N8        14.9510   -4.4520   33.7660 N.am  800  ACF800     -0.2786
     10  C10       13.6200   -1.1670   38.9610 C.ar  800  ACF800      0.1493
     11  O11       14.6790   -1.5580   38.1280 O.3   800  ACF800     -0.4731
     12  C12       12.4460   -1.9690   38.9300 C.ar  800  ACF800      0.0915
     13  C13       11.3200   -1.6600   39.7300 C.ar  800  ACF800      0.0147
     14  C14       11.3560   -0.5310   40.5800 C.ar  800  ACF800      0.0076
     15  C15       12.5130    0.2940   40.6390 C.ar  800  ACF800      0.0828
     16  C16       13.6320   -0.0330   39.8280 C.ar  800  ACF800      0.0443
     17  C17       13.8400   -4.8460   32.8500 C.3   800  ACF800      0.0944
     18  C18       14.2430   -6.2830   32.4370 C.3   800  ACF800      0.0231
     19  C19       15.7380   -6.3140   32.6090 C.3   800  ACF800      0.0233
     20  C20       15.9070   -5.5440   33.9020 C.3   800  ACF800      0.0935
     21  C21       12.4380   -5.0090   33.4500 C.3   800  ACF800      0.1290
     22  N22       12.2840   -5.2630   34.7490 N.3   800  ACF800     -0.1296
     23  C24       12.5620    1.4820   41.5290 C.2   800  ACF800      0.3879
     24 CL23       12.3680   -3.3680   37.8940 Cl    800  ACF800     -0.0791
     25  O25       13.5830    2.1660   41.5540 O.co2 800  ACF800     -0.2406
     26  O26       11.5870    1.7530   42.2190 O.co2 800  ACF800     -0.2406
@<TRIPOS>BOND
     1    18    19    1
     2    18    17    1
     3    19    20    1
     4    17    21    1
     5    17     9    1
     6    21    22    1
     7     9    20    1
     8     9     1   am
     9     7     1    2
    10     1     2    1
    11     2     8    1
    12     2     3    1
    13     8     5    1
    14     3     4    1
    15     5     4    1
    16     5     6    1
    17    24    12    1
    18     6    11    1
    19    11    10    1
    20    12    10   ar
    21    12    13   ar
    22    10    16   ar
    23    13    14   ar
    24    16    15   ar
    25    14    15   ar
    26    15    23    1
    27    23    25   ar
    28    23    26   ar
