@<TRIPOS>MOLECULE
2g5u_PCQ_A_1.pdb
 18 19 0 0 0
SMALL
GASTEIGER

@<TRIPOS>ATOM
      1 CL1        23.2650   44.6530    2.8850 Cl    240  PCQ240     -0.0789
      2 CL2        19.6570   41.0950    2.9490 Cl    240  PCQ240     -0.0789
      3  O1        21.4260   42.8610    1.5420 O.3   240  PCQ240     -0.2848
      4  C1        21.5090   42.8800    5.7480 C.ar  240  PCQ240      0.0019
      5  C2        22.3460   43.7230    5.0080 C.ar  240  PCQ240      0.0147
      6  C3        22.3250   43.7210    3.6090 C.ar  240  PCQ240      0.0973
      7  C4        21.4580   42.8720    2.9140 C.ar  240  PCQ240      0.2165
      8  C5        20.6160   42.0310    3.6410 C.ar  240  PCQ240      0.0973
      9  C6        20.6480   42.0370    5.0390 C.ar  240  PCQ240      0.0147
     10 CL3        21.6270   40.3680   10.0400 Cl    240  PCQ240     -0.0789
     11 CL4        21.5400   45.3940   10.0440 Cl    240  PCQ240     -0.0789
     12  O1'       21.6060   42.8730   11.3390 O.3   240  PCQ240     -0.2848
     13  C1'       21.5340   42.8820    7.1530 C.ar  240  PCQ240      0.0019
     14  C2'       21.5640   41.6790    7.8730 C.ar  240  PCQ240      0.0147
     15  C3'       21.5930   41.6740    9.2730 C.ar  240  PCQ240      0.0973
     16  C4'       21.5830   42.8800    9.9710 C.ar  240  PCQ240      0.2165
     17  C5'       21.5470   44.0880    9.2780 C.ar  240  PCQ240      0.0973
     18  C6'       21.5270   44.0850    7.8770 C.ar  240  PCQ240      0.0147
@<TRIPOS>BOND
     1     3     7    1
     2     1     6    1
     3     7     6   ar
     4     7     8   ar
     5     2     8    1
     6     6     5   ar
     7     8     9   ar
     8     5     4   ar
     9     9     4   ar
    10     4    13    1
    11    13    14   ar
    12    13    18   ar
    13    14    15   ar
    14    18    17   ar
    15    15    16   ar
    16    15    10    1
    17    17    16   ar
    18    17    11    1
    19    16    12    1
