@<TRIPOS>MOLECULE
2g5v_22M_A_1.pdb
 19 21 0 0 0
SMALL
GASTEIGER

@<TRIPOS>ATOM
      1  C1        -6.0490   48.4820    2.6540 C.ar  301  22M301      0.0082
      2  C2        -5.9890   49.0010    1.2830 C.ar  301  22M301      0.1000
      3  C3        -7.1830   48.9330    0.4030 C.2   301  22M301      0.4767
      4  N4        -8.1220   47.8640    0.5460 N.pl3 301  22M301      0.2047
      5  N5        -7.4170   49.9080   -0.6000 N.pl3 301  22M301      0.2047
      6  C6        -4.7690   49.5830    0.7530 C.ar  301  22M301      0.0400
      7  C7        -3.5900   49.6400    1.6300 C.ar  301  22M301      0.1317
      8  C8        -3.6730   49.1250    2.9620 C.ar  301  22M301      0.0321
      9  C9        -4.8800   48.5420    3.5100 C.ar  301  22M301      0.0029
     10  C10       -2.4220   49.3130    3.5410 C.2   301  22M301      0.0346
     11  C11       -1.6170   49.9270    2.5720 C.2   301  22M301      0.1311
     12  C12       -0.1610   50.3470    2.7180 C.ar  301  22M301      0.0256
     13  C13        0.1610   51.2360    3.8310 C.ar  301  22M301      0.0022
     14  C14        1.5230   51.6880    4.0370 C.ar  301  22M301      0.0001
     15  C15        2.5740   51.2670    3.1470 C.ar  301  22M301     -0.0003
     16  C16        2.2670   50.3900    2.0470 C.ar  301  22M301     -0.0042
     17  C17        0.9090   49.9170    1.8110 C.ar  301  22M301     -0.0194
     18  C18        0.6900   49.0060    0.6350 C.3   301  22M301      0.0311
     19  N19       -2.3410   50.1110    1.4330 N.2   301  22M301     -0.4019
@<TRIPOS>BOND
     1     5     3    2
     2     3     4    1
     3     3     2    1
     4    18    17    1
     5     6     2   ar
     6     6     7   ar
     7     2     1   ar
     8    19     7    2
     9    19    11    2
    10     7     8   ar
    11    17    16   ar
    12    17    12   ar
    13    16    15   ar
    14    11    12    1
    15    11    10    1
    16     1     9   ar
    17    12    13   ar
    18     8     9   ar
    19     8    10    2
    20    15    14   ar
    21    13    14   ar
