@<TRIPOS>MOLECULE
2g5w_FMN_A_1.pdb
 31 33 0 0 0
SMALL
GASTEIGER

@<TRIPOS>ATOM
      1  N1        20.8570   12.7810   32.0360 N.2   401  FMN401     -0.2890
      2  C2        21.2140   12.9570   30.7120 C.1   401  FMN401      0.3669
      3  O2        21.1830   12.0080   29.9250 O.2   401  FMN401     -0.1744
      4  N3        21.6130   14.2050   30.2750 N.2   401  FMN401     -0.2300
      5  C4        21.6600   15.2700   31.1510 C.1   401  FMN401      0.2513
      6  O4        22.0170   16.3710   30.7330 O.2   401  FMN401     -0.2057
      7  C4A       21.2980   15.0940   32.4850 C.2   401  FMN401      0.2700
      8  N5        21.3270   16.1530   33.3740 N.2   401  FMN401     -0.3878
      9  C5A       21.0570   15.9590   34.7150 C.2   401  FMN401      0.1320
     10  C6        21.1970   17.0210   35.6090 C.2   401  FMN401      0.0250
     11  C7        20.9280   16.8320   36.9690 C.2   401  FMN401     -0.0238
     12  C7M       21.0870   17.9970   37.9050 C.3   401  FMN401      0.0308
     13  C8        20.5200   15.5640   37.4280 C.2   401  FMN401     -0.0280
     14  C8M       20.2170   15.2930   38.8750 C.3   401  FMN401      0.0304
     15  C9        20.3870   14.5130   36.5230 C.2   401  FMN401     -0.0041
     16  C9A       20.6550   14.7000   35.1660 C.3   401  FMN401      0.1497
     17  N10       20.5280   13.6500   34.2540 N.pl3 401  FMN401     -0.2691
     18  C10       20.8900   13.8380   32.9260 C.2   401  FMN401      0.2416
     19  C1'       20.1150   12.2770   34.7070 C.3   401  FMN401      0.1294
     20  C2'       21.3770   11.5480   35.1820 C.3   401  FMN401      0.2044
     21  O2'       22.1860   11.2150   34.0810 O.3   401  FMN401     -0.2185
     22  C3'       21.0890   10.2800   35.9770 C.3   401  FMN401      0.2164
     23  O3'       20.5280    9.3140   35.1090 O.3   401  FMN401     -0.2175
     24  C4'       20.1770   10.5820   37.1670 C.3   401  FMN401      0.2147
     25  O4'       20.8530   11.4570   38.0380 O.3   401  FMN401     -0.2176
     26  C5'       19.7520    9.3340   37.9330 C.3   401  FMN401      0.1892
     27  O5'       20.8880    8.7030   38.4720 O.3   401  FMN401     -0.2674
     28  P         21.3170    8.9370   40.0050 P.3   401  FMN401      0.5327
     29  O1P       20.3040    8.3190   40.8900 O.3   401  FMN401     -0.1145
     30  O2P       21.3760   10.4400   40.3150 O.3   401  FMN401     -0.1145
     31  O3P       22.6940    8.2870   40.2470 O.2   401  FMN401     -0.2224
@<TRIPOS>BOND
     1     3     2    2
     2     4     2    2
     3     4     5    2
     4     2     1    2
     5     6     5    2
     6     5     7    1
     7     1    18    2
     8     7    18    1
     9     7     8    2
    10    18    17    1
    11     8     9    2
    12    21    20    1
    13    17    19    1
    14    17    16    1
    15    19    20    1
    16     9    16    1
    17     9    10    1
    18    23    22    1
    19    16    15    1
    20    20    22    1
    21    10    11    2
    22    22    24    1
    23    15    13    2
    24    11    13    1
    25    11    12    1
    26    24    26    1
    27    24    25    1
    28    13    14    1
    29    26    27    1
    30    27    28    1
    31    28    31    2
    32    28    30    1
    33    28    29    1
