@<TRIPOS>MOLECULE
2g5w_8PG_A_1.pdb
 24 24 0 0 0
SMALL
GASTEIGER

@<TRIPOS>ATOM
      1  CAA       15.7440   19.3500   42.5560 C.3   402  8PG402      0.0000
      2  CAJ       15.3000   18.4420   41.4110 C.3   402  8PG402      0.0000
      3  CAK       15.2530   19.2220   40.0920 C.3   402  8PG402      0.0001
      4  CAO       14.8460   18.3180   38.9250 C.3   402  8PG402      0.0030
      5  CAR       16.0670   17.6970   38.2370 C.3   402  8PG402      0.0375
      6  CAV       15.7030   16.3570   37.5910 C.3   402  8PG402      0.1737
      7  OAE       16.6750   15.3660   37.9480 O.3   402  8PG402     -0.2183
      8  CAH       15.6350   16.5100   36.0660 C.2   402  8PG402      0.0018
      9  CAI       16.7650   16.4210   35.2520 C.2   402  8PG402     -0.0237
     10  CAW       16.5940   16.5850   33.7280 C.3   402  8PG402      0.0510
     11  CAG       17.7240   17.4260   33.1210 C.2   402  8PG402     -0.0187
     12  CAF       18.3650   16.7520   32.1640 C.2   402  8PG402      0.0332
     13  CAU       17.8650   15.5270   32.0090 C.2   402  8PG402      0.1730
     14  OAC       18.2940   14.7210   31.1820 O.2   402  8PG402     -0.2913
     15  CAX       16.6940   15.2540   32.9600 C.3   402  8PG402      0.0699
     16  CAS       16.9780   14.0320   33.8580 C.3   402  8PG402      0.0083
     17  CAP       15.7770   13.0780   33.8930 C.3   402  8PG402      0.0005
     18  CAM       15.4980   12.5150   35.2940 C.3   402  8PG402      0.0000
     19  CAL       14.2480   11.6200   35.2680 C.3   402  8PG402      0.0006
     20  CAN       13.8140   11.1600   36.6690 C.3   402  8PG402      0.0118
     21  CAQ       14.0190    9.6450   36.8490 C.3   402  8PG402      0.1141
     22  CAT       12.9830    9.0000   37.7880 C.2   402  8PG402      0.3649
     23  OAD       13.3810    8.6430   38.9220 O.co2 402  8PG402     -0.2457
     24  OAB       11.8190    8.8640   37.3460 O.co2 402  8PG402     -0.2457
@<TRIPOS>BOND
     1    14    13    2
     2    13    12    1
     3    13    15    1
     4    12    11    2
     5    15    10    1
     6    15    16    1
     7    11    10    1
     8    10     9    1
     9    16    17    1
    10    17    18    1
    11     9     8    2
    12    19    18    1
    13    19    20    1
    14     8     6    1
    15    20    21    1
    16    21    22    1
    17    24    22   ar
    18     6     7    1
    19     6     5    1
    20    22    23   ar
    21     5     4    1
    22     4     3    1
    23     3     2    1
    24     2     1    1
