@<TRIPOS>MOLECULE
2g63_AAF_B_1.pdb
 29 31 0 0 0
SMALL
GASTEIGER

@<TRIPOS>ATOM
      1  C1        30.1760    5.9180   63.3430 C.2   800  AAF800      0.2452
      2  C2        31.5050    5.7600   64.1470 C.3   800  AAF800      0.1492
      3  C4        32.6700    6.5510   63.5310 C.3   800  AAF800      0.0282
      4  C5        33.8850    5.7000   63.8640 C.3   800  AAF800      0.0211
      5  C6        33.3640    4.2500   63.9400 C.3   800  AAF800      0.0950
      6  C9        33.6410    3.3870   62.6540 C.3   800  AAF800      0.1341
      7  O3        29.8920    5.0340   62.5400 O.2   800  AAF800     -0.2730
      8  N7        31.9180    4.3450   64.1490 N.3   800  AAF800     -0.2099
      9  N8        29.3600    7.0430   63.5770 N.am  800  AAF800     -0.2565
     10  C10       28.0840    7.2640   62.8710 C.3   800  AAF800      0.1032
     11  C11       27.5160    8.5660   63.4780 C.3   800  AAF800      0.0491
     12  C12       28.5450    9.1370   64.4320 C.2   800  AAF800     -0.0082
     13  C13       29.6600    8.1060   64.5340 C.2   800  AAF800      0.0630
     14  C14       28.1250    7.5600   61.3410 C.3   800  AAF800      0.1297
     15  N15       33.0220    3.9360   61.4170 N.am  800  AAF800     -0.1854
     16  C16       33.6550    4.8220   60.5940 C.2   800  AAF800      0.3435
     17  O17       34.7820    5.2270   60.8520 O.2   800  AAF800     -0.2488
     18  N18       29.2690    7.6620   60.6450 N.3   800  AAF800     -0.1295
     19  N19       32.8890    5.2610   59.5320 N.am  800  AAF800     -0.1610
     20  C20       33.2070    6.2530   58.6110 C.ar  800  AAF800      0.0750
     21  C21       32.1390    6.7570   57.8220 C.ar  800  AAF800      0.0169
     22  C22       32.3630    7.7880   56.8710 C.ar  800  AAF800      0.0078
     23  C23       33.6720    8.3310   56.6890 C.ar  800  AAF800      0.0757
     24  C24       34.7460    7.8240   57.4790 C.ar  800  AAF800      0.0078
     25  C25       34.5200    6.8010   58.4180 C.ar  800  AAF800      0.0169
     26  C26       33.8880    9.4190   55.7030 C.2   800  AAF800      0.3413
     27  O27       32.9950    9.8590   55.0320 O.2   800  AAF800     -0.2449
     28  O28       35.1600    9.8410   55.6460 O.3   800  AAF800     -0.4413
     29  C29       35.5360   10.8880   54.7460 C.3   800  AAF800      0.2560
@<TRIPOS>BOND
     1    29    28    1
     2    27    26    2
     3    28    26    1
     4    26    23    1
     5    23    22   ar
     6    23    24   ar
     7    22    21   ar
     8    24    25   ar
     9    21    20   ar
    10    25    20   ar
    11    20    19    1
    12    19    16   am
    13    16    17    2
    14    16    15   am
    15    18    14    1
    16    14    10    1
    17    15     6    1
    18     7     1    2
    19     6     5    1
    20    10    11    1
    21    10     9    1
    22     1     9   am
    23     1     2    1
    24    11    12    1
    25     3     4    1
    26     3     2    1
    27     9    13    1
    28     4     5    1
    29     5     8    1
    30     2     8    1
    31    12    13    2
