@<TRIPOS>MOLECULE
2g6b_GNP_A_1.pdb
 32 34 0 0 0
SMALL
GASTEIGER

@<TRIPOS>ATOM
      1  PG        12.1400   18.2570   15.5360 P.3   302  GNP302      0.4884
      2  O1G       13.1410   19.2110   16.1390 O.3   302  GNP302     -0.1240
      3  O2G       12.5450   17.8650   14.1210 O.2   302  GNP302     -0.2331
      4  O3G       10.7320   18.8350   15.6410 O.3   302  GNP302     -0.1240
      5  N3B       12.2580   16.9360   16.4880 N.3   302  GNP302     -0.0163
      6  PB        11.4740   15.5350   16.2910 P.3   302  GNP302      0.4669
      7  O1B       10.1250   15.6330   16.8930 O.3   302  GNP302     -0.1253
      8  O2B       11.5730   15.0920   14.8950 O.2   302  GNP302     -0.2351
      9  O3A       12.2490   14.4720   17.1170 O.3   302  GNP302     -0.2360
     10  PA        13.3030   13.3890   16.6290 P.3   302  GNP302      0.2220
     11  O1A       12.6460   12.2830   15.9470 O.2   302  GNP302     -0.5170
     12  O2A       14.4620   14.0640   15.9910 O.3   302  GNP302     -0.4370
     13  O5'       13.7880   12.7440   17.9560 O.3   302  GNP302     -0.3111
     14  C5'       14.2990   13.5460   19.0500 C.3   302  GNP302      0.1813
     15  C4'       15.2810   12.7790   19.9230 C.3   302  GNP302      0.1799
     16  O4'       14.5770   11.7540   20.6870 O.3   302  GNP302     -0.3326
     17  C3'       16.3730   12.0280   19.1680 C.3   302  GNP302      0.2158
     18  O3'       17.5780   11.9520   19.9380 O.3   302  GNP302     -0.2175
     19  C2'       15.7580   10.6460   18.9520 C.3   302  GNP302      0.2310
     20  O2'       16.7030    9.6110   18.8110 O.3   302  GNP302     -0.2158
     21  C1'       15.0150   10.4710   20.2490 C.3   302  GNP302      0.2293
     22  N9        13.7930    9.6910   20.1540 N.pl3 302  GNP302     -0.2354
     23  C8        12.7630    9.8610   19.2660 C.3   302  GNP302      0.2246
     24  N7        11.7840    9.0570   19.4540 N.2   302  GNP302     -0.2322
     25  C5        12.1850    8.3310   20.5710 C.2   302  GNP302      0.2182
     26  C6        11.5180    7.2950   21.2480 C.1   302  GNP302      0.2372
     27  O6        10.4180    6.7830   21.0010 O.2   302  GNP302     -0.2069
     28  N1        12.2840    6.8310   22.2960 N.2   302  GNP302     -0.2485
     29  C2        13.5160    7.2910   22.6650 C.1   302  GNP302      0.2531
     30  N2        14.0350    6.6850   23.7150 N.pl3 302  GNP302     -0.0226
     31  N3        14.1700    8.2520   22.0490 N.2   302  GNP302     -0.3074
     32  C4        13.4230    8.7180   21.0140 C.2   302  GNP302      0.2300
@<TRIPOS>BOND
     1     3     1    2
     2     8     6    2
     3     1     4    1
     4     1     2    1
     5     1     5    1
     6    11    10    2
     7    12    10    1
     8     6     5    1
     9     6     7    1
    10     6     9    1
    11    10     9    1
    12    10    13    1
    13    13    14    1
    14    20    19    1
    15    19    17    1
    16    19    21    1
    17    14    15    1
    18    17    15    1
    19    17    18    1
    20    23    24    1
    21    23    22    1
    22    24    25    2
    23    15    16    1
    24    22    21    1
    25    22    32    1
    26    21    16    1
    27    25    32    1
    28    25    26    1
    29    27    26    2
    30    32    31    2
    31    26    28    2
    32    31    29    2
    33    28    29    2
    34    29    30    1
