@<TRIPOS>MOLECULE
2g6d_MQQ_A_1.pdb
 44 47 0 0 0
SMALL
GASTEIGER

@<TRIPOS>ATOM
      1  N3        34.1080    4.1330   49.9780 N.am  281  MQQ281     -0.2577
      2  O6        32.3630    1.7940   50.0230 O.3   281  MQQ281     -0.3501
      3  C2        33.6350    3.4910   51.2540 C.3   281  MQQ281      0.1271
      4  C3        32.3390    2.7100   51.1130 C.3   281  MQQ281      0.1637
      5  C4        33.8710    3.2980   48.7410 C.3   281  MQQ281      0.1271
      6  C5        32.5770    2.5020   48.7760 C.3   281  MQQ281      0.1637
      7  C11       34.5990    5.3820   49.9410 C.2   281  MQQ281      0.3238
      8  O1        34.8840    5.9590   50.9870 O.2   281  MQQ281     -0.2508
      9  N1        34.9100    5.9320   48.7720 N.am  281  MQQ281     -0.1807
     10  CA        35.4120    7.2920   48.7010 C.3   281  MQQ281      0.1761
     11  CB        35.5870    7.7120   47.2510 C.3   281  MQQ281      0.0569
     12  CG        36.3650    6.7360   46.4210 C.3   281  MQQ281      0.1582
     13  SD        38.1420    7.1070   46.5030 S.O2  281  MQQ281      0.0087
     14  CE        38.8470    5.8340   45.5230 C.ar  281  MQQ281      0.1057
     15  C         34.3270    8.1470   49.3300 C.2   281  MQQ281      0.2613
     16  O         33.1610    8.0230   48.9680 O.2   281  MQQ281     -0.2715
     17  O2        38.5910    6.9340   47.8420 O.2   281  MQQ281     -0.1686
     18  O3        38.3890    8.3230   45.8070 O.2   281  MQQ281     -0.1686
     19  CD1       39.2770    4.6340   46.1060 C.ar  281  MQQ281      0.0183
     20  CD2       38.8530    5.9530   44.1180 C.ar  281  MQQ281      0.0183
     21  CX1       39.6910    3.5850   45.3110 C.ar  281  MQQ281      0.0013
     22  CX2       39.2670    4.8990   43.3250 C.ar  281  MQQ281      0.0013
     23  CZ        39.6850    3.7150   43.9180 C.ar  281  MQQ281      0.0001
     24  CM        35.2010   11.9750   51.2240 C.3   281  MQQ281      0.1577
     25  N2        34.7060    9.0650   50.2120 N.am  281  MQQ281     -0.2057
     26  CA1       33.7260    9.9720   50.7840 C.3   281  MQQ281      0.0975
     27  CB3       33.6450    9.7660   52.3000 C.3   281  MQQ281      0.0264
     28  CG1       32.8040    8.2500   54.1540 C.ar  281  MQQ281     -0.0221
     29  CDB       31.6020    8.7540   54.6610 C.ar  281  MQQ281     -0.0043
     30  CDC       33.7160    7.6250   55.0200 C.ar  281  MQQ281     -0.0043
     31  CE1       31.3170    8.6380   56.0190 C.ar  281  MQQ281     -0.0003
     32  CE2       33.4230    7.5130   56.3720 C.ar  281  MQQ281     -0.0003
     33  CZ1       32.2240    8.0210   56.8690 C.ar  281  MQQ281     -0.0000
     34  CB2       33.1250    8.3870   52.6810 C.3   281  MQQ281      0.0281
     35  CT        34.0180   11.4410   50.4330 C.3   281  MQQ281      0.0474
     36  C1        32.9820   11.6650   56.1790 C.ar  281  MQQ281      0.0001
     37  C21       34.3560   11.8330   56.3010 C.ar  281  MQQ281      0.0013
     38  C31       35.1170   12.2270   55.1950 C.ar  281  MQQ281      0.0183
     39  C41       34.5020   12.4450   53.9490 C.ar  281  MQQ281      0.1057
     40  C51       33.1120   12.2710   53.8480 C.ar  281  MQQ281      0.0183
     41  C6        32.3600   11.8870   54.9540 C.ar  281  MQQ281      0.0013
     42  S1        35.3910   13.1300   52.6080 S.O2  281  MQQ281      0.0087
     43  O11       36.7610   13.0890   53.0030 O.2   281  MQQ281     -0.1686
     44  O21       34.8320   14.4010   52.3360 O.2   281  MQQ281     -0.1686
@<TRIPOS>BOND
     1    22    23   ar
     2    22    20   ar
     3    23    21   ar
     4    20    14   ar
     5    21    19   ar
     6    14    19   ar
     7    14    13    1
     8    18    13    2
     9    12    13    1
    10    12    11    1
    11    13    17    2
    12    11    10    1
    13    10     9    1
    14    10    15    1
    15     5     6    1
    16     5     1    1
    17     9     7   am
    18     6     2    1
    19    16    15    2
    20    15    25   am
    21     7     1   am
    22     7     8    2
    23     1     3    1
    24     2     4    1
    25    25    26    1
    26    35    26    1
    27    35    24    1
    28    26    27    1
    29     4     3    1
    30    24    42    1
    31    27    34    1
    32    44    42    2
    33    42    43    2
    34    42    39    1
    35    34    28    1
    36    40    39   ar
    37    40    41   ar
    38    39    38   ar
    39    28    29   ar
    40    28    30   ar
    41    29    31   ar
    42    41    36   ar
    43    30    32   ar
    44    38    37   ar
    45    31    33   ar
    46    36    37   ar
    47    32    33   ar
