@<TRIPOS>MOLECULE
2g6h_HEM_A_1.pdb
 43 50 0 0 0
SMALL
GASTEIGER

@<TRIPOS>ATOM
      1 FE         15.8050    4.3550   24.3580 Fe    750  HEM750      0.0000
      2  CHA       13.0910    4.4250   26.5120 C.2   750  HEM750      0.0000
      3  CHB       16.9040    1.4860   25.9090 C.2   750  HEM750      0.0000
      4  CHC       17.5980    3.4470   21.6140 C.2   750  HEM750      0.0000
      5  CHD       14.4160    7.0030   22.6710 C.2   750  HEM750      0.0000
      6  NA        15.1050    3.1550   25.8710 N.2   750  HEM750      0.0000
      7  C1A       13.9410    3.3500   26.6360 C.2   750  HEM750      0.0000
      8  C2A       13.7570    2.3090   27.5820 C.2   750  HEM750      0.0000
      9  C3A       14.8490    1.5310   27.4650 C.2   750  HEM750      0.0000
     10  C4A       15.6880    2.0570   26.3900 C.2   750  HEM750      0.0000
     11  CMA       15.1900    0.3550   28.4080 C.3   750  HEM750      0.0000
     12  CAA       12.5560    2.0920   28.4790 C.3   750  HEM750      0.0000
     13  CBA       11.5620    1.3590   27.5950 C.3   750  HEM750      0.0000
     14  CGA       10.2300    1.1120   28.2690 C.2   750  HEM750      0.0000
     15  O1A       10.2010    0.9220   29.5060 O.co2 750  HEM750      0.0000
     16  O2A        9.2130    1.0940   27.5490 O.co2 750  HEM750      0.0000
     17  NB        17.1130    2.8210   23.8840 N.ar  750  HEM750      0.0000
     18  C1B       17.5560    1.8200   24.7310 C.ar  750  HEM750      0.0000
     19  C2B       18.6590    1.0740   24.1530 C.ar  750  HEM750      0.0000
     20  C3B       18.8110    1.5700   22.9200 C.ar  750  HEM750      0.0000
     21  C4B       17.8380    2.6730   22.7560 C.ar  750  HEM750      0.0000
     22  CMB       19.4040   -0.1120   24.7560 C.3   750  HEM750      0.0000
     23  CAB       19.6030    0.9240   21.9880 C.2   750  HEM750      0.0000
     24  CBB       20.3360    1.5240   21.0150 C.2   750  HEM750      0.0000
     25  NC        15.9290    5.0620   22.4810 N.2   750  HEM750      0.0000
     26  C1C       16.6920    4.5210   21.4630 C.2   750  HEM750      0.0000
     27  C2C       16.7080    5.3960   20.3270 C.2   750  HEM750      0.0000
     28  C3C       15.8530    6.4400   20.6480 C.2   750  HEM750      0.0000
     29  C4C       15.4120    6.2240   21.9990 C.2   750  HEM750      0.0000
     30  CMC       17.5540    5.1980   19.0770 C.3   750  HEM750      0.0000
     31  CAC       15.3930    7.4800   19.8300 C.2   750  HEM750      0.0000
     32  CBC       16.0880    7.9500   18.7640 C.2   750  HEM750      0.0000
     33  ND        14.1850    5.5950   24.6390 N.ar  750  HEM750      0.0000
     34  C1D       13.8140    6.6900   23.8680 C.ar  750  HEM750      0.0000
     35  C2D       12.6420    7.3530   24.4080 C.ar  750  HEM750      0.0000
     36  C3D       12.2750    6.5820   25.4930 C.ar  750  HEM750      0.0000
     37  C4D       13.2020    5.4850   25.5960 C.ar  750  HEM750      0.0000
     38  CMD       11.9610    8.6430   23.8600 C.3   750  HEM750      0.0000
     39  CAD       11.0510    6.7180   26.3720 C.3   750  HEM750      0.0000
     40  CBD        9.8420    6.3050   25.5390 C.3   750  HEM750      0.0000
     41  CGD        8.5480    6.3470   26.3300 C.2   750  HEM750      0.0000
     42  O1D        8.3320    7.3450   27.0460 O.co2 750  HEM750      0.0000
     43  O2D        7.7570    5.3800   26.2310 O.co2 750  HEM750      0.0000
@<TRIPOS>BOND
     1    32    31    2
     2    30    27    1
     3    31    28    1
     4    27    28    2
     5    27    26    1
     6    28    29    1
     7    24    23    2
     8    26     4    2
     9    26    25    1
    10     4    21    1
    11    23    20    1
    12    29    25    2
    13    29     5    1
    14    25     1    1
    15     5    34    2
    16    21    20   ar
    17    21    17   ar
    18    20    19   ar
    19    38    35    1
    20    34    35   ar
    21    34    33   ar
    22    17     1    1
    23    17    18   ar
    24    19    18   ar
    25    19    22    1
    26     1    33    1
    27     1     6    1
    28    35    36   ar
    29    33    37   ar
    30    18     3    1
    31    36    37   ar
    32    36    39    1
    33    40    41    1
    34    40    39    1
    35    37     2    2
    36     6    10    1
    37     6     7    2
    38     3    10    2
    39    43    41   ar
    40    41    42   ar
    41    10     9    1
    42     2     7    1
    43     7     8    1
    44     9     8    2
    45     9    11    1
    46    16    14   ar
    47     8    12    1
    48    13    14    1
    49    13    12    1
    50    14    15   ar
