@<TRIPOS>MOLECULE
2g6h_H4B_A_1.pdb
 17 18 0 0 0
SMALL
GASTEIGER

@<TRIPOS>ATOM
      1  N1        10.1870    2.4860   33.8650 N.2   760  H4B760     -0.2683
      2  C2        10.3540    2.1320   32.5580 C.1   760  H4B760      0.2608
      3  N2        11.5590    2.0140   31.9970 N.pl3 760  H4B760     -0.0220
      4  N3         9.2270    1.8970   31.8150 N.2   760  H4B760     -0.2474
      5  C4         7.8950    1.9950   32.3070 C.1   760  H4B760      0.2441
      6  O4         6.9410    1.7550   31.5400 O.2   760  H4B760     -0.2063
      7  C4A        7.8130    2.3780   33.6620 C.2   760  H4B760      0.2463
      8  C8A        8.9390    2.6170   34.4510 C.1   760  H4B760      0.1270
      9  N5         6.4590    2.5150   34.2190 N.2   760  H4B760     -0.2460
     10  N8         8.8490    2.9700   35.7490 N.2   760  H4B760     -0.2054
     11  C6         6.3960    3.4570   35.4170 C.3   760  H4B760      0.1627
     12  C7         7.5200    3.1010   36.3990 C.3   760  H4B760      0.1643
     13  C9         4.9630    3.3330   35.9770 C.3   760  H4B760      0.2063
     14  O9         4.5880    2.0210   36.3270 O.3   760  H4B760     -0.2183
     15  C10        4.7300    4.2400   37.1990 C.3   760  H4B760      0.1842
     16  C11        3.2870    4.2640   37.5860 C.3   760  H4B760      0.0383
     17  O10        5.1500    5.5440   36.7690 O.3   760  H4B760     -0.2204
@<TRIPOS>BOND
     1     6     5    2
     2     4     5    2
     3     4     2    2
     4     3     2    1
     5     5     7    1
     6     2     1    2
     7     7     9    2
     8     7     8    1
     9     1     8    2
    10     9    11    1
    11     8    10    2
    12    11    13    1
    13    11    12    1
    14    10    12    1
    15    13    14    1
    16    13    15    1
    17    17    15    1
    18    15    16    1
