@<TRIPOS>MOLECULE
2g6h_ARG_A_1.pdb
 12 11 0 0 0
SMALL
GASTEIGER

@<TRIPOS>ATOM
      1  N          9.7820   -1.3740   26.1690 N.3   770  ARG770     -0.1208
      2  CA         9.2630   -1.6340   24.7900 C.3   770  ARG770      0.1944
      3  C          9.1030   -3.1570   24.5770 C.2   770  ARG770      0.3819
      4  O          8.6070   -3.5690   23.5050 O.co2 770  ARG770     -0.2441
      5  CB        10.2380   -1.0410   23.7350 C.3   770  ARG770      0.0343
      6  CG        10.5260    0.4510   23.9050 C.3   770  ARG770      0.0490
      7  CD        11.8440    0.8380   23.2080 C.3   770  ARG770      0.2205
      8  NE        13.0070    0.0680   23.7070 N.pl3 770  ARG770     -0.0865
      9  CZ        14.2600    0.1910   23.2600 C.cat 770  ARG770      0.5346
     10  NH1       14.5610    1.0480   22.2980 N.pl3 770  ARG770      0.1354
     11  NH2       15.2180   -0.5530   23.7780 N.pl3 770  ARG770      0.1354
     12  OXT        9.4750   -3.9350   25.4750 O.co2 770  ARG770     -0.2441
@<TRIPOS>BOND
     1    10     9    1
     2     7     8    1
     3     7     6    1
     4     9     8    2
     5     9    11    1
     6     4     3   ar
     7     5     6    1
     8     5     2    1
     9     3     2    1
    10     3    12   ar
    11     2     1    1
