@<TRIPOS>MOLECULE
2g6i_HBI_A_1.pdb
 17 18 0 0 0
SMALL
GASTEIGER

@<TRIPOS>ATOM
      1  N1        10.2220    2.5040   33.6250 N.2   760  HBI760     -0.2672
      2  N2        11.5680    1.9400   31.7610 N.pl3 760  HBI760     -0.0220
      3  C2        10.3710    2.0840   32.3270 C.1   760  HBI760      0.2609
      4  N3         9.2110    1.8100   31.6040 N.2   760  HBI760     -0.2466
      5  C4         7.8990    1.9480   32.1530 C.1   760  HBI760      0.2569
      6  O4         6.8890    1.6850   31.4600 O.2   760  HBI760     -0.2052
      7  C4A        7.7970    2.3950   33.4890 C.2   760  HBI760      0.2989
      8  C8A        8.9920    2.6690   34.2350 C.1   760  HBI760      0.1401
      9  N8         8.9430    3.1040   35.5530 N.2   760  HBI760     -0.1992
     10  C7         7.6020    3.1470   36.2670 C.3   760  HBI760      0.1940
     11  C6         6.3850    2.9900   35.3600 C.2   760  HBI760      0.1466
     12  N5         6.5430    2.5580   34.0440 N.2   760  HBI760     -0.3830
     13  C9         4.9500    3.1990   35.8860 C.3   760  HBI760      0.2313
     14  O9         4.4460    1.9730   36.3530 O.3   760  HBI760     -0.2130
     15  C10        4.8620    4.2510   37.0360 C.3   760  HBI760      0.1888
     16  O10        5.2730    5.5130   36.4990 O.3   760  HBI760     -0.2200
     17  C11        3.4340    4.3770   37.5780 C.3   760  HBI760      0.0387
@<TRIPOS>BOND
     1     6     5    2
     2     4     5    2
     3     4     3    2
     4     2     3    1
     5     5     7    1
     6     3     1    2
     7     7    12    2
     8     7     8    1
     9     1     8    2
    10    12    11    2
    11     8     9    2
    12    11    13    1
    13    11    10    1
    14     9    10    1
    15    13    14    1
    16    13    15    1
    17    16    15    1
    18    15    17    1
