@<TRIPOS>MOLECULE
2g6i_HEM_A_1.pdb
 43 50 0 0 0
SMALL
GASTEIGER

@<TRIPOS>ATOM
      1 FE         15.8560    4.3780   24.2450 Fe    750  HEM750      0.0000
      2  CHA       13.1150    4.5030   26.4210 C.2   750  HEM750      0.0000
      3  CHB       16.9330    1.5220   25.8670 C.2   750  HEM750      0.0000
      4  CHC       17.6720    3.4000   21.4590 C.2   750  HEM750      0.0000
      5  CHD       14.5040    7.0190   22.5430 C.2   750  HEM750      0.0000
      6  NA        15.1760    3.2480   25.7700 N.2   750  HEM750      0.0000
      7  C1A       13.9960    3.4300   26.5120 C.2   750  HEM750      0.0000
      8  C2A       13.8060    2.3630   27.4450 C.2   750  HEM750      0.0000
      9  C3A       14.8910    1.5610   27.3640 C.2   750  HEM750      0.0000
     10  C4A       15.7530    2.1250   26.3360 C.2   750  HEM750      0.0000
     11  CMA       15.1150    0.2480   28.1530 C.3   750  HEM750      0.0000
     12  CAA       12.5450    2.1530   28.2660 C.3   750  HEM750      0.0000
     13  CBA       11.5710    1.3200   27.4500 C.3   750  HEM750      0.0000
     14  CGA       10.2200    1.1210   28.1450 C.2   750  HEM750      0.0000
     15  O1A       10.2050    0.9220   29.3770 O.co2 750  HEM750      0.0000
     16  O2A        9.1890    1.1420   27.4500 O.co2 750  HEM750      0.0000
     17  NB        17.1380    2.8310   23.7780 N.ar  750  HEM750      0.0000
     18  C1B       17.5430    1.8200   24.6310 C.ar  750  HEM750      0.0000
     19  C2B       18.5790    1.0130   24.0260 C.ar  750  HEM750      0.0000
     20  C3B       18.7840    1.4930   22.7880 C.ar  750  HEM750      0.0000
     21  C4B       17.8740    2.6390   22.6240 C.ar  750  HEM750      0.0000
     22  CMB       19.2740   -0.1740   24.7130 C.3   750  HEM750      0.0000
     23  CAB       19.6570    0.8610   21.9050 C.2   750  HEM750      0.0000
     24  CBB       20.4040    1.4280   20.9310 C.2   750  HEM750      0.0000
     25  NC        15.9740    5.0160   22.3870 N.2   750  HEM750      0.0000
     26  C1C       16.7720    4.5030   21.3410 C.2   750  HEM750      0.0000
     27  C2C       16.7530    5.3630   20.1900 C.2   750  HEM750      0.0000
     28  C3C       15.9250    6.4190   20.5540 C.2   750  HEM750      0.0000
     29  C4C       15.4680    6.1930   21.8840 C.2   750  HEM750      0.0000
     30  CMC       17.4970    5.1320   18.8370 C.3   750  HEM750      0.0000
     31  CAC       15.5120    7.5390   19.8080 C.2   750  HEM750      0.0000
     32  CBC       16.1430    7.9910   18.7030 C.2   750  HEM750      0.0000
     33  ND        14.2180    5.5940   24.5010 N.ar  750  HEM750      0.0000
     34  C1D       13.8950    6.7230   23.7610 C.ar  750  HEM750      0.0000
     35  C2D       12.7480    7.4120   24.3240 C.ar  750  HEM750      0.0000
     36  C3D       12.3270    6.6710   25.3940 C.ar  750  HEM750      0.0000
     37  C4D       13.2180    5.5300   25.4800 C.ar  750  HEM750      0.0000
     38  CMD       12.2760    8.7990   23.8580 C.3   750  HEM750      0.0000
     39  CAD       11.1340    6.8900   26.3300 C.3   750  HEM750      0.0000
     40  CBD        9.9400    6.3380   25.5370 C.3   750  HEM750      0.0000
     41  CGD        8.6370    6.3560   26.3220 C.2   750  HEM750      0.0000
     42  O1D        8.4070    7.3470   27.0640 O.co2 750  HEM750      0.0000
     43  O2D        7.8610    5.3740   26.1800 O.co2 750  HEM750      0.0000
@<TRIPOS>BOND
     1    32    31    2
     2    30    27    1
     3    31    28    1
     4    27    28    2
     5    27    26    1
     6    28    29    1
     7    24    23    2
     8    26     4    2
     9    26    25    1
    10     4    21    1
    11    29    25    2
    12    29     5    1
    13    23    20    1
    14    25     1    1
    15     5    34    2
    16    21    20   ar
    17    21    17   ar
    18    20    19   ar
    19    34    35   ar
    20    34    33   ar
    21    17     1    1
    22    17    18   ar
    23    38    35    1
    24    19    18   ar
    25    19    22    1
    26     1    33    1
    27     1     6    1
    28    35    36   ar
    29    33    37   ar
    30    18     3    1
    31    36    37   ar
    32    36    39    1
    33    37     2    2
    34    40    41    1
    35    40    39    1
    36     6    10    1
    37     6     7    2
    38     3    10    2
    39    43    41   ar
    40    41    42   ar
    41    10     9    1
    42     2     7    1
    43     7     8    1
    44     9     8    2
    45     9    11    1
    46     8    12    1
    47    16    14   ar
    48    13    14    1
    49    13    12    1
    50    14    15   ar
