@<TRIPOS>MOLECULE
2g6i_ARG_A_1.pdb
 12 11 0 0 0
SMALL
GASTEIGER

@<TRIPOS>ATOM
      1  N          9.8400   -1.4120   26.0910 N.3   770  ARG770     -0.1208
      2  CA         9.3100   -1.6430   24.7140 C.3   770  ARG770      0.1944
      3  C          9.1060   -3.1500   24.4790 C.2   770  ARG770      0.3819
      4  O          8.6710   -3.5260   23.3630 O.co2 770  ARG770     -0.2441
      5  CB        10.2760   -1.0720   23.6530 C.3   770  ARG770      0.0343
      6  CG        10.4770    0.4440   23.7390 C.3   770  ARG770      0.0490
      7  CD        11.8000    0.8670   23.0750 C.3   770  ARG770      0.2205
      8  NE        12.9760    0.1550   23.6130 N.pl3 770  ARG770     -0.0865
      9  CZ        14.2280    0.2560   23.1280 C.cat 770  ARG770      0.5346
     10  NH1       14.5030    1.0380   22.0930 N.pl3 770  ARG770      0.1354
     11  NH2       15.2060   -0.4290   23.6810 N.pl3 770  ARG770      0.1354
     12  OXT        9.3810   -3.9470   25.3960 O.co2 770  ARG770     -0.2441
@<TRIPOS>BOND
     1    10     9    1
     2     7     8    1
     3     7     6    1
     4     9     8    2
     5     9    11    1
     6     4     3   ar
     7     5     6    1
     8     5     2    1
     9     3     2    1
    10     3    12   ar
    11     2     1    1
