@<TRIPOS>MOLECULE
2g6j_ARG_A_1.pdb
 12 11 0 0 0
SMALL
GASTEIGER

@<TRIPOS>ATOM
      1  N          9.6400   -1.4640   26.1540 N.3   770  ARG770     -0.1208
      2  CA         9.2100   -1.7970   24.7600 C.3   770  ARG770      0.1944
      3  C          9.0780   -3.3240   24.6180 C.2   770  ARG770      0.3819
      4  O          8.6410   -3.7910   23.5430 O.co2 770  ARG770     -0.2441
      5  CB        10.2150   -1.2640   23.7140 C.3   770  ARG770      0.0343
      6  CG        10.5500    0.2260   23.7830 C.3   770  ARG770      0.0490
      7  CD        11.8700    0.5070   23.0460 C.3   770  ARG770      0.2205
      8  NE        13.0280   -0.2030   23.6370 N.pl3 770  ARG770     -0.0865
      9  CZ        14.3110   -0.1220   23.2150 C.cat 770  ARG770      0.5346
     10  NH1       14.6560    0.6410   22.1860 N.pl3 770  ARG770      0.1354
     11  NH2       15.2580   -0.8170   23.8300 N.pl3 770  ARG770      0.1354
     12  OXT        9.4200   -4.0510   25.5770 O.co2 770  ARG770     -0.2441
@<TRIPOS>BOND
     1    10     9    1
     2     7     8    1
     3     7     6    1
     4     9     8    2
     5     9    11    1
     6     4     3   ar
     7     5     6    1
     8     5     2    1
     9     3     2    1
    10     3    12   ar
    11     2     1    1
