@<TRIPOS>MOLECULE
2g6j_HEM_A_1.pdb
 43 50 0 0 0
SMALL
GASTEIGER

@<TRIPOS>ATOM
      1 FE         15.5790    4.2560   24.2850 Fe    750  HEM750      0.0000
      2  CHA       13.1230    4.7610   26.6270 C.2   750  HEM750      0.0000
      3  CHB       16.7170    1.5720   26.0820 C.2   750  HEM750      0.0000
      4  CHC       17.5010    3.2780   21.6120 C.2   750  HEM750      0.0000
      5  CHD       14.6650    7.1550   22.7580 C.2   750  HEM750      0.0000
      6  NA        14.9520    3.2870   25.9170 N.2   750  HEM750      0.0000
      7  C1A       13.9220    3.6510   26.7810 C.2   750  HEM750      0.0000
      8  C2A       13.7390    2.7060   27.8160 C.2   750  HEM750      0.0000
      9  C3A       14.7320    1.7870   27.6830 C.2   750  HEM750      0.0000
     10  C4A       15.4950    2.1430   26.4980 C.2   750  HEM750      0.0000
     11  CMA       14.9040    0.5530   28.5930 C.3   750  HEM750      0.0000
     12  CAA       12.4470    2.5700   28.6070 C.3   750  HEM750      0.0000
     13  CBA       11.6980    1.5770   27.7330 C.3   750  HEM750      0.0000
     14  CGA       10.3260    1.2630   28.2590 C.2   750  HEM750      0.0000
     15  O1A       10.2280    0.9230   29.4630 O.co2 750  HEM750      0.0000
     16  O2A        9.3530    1.3550   27.4690 O.co2 750  HEM750      0.0000
     17  NB        16.9380    2.7680   23.9310 N.ar  750  HEM750      0.0000
     18  C1B       17.3800    1.8520   24.8780 C.ar  750  HEM750      0.0000
     19  C2B       18.4150    1.0230   24.3450 C.ar  750  HEM750      0.0000
     20  C3B       18.6390    1.4400   23.0750 C.ar  750  HEM750      0.0000
     21  C4B       17.6430    2.4880   22.8000 C.ar  750  HEM750      0.0000
     22  CMB       19.1320   -0.1260   25.0970 C.3   750  HEM750      0.0000
     23  CAB       19.8210    1.0550   22.4130 C.2   750  HEM750      0.0000
     24  CBB       20.2470    1.3310   21.1390 C.2   750  HEM750      0.0000
     25  NC        15.9710    5.0300   22.5260 N.2   750  HEM750      0.0000
     26  C1C       16.7240    4.4790   21.4890 C.2   750  HEM750      0.0000
     27  C2C       16.7170    5.3660   20.3520 C.2   750  HEM750      0.0000
     28  C3C       15.9800    6.5040   20.7330 C.2   750  HEM750      0.0000
     29  C4C       15.5450    6.2730   22.0620 C.2   750  HEM750      0.0000
     30  CMC       17.4140    5.0930   18.9880 C.3   750  HEM750      0.0000
     31  CAC       15.6140    7.6560   20.0200 C.2   750  HEM750      0.0000
     32  CBC       16.0820    7.9410   18.7790 C.2   750  HEM750      0.0000
     33  ND        14.1790    5.6540   24.6230 N.ar  750  HEM750      0.0000
     34  C1D       13.9780    6.8430   23.9300 C.ar  750  HEM750      0.0000
     35  C2D       12.8230    7.5390   24.4210 C.ar  750  HEM750      0.0000
     36  C3D       12.3380    6.8010   25.4430 C.ar  750  HEM750      0.0000
     37  C4D       13.2100    5.6570   25.5840 C.ar  750  HEM750      0.0000
     38  CMD       12.2260    8.8210   23.9100 C.3   750  HEM750      0.0000
     39  CAD       11.0840    6.9860   26.2860 C.3   750  HEM750      0.0000
     40  CBD        9.9020    6.3720   25.5240 C.3   750  HEM750      0.0000
     41  CGD        8.6350    6.2810   26.3680 C.2   750  HEM750      0.0000
     42  O1D        8.3320    7.2810   27.0530 O.co2 750  HEM750      0.0000
     43  O2D        7.9570    5.2150   26.3270 O.co2 750  HEM750      0.0000
@<TRIPOS>BOND
     1    32    31    2
     2    30    27    1
     3    31    28    1
     4    27    28    2
     5    27    26    1
     6    28    29    1
     7    24    23    2
     8    26     4    2
     9    26    25    1
    10     4    21    1
    11    29    25    2
    12    29     5    1
    13    23    20    1
    14    25     1    1
    15     5    34    2
    16    21    20   ar
    17    21    17   ar
    18    20    19   ar
    19    38    35    1
    20    34    35   ar
    21    34    33   ar
    22    17     1    1
    23    17    18   ar
    24     1    33    1
    25     1     6    1
    26    19    18   ar
    27    19    22    1
    28    35    36   ar
    29    33    37   ar
    30    18     3    1
    31    36    37   ar
    32    36    39    1
    33    40    39    1
    34    40    41    1
    35    37     2    2
    36     6    10    1
    37     6     7    2
    38     3    10    2
    39    43    41   ar
    40    41    42   ar
    41    10     9    1
    42     2     7    1
    43     7     8    1
    44    16    14   ar
    45     9     8    2
    46     9    11    1
    47    13    14    1
    48    13    12    1
    49     8    12    1
    50    14    15   ar
