@<TRIPOS>MOLECULE
2g6j_7AP_A_1.pdb
 17 18 0 0 0
SMALL
GASTEIGER

@<TRIPOS>ATOM
      1  N1         9.8730    2.5740   33.9830 N.2   760  7AP760     -0.2684
      2  C2        10.1080    2.0600   32.7070 C.1   760  7AP760      0.2519
      3  N2        11.3440    1.9260   32.1910 N.pl3 760  7AP760     -0.0226
      4  N3         8.9900    1.6770   31.9670 N.2   760  7AP760     -0.3033
      5  C4         7.6840    1.7830   32.4370 C.2   760  7AP760      0.2728
      6  N4         6.6610    1.3940   31.6730 N.pl3 760  7AP760     -0.0887
      7  C4A        7.4830    2.3120   33.7460 C.2   760  7AP760      0.2518
      8  C8A        8.5890    2.7130   34.5240 C.1   760  7AP760      0.1315
      9  N5         6.1830    2.4300   34.2510 N.2   760  7AP760     -0.3908
     10  C6         5.9950    2.9530   35.5420 C.2   760  7AP760      0.1458
     11  C7         7.1180    3.3660   36.3460 C.3   760  7AP760      0.1940
     12  N8         8.3990    3.2300   35.8000 N.2   760  7AP760     -0.1997
     13  C1'        4.5500    3.0660   36.0870 C.3   760  7AP760      0.2313
     14  O1'        3.6330    2.4540   35.1990 O.3   760  7AP760     -0.2130
     15  C2'        4.0170    4.5220   36.3380 C.3   760  7AP760      0.1888
     16  O2'        4.6010    5.0510   37.5150 O.3   760  7AP760     -0.2200
     17  C3'        4.3110    5.4750   35.1690 C.3   760  7AP760      0.0387
@<TRIPOS>BOND
     1     6     5    1
     2     4     5    2
     3     4     2    2
     4     3     2    1
     5     5     7    1
     6     2     1    2
     7     7     9    2
     8     7     8    1
     9     1     8    2
    10     9    10    2
    11     8    12    2
    12    17    15    1
    13    14    13    1
    14    10    13    1
    15    10    11    1
    16    12    11    1
    17    13    15    1
    18    15    16    1
