@<TRIPOS>MOLECULE
2g6k_ARG_A_1.pdb
 12 11 0 0 0
SMALL
GASTEIGER

@<TRIPOS>ATOM
      1  N          9.8560   -1.5450   26.1520 N.3   770  ARG770     -0.1208
      2  CA         9.3120   -1.8140   24.7790 C.3   770  ARG770      0.1944
      3  C          9.1280   -3.3270   24.5870 C.2   770  ARG770      0.3819
      4  O          8.4820   -3.7280   23.5880 O.co2 770  ARG770     -0.2441
      5  CB        10.2490   -1.2620   23.6830 C.3   770  ARG770      0.0343
      6  CG        10.6050    0.2190   23.8110 C.3   770  ARG770      0.0490
      7  CD        11.8810    0.5340   23.0090 C.3   770  ARG770      0.2205
      8  NE        13.0700   -0.1740   23.5420 N.pl3 770  ARG770     -0.0865
      9  CZ        14.3270   -0.0910   23.0610 C.cat 770  ARG770      0.5346
     10  NH1       14.6160    0.6740   22.0140 N.pl3 770  ARG770      0.1354
     11  NH2       15.3010   -0.7880   23.6390 N.pl3 770  ARG770      0.1354
     12  OXT        9.6270   -4.1020   25.4330 O.co2 770  ARG770     -0.2441
@<TRIPOS>BOND
     1    10     9    1
     2     7     8    1
     3     7     6    1
     4     9     8    2
     5     9    11    1
     6     4     3   ar
     7     5     6    1
     8     5     2    1
     9     3     2    1
    10     3    12   ar
    11     2     1    1
