@<TRIPOS>MOLECULE
2g6k_HEM_A_1.pdb
 43 50 0 0 0
SMALL
GASTEIGER

@<TRIPOS>ATOM
      1 FE         15.6450    4.2530   24.1490 Fe    750  HEM750      0.0000
      2  CHA       13.0990    4.5800   26.4610 C.2   750  HEM750      0.0000
      3  CHB       16.8660    1.5690   25.8650 C.2   750  HEM750      0.0000
      4  CHC       17.6520    3.5170   21.5600 C.2   750  HEM750      0.0000
      5  CHD       14.5570    7.1070   22.6030 C.2   750  HEM750      0.0000
      6  NA        15.0410    3.2410   25.7980 N.2   750  HEM750      0.0000
      7  C1A       13.9330    3.4890   26.6010 C.2   750  HEM750      0.0000
      8  C2A       13.7720    2.4710   27.5700 C.2   750  HEM750      0.0000
      9  C3A       14.8680    1.6820   27.4540 C.2   750  HEM750      0.0000
     10  C4A       15.6630    2.1610   26.3520 C.2   750  HEM750      0.0000
     11  CMA       15.2540    0.5380   28.3800 C.3   750  HEM750      0.0000
     12  CAA       12.5600    2.1970   28.4040 C.3   750  HEM750      0.0000
     13  CBA       11.6120    1.3890   27.5000 C.3   750  HEM750      0.0000
     14  CGA       10.2840    1.0630   28.1670 C.2   750  HEM750      0.0000
     15  O1A       10.2640    0.9040   29.4140 O.co2 750  HEM750      0.0000
     16  O2A        9.2740    0.9520   27.4380 O.co2 750  HEM750      0.0000
     17  NB        17.0620    2.8470   23.7940 N.ar  750  HEM750      0.0000
     18  C1B       17.4990    1.8570   24.6710 C.ar  750  HEM750      0.0000
     19  C2B       18.5900    1.0960   24.0900 C.ar  750  HEM750      0.0000
     20  C3B       18.8050    1.6180   22.8390 C.ar  750  HEM750      0.0000
     21  C4B       17.8330    2.7130   22.6840 C.ar  750  HEM750      0.0000
     22  CMB       19.3520   -0.0600   24.7090 C.3   750  HEM750      0.0000
     23  CAB       19.8250    1.1120   21.9900 C.2   750  HEM750      0.0000
     24  CBB       20.2760    1.5700   20.7940 C.2   750  HEM750      0.0000
     25  NC        16.0010    5.1260   22.3970 N.2   750  HEM750      0.0000
     26  C1C       16.8040    4.6270   21.4030 C.2   750  HEM750      0.0000
     27  C2C       16.7760    5.4540   20.2500 C.2   750  HEM750      0.0000
     28  C3C       15.9600    6.5210   20.5830 C.2   750  HEM750      0.0000
     29  C4C       15.5080    6.3070   21.9150 C.2   750  HEM750      0.0000
     30  CMC       17.5660    5.2130   18.9630 C.3   750  HEM750      0.0000
     31  CAC       15.5450    7.6130   19.7990 C.2   750  HEM750      0.0000
     32  CBC       16.1770    8.0460   18.6870 C.2   750  HEM750      0.0000
     33  ND        14.2290    5.6500   24.5260 N.ar  750  HEM750      0.0000
     34  C1D       13.9500    6.7950   23.8100 C.ar  750  HEM750      0.0000
     35  C2D       12.7370    7.4400   24.3100 C.ar  750  HEM750      0.0000
     36  C3D       12.2800    6.6340   25.3280 C.ar  750  HEM750      0.0000
     37  C4D       13.1980    5.5490   25.4740 C.ar  750  HEM750      0.0000
     38  CMD       12.1520    8.7860   23.7960 C.3   750  HEM750      0.0000
     39  CAD       11.0420    6.7650   26.2000 C.3   750  HEM750      0.0000
     40  CBD        9.8840    6.2180   25.3850 C.3   750  HEM750      0.0000
     41  CGD        8.5830    6.2100   26.1550 C.2   750  HEM750      0.0000
     42  O1D        8.3300    7.1970   26.8790 O.co2 750  HEM750      0.0000
     43  O2D        7.8280    5.2250   26.0260 O.co2 750  HEM750      0.0000
@<TRIPOS>BOND
     1    32    31    2
     2    30    27    1
     3    31    28    1
     4    27    28    2
     5    27    26    1
     6    28    29    1
     7    24    23    2
     8    26     4    2
     9    26    25    1
    10     4    21    1
    11    29    25    2
    12    29     5    1
    13    23    20    1
    14    25     1    1
    15     5    34    2
    16    21    20   ar
    17    21    17   ar
    18    20    19   ar
    19    17     1    1
    20    17    18   ar
    21    38    35    1
    22    34    35   ar
    23    34    33   ar
    24    19    18   ar
    25    19    22    1
    26     1    33    1
    27     1     6    1
    28    35    36   ar
    29    33    37   ar
    30    18     3    1
    31    36    37   ar
    32    36    39    1
    33    40    41    1
    34    40    39    1
    35    37     2    2
    36     6    10    1
    37     6     7    2
    38     3    10    2
    39    43    41   ar
    40    41    42   ar
    41    10     9    1
    42     2     7    1
    43     7     8    1
    44    16    14   ar
    45     9     8    2
    46     9    11    1
    47    13    14    1
    48    13    12    1
    49     8    12    1
    50    14    15   ar
