@<TRIPOS>MOLECULE
2g6k_H4B_A_1.pdb
 17 18 0 0 0
SMALL
GASTEIGER

@<TRIPOS>ATOM
      1  N1        10.2300    2.4570   33.7340 N.2   760  H4B760     -0.2683
      2  C2        10.3940    2.0870   32.4340 C.1   760  H4B760      0.2608
      3  N2        11.5930    1.9770   31.8690 N.pl3 760  H4B760     -0.0220
      4  N3         9.2640    1.8200   31.6960 N.2   760  H4B760     -0.2474
      5  C4         7.9360    1.9070   32.1940 C.1   760  H4B760      0.2441
      6  O4         6.9740    1.6430   31.4390 O.2   760  H4B760     -0.2063
      7  C4A        7.8640    2.3090   33.5490 C.2   760  H4B760      0.2463
      8  C8A        8.9960    2.5760   34.3250 C.1   760  H4B760      0.1270
      9  N5         6.5190    2.4410   34.1190 N.2   760  H4B760     -0.2460
     10  N8         8.9190    2.9400   35.6210 N.2   760  H4B760     -0.2054
     11  C6         6.4740    3.4000   35.3100 C.3   760  H4B760      0.1627
     12  C7         7.6100    3.0540   36.2820 C.3   760  H4B760      0.1643
     13  C9         5.0600    3.2970   35.8980 C.3   760  H4B760      0.2063
     14  O9         4.6710    1.9920   36.2760 O.3   760  H4B760     -0.2183
     15  C10        4.8610    4.2210   37.1120 C.3   760  H4B760      0.1842
     16  C11        3.4240    4.2740   37.5200 C.3   760  H4B760      0.0383
     17  O10        5.2960    5.5060   36.6610 O.3   760  H4B760     -0.2204
@<TRIPOS>BOND
     1     6     5    2
     2     4     5    2
     3     4     2    2
     4     3     2    1
     5     5     7    1
     6     2     1    2
     7     7     9    2
     8     7     8    1
     9     1     8    2
    10     9    11    1
    11     8    10    2
    12    11    13    1
    13    11    12    1
    14    10    12    1
    15    13    14    1
    16    13    15    1
    17    17    15    1
    18    15    16    1
