@<TRIPOS>MOLECULE
2g6l_HEM_A_1.pdb
 43 50 0 0 0
SMALL
GASTEIGER

@<TRIPOS>ATOM
      1 FE         15.6770    4.3300   24.1240 Fe    750  HEM750      0.0000
      2  CHA       13.1270    4.6960   26.4460 C.2   750  HEM750      0.0000
      3  CHB       16.9690    1.7020   25.9410 C.2   750  HEM750      0.0000
      4  CHC       17.7070    3.5710   21.5250 C.2   750  HEM750      0.0000
      5  CHD       14.7180    7.2240   22.6090 C.2   750  HEM750      0.0000
      6  NA        15.0990    3.3440   25.8100 N.2   750  HEM750      0.0000
      7  C1A       13.9920    3.5880   26.5930 C.2   750  HEM750      0.0000
      8  C2A       13.8180    2.5350   27.5260 C.2   750  HEM750      0.0000
      9  C3A       14.9220    1.7570   27.4680 C.2   750  HEM750      0.0000
     10  C4A       15.7400    2.2700   26.3960 C.2   750  HEM750      0.0000
     11  CMA       15.2670    0.5930   28.4080 C.3   750  HEM750      0.0000
     12  CAA       12.5790    2.2790   28.3300 C.3   750  HEM750      0.0000
     13  CBA       11.6120    1.5090   27.4590 C.3   750  HEM750      0.0000
     14  CGA       10.2690    1.2480   28.1320 C.2   750  HEM750      0.0000
     15  O1A       10.2460    1.0530   29.3760 O.co2 750  HEM750      0.0000
     16  O2A        9.2500    1.2360   27.4080 O.co2 750  HEM750      0.0000
     17  NB        17.1090    2.9110   23.8080 N.ar  750  HEM750      0.0000
     18  C1B       17.5480    1.9450   24.6930 C.ar  750  HEM750      0.0000
     19  C2B       18.6630    1.2250   24.1450 C.ar  750  HEM750      0.0000
     20  C3B       18.9020    1.7260   22.9100 C.ar  750  HEM750      0.0000
     21  C4B       17.9140    2.7920   22.7070 C.ar  750  HEM750      0.0000
     22  CMB       19.4360    0.0790   24.7970 C.3   750  HEM750      0.0000
     23  CAB       19.8420    1.1190   22.0650 C.2   750  HEM750      0.0000
     24  CBB       20.3620    1.5490   20.8810 C.2   750  HEM750      0.0000
     25  NC        16.0450    5.1830   22.3470 N.2   750  HEM750      0.0000
     26  C1C       16.8220    4.6670   21.3410 C.2   750  HEM750      0.0000
     27  C2C       16.8590    5.5500   20.2120 C.2   750  HEM750      0.0000
     28  C3C       16.0620    6.6330   20.5730 C.2   750  HEM750      0.0000
     29  C4C       15.6280    6.4000   21.9040 C.2   750  HEM750      0.0000
     30  CMC       17.5920    5.2690   18.8770 C.3   750  HEM750      0.0000
     31  CAC       15.6290    7.7500   19.8280 C.2   750  HEM750      0.0000
     32  CBC       16.0900    8.1310   18.6160 C.2   750  HEM750      0.0000
     33  ND        14.3030    5.7580   24.5310 N.ar  750  HEM750      0.0000
     34  C1D       14.0670    6.9070   23.8290 C.ar  750  HEM750      0.0000
     35  C2D       12.8400    7.5320   24.2820 C.ar  750  HEM750      0.0000
     36  C3D       12.3240    6.7690   25.2880 C.ar  750  HEM750      0.0000
     37  C4D       13.2390    5.6750   25.4560 C.ar  750  HEM750      0.0000
     38  CMD       12.1990    8.8180   23.6930 C.3   750  HEM750      0.0000
     39  CAD       11.0190    6.9640   26.0920 C.3   750  HEM750      0.0000
     40  CBD        9.9040    6.2830   25.3080 C.3   750  HEM750      0.0000
     41  CGD        8.5900    6.2090   26.0750 C.2   750  HEM750      0.0000
     42  O1D        8.2730    7.1800   26.8000 O.co2 750  HEM750      0.0000
     43  O2D        7.8840    5.1850   25.9380 O.co2 750  HEM750      0.0000
@<TRIPOS>BOND
     1    32    31    2
     2    30    27    1
     3    31    28    1
     4    27    28    2
     5    27    26    1
     6    28    29    1
     7    24    23    2
     8    26     4    2
     9    26    25    1
    10     4    21    1
    11    29    25    2
    12    29     5    1
    13    23    20    1
    14    25     1    1
    15     5    34    2
    16    21    20   ar
    17    21    17   ar
    18    20    19   ar
    19    38    35    1
    20    17     1    1
    21    17    18   ar
    22    34    35   ar
    23    34    33   ar
    24     1    33    1
    25     1     6    1
    26    19    18   ar
    27    19    22    1
    28    35    36   ar
    29    33    37   ar
    30    18     3    1
    31    36    37   ar
    32    36    39    1
    33    40    41    1
    34    40    39    1
    35    37     2    2
    36     6    10    1
    37     6     7    2
    38    43    41   ar
    39     3    10    2
    40    41    42   ar
    41    10     9    1
    42     2     7    1
    43     7     8    1
    44    16    14   ar
    45    13    14    1
    46    13    12    1
    47     9     8    2
    48     9    11    1
    49     8    12    1
    50    14    15   ar
