@<TRIPOS>MOLECULE
2g6l_HBI_A_1.pdb
 17 18 0 0 0
SMALL
GASTEIGER

@<TRIPOS>ATOM
      1  N1        10.2930    2.5030   33.7580 N.2   760  HBI760     -0.2672
      2  N2        11.6850    1.9770   31.8950 N.pl3 760  HBI760     -0.0220
      3  C2        10.4730    2.1280   32.4420 C.1   760  HBI760      0.2609
      4  N3         9.3270    1.9090   31.6850 N.2   760  HBI760     -0.2466
      5  C4         8.0040    2.0630   32.2050 C.1   760  HBI760      0.2569
      6  O4         7.0000    1.8540   31.4820 O.2   760  HBI760     -0.2052
      7  C4A        7.8720    2.4600   33.5610 C.2   760  HBI760      0.2989
      8  C8A        9.0380    2.6770   34.3430 C.1   760  HBI760      0.1401
      9  N8         8.9530    3.0620   35.6850 N.2   760  HBI760     -0.1992
     10  C7         7.5950    3.0930   36.3560 C.3   760  HBI760      0.1940
     11  C6         6.4070    3.0070   35.4040 C.2   760  HBI760      0.1466
     12  N5         6.6000    2.6310   34.0820 N.2   760  HBI760     -0.3830
     13  C9         4.9650    3.2240   35.8930 C.3   760  HBI760      0.2313
     14  O9         4.4700    2.0190   36.4080 O.3   760  HBI760     -0.2130
     15  C10        4.8480    4.3180   36.9910 C.3   760  HBI760      0.1888
     16  O10        5.2610    5.5590   36.4170 O.3   760  HBI760     -0.2200
     17  C11        3.4060    4.4570   37.4990 C.3   760  HBI760      0.0387
@<TRIPOS>BOND
     1     6     5    2
     2     4     5    2
     3     4     3    2
     4     2     3    1
     5     5     7    1
     6     3     1    2
     7     7    12    2
     8     7     8    1
     9     1     8    2
    10    12    11    2
    11     8     9    2
    12    11    13    1
    13    11    10    1
    14     9    10    1
    15    13    14    1
    16    13    15    1
    17    16    15    1
    18    15    17    1
