@<TRIPOS>MOLECULE
2g6l_ARG_A_1.pdb
 12 11 0 0 0
SMALL
GASTEIGER

@<TRIPOS>ATOM
      1  N          9.8980   -1.3180   26.1750 N.3   770  ARG770     -0.1208
      2  CA         9.3360   -1.6010   24.8090 C.3   770  ARG770      0.1944
      3  C          9.1410   -3.1300   24.6230 C.2   770  ARG770      0.3819
      4  O          8.5260   -3.5310   23.6070 O.co2 770  ARG770     -0.2441
      5  CB        10.2770   -1.0760   23.6970 C.3   770  ARG770      0.0343
      6  CG        10.5790    0.4260   23.6990 C.3   770  ARG770      0.0490
      7  CD        11.8640    0.6920   22.8780 C.3   770  ARG770      0.2205
      8  NE        13.0510    0.0330   23.4780 N.pl3 770  ARG770     -0.0865
      9  CZ        14.3160    0.0170   22.9800 C.cat 770  ARG770      0.5346
     10  NH1       14.6250    0.6240   21.8400 N.pl3 770  ARG770      0.1354
     11  NH2       15.2800   -0.6210   23.6400 N.pl3 770  ARG770      0.1354
     12  OXT        9.6130   -3.9170   25.4830 O.co2 770  ARG770     -0.2441
@<TRIPOS>BOND
     1    10     9    1
     2     7     8    1
     3     7     6    1
     4     9     8    2
     5     9    11    1
     6     4     3   ar
     7     5     6    1
     8     5     2    1
     9     3     2    1
    10     3    12   ar
    11     2     1    1
