@<TRIPOS>MOLECULE
2g6m_HEM_A_1.pdb
 43 50 0 0 0
SMALL
GASTEIGER

@<TRIPOS>ATOM
      1 FE         15.7210    4.3560   24.2180 Fe    750  HEM750      0.0000
      2  CHA       13.0780    4.5350   26.4740 C.2   750  HEM750      0.0000
      3  CHB       16.9120    1.5790   25.8150 C.2   750  HEM750      0.0000
      4  CHC       17.5880    3.5620   21.4740 C.2   750  HEM750      0.0000
      5  CHD       14.5800    7.2450   22.7250 C.2   750  HEM750      0.0000
      6  NA        15.0920    3.2250   25.8040 N.2   750  HEM750      0.0000
      7  C1A       13.9330    3.4270   26.5730 C.2   750  HEM750      0.0000
      8  C2A       13.7940    2.4030   27.5620 C.2   750  HEM750      0.0000
      9  C3A       14.9010    1.6070   27.4300 C.2   750  HEM750      0.0000
     10  C4A       15.7030    2.1350   26.3200 C.2   750  HEM750      0.0000
     11  CMA       15.2430    0.3350   28.2490 C.3   750  HEM750      0.0000
     12  CAA       12.5320    2.1440   28.3540 C.3   750  HEM750      0.0000
     13  CBA       11.5540    1.3790   27.4860 C.3   750  HEM750      0.0000
     14  CGA       10.2530    1.0650   28.1890 C.2   750  HEM750      0.0000
     15  O1A       10.2700    0.8700   29.4260 O.co2 750  HEM750      0.0000
     16  O2A        9.2200    0.9980   27.4990 O.co2 750  HEM750      0.0000
     17  NB        17.1610    2.9160   23.7720 N.ar  750  HEM750      0.0000
     18  C1B       17.5770    1.9270   24.6260 C.ar  750  HEM750      0.0000
     19  C2B       18.6110    1.1100   24.0100 C.ar  750  HEM750      0.0000
     20  C3B       18.7890    1.6120   22.7410 C.ar  750  HEM750      0.0000
     21  C4B       17.8250    2.7430   22.6130 C.ar  750  HEM750      0.0000
     22  CMB       19.3680   -0.0160   24.7120 C.3   750  HEM750      0.0000
     23  CAB       19.7900    1.1130   21.8850 C.2   750  HEM750      0.0000
     24  CBB       20.2640    1.6580   20.7350 C.2   750  HEM750      0.0000
     25  NC        15.9660    5.2270   22.3830 N.2   750  HEM750      0.0000
     26  C1C       16.7460    4.7100   21.3660 C.2   750  HEM750      0.0000
     27  C2C       16.7130    5.5530   20.2150 C.2   750  HEM750      0.0000
     28  C3C       15.9000    6.6290   20.5950 C.2   750  HEM750      0.0000
     29  C4C       15.4900    6.4240   21.9570 C.2   750  HEM750      0.0000
     30  CMC       17.4440    5.2500   18.8860 C.3   750  HEM750      0.0000
     31  CAC       15.5320    7.7420   19.8430 C.2   750  HEM750      0.0000
     32  CBC       16.2410    8.1770   18.7770 C.2   750  HEM750      0.0000
     33  ND        14.1830    5.6990   24.6220 N.ar  750  HEM750      0.0000
     34  C1D       13.9130    6.8830   23.9160 C.ar  750  HEM750      0.0000
     35  C2D       12.7050    7.5080   24.4450 C.ar  750  HEM750      0.0000
     36  C3D       12.2700    6.6930   25.4710 C.ar  750  HEM750      0.0000
     37  C4D       13.1950    5.5840   25.5710 C.ar  750  HEM750      0.0000
     38  CMD       12.0560    8.8110   23.8980 C.3   750  HEM750      0.0000
     39  CAD       11.0290    6.8020   26.3510 C.3   750  HEM750      0.0000
     40  CBD        9.8940    6.2180   25.5250 C.3   750  HEM750      0.0000
     41  CGD        8.5650    6.2380   26.2550 C.2   750  HEM750      0.0000
     42  O1D        8.2950    7.2580   26.9350 O.co2 750  HEM750      0.0000
     43  O2D        7.8110    5.2400   26.1350 O.co2 750  HEM750      0.0000
@<TRIPOS>BOND
     1    32    31    2
     2    30    27    1
     3    31    28    1
     4    27    28    2
     5    27    26    1
     6    28    29    1
     7    24    23    2
     8    26     4    2
     9    26    25    1
    10     4    21    1
    11    23    20    1
    12    29    25    2
    13    29     5    1
    14    25     1    1
    15    21    20   ar
    16    21    17   ar
    17     5    34    2
    18    20    19   ar
    19    17     1    1
    20    17    18   ar
    21    38    35    1
    22    34    35   ar
    23    34    33   ar
    24    19    18   ar
    25    19    22    1
    26     1    33    1
    27     1     6    1
    28    35    36   ar
    29    33    37   ar
    30    18     3    1
    31    36    37   ar
    32    36    39    1
    33    40    41    1
    34    40    39    1
    35    37     2    2
    36     6    10    1
    37     6     7    2
    38     3    10    2
    39    43    41   ar
    40    41    42   ar
    41    10     9    1
    42     2     7    1
    43     7     8    1
    44     9     8    2
    45     9    11    1
    46    13    14    1
    47    13    12    1
    48    16    14   ar
    49     8    12    1
    50    14    15   ar
