@<TRIPOS>MOLECULE
2g6m_ARG_A_1.pdb
 12 11 0 0 0
SMALL
GASTEIGER

@<TRIPOS>ATOM
      1  N          9.8970   -1.5150   26.1530 N.3   770  ARG770     -0.1208
      2  CA         9.3170   -1.7980   24.8010 C.3   770  ARG770      0.1944
      3  C          9.1390   -3.3130   24.6180 C.2   770  ARG770      0.3819
      4  O          8.6330   -3.7170   23.5490 O.co2 770  ARG770     -0.2441
      5  CB        10.2340   -1.2480   23.6850 C.3   770  ARG770      0.0343
      6  CG        10.5810    0.2360   23.7980 C.3   770  ARG770      0.0490
      7  CD        11.8530    0.5480   22.9920 C.3   770  ARG770      0.2205
      8  NE        13.0450   -0.0880   23.5770 N.pl3 770  ARG770     -0.0865
      9  CZ        14.3050    0.0040   23.1090 C.cat 770  ARG770      0.5346
     10  NH1       14.5910    0.7200   22.0270 N.pl3 770  ARG770      0.1354
     11  NH2       15.2830   -0.6290   23.7370 N.pl3 770  ARG770      0.1354
     12  OXT        9.5080   -4.0890   25.5300 O.co2 770  ARG770     -0.2441
@<TRIPOS>BOND
     1    10     9    1
     2     7     8    1
     3     7     6    1
     4     9     8    2
     5     9    11    1
     6     4     3   ar
     7     5     6    1
     8     5     2    1
     9     3     2    1
    10     3    12   ar
    11     2     1    1
