@<TRIPOS>MOLECULE
2g6m_H4B_A_1.pdb
 17 18 0 0 0
SMALL
GASTEIGER

@<TRIPOS>ATOM
      1  N1        10.1610    2.3720   33.7500 N.2   760  H4B760     -0.2683
      2  C2        10.3100    1.9990   32.4560 C.1   760  H4B760      0.2608
      3  N2        11.5120    1.8740   31.8930 N.pl3 760  H4B760     -0.0220
      4  N3         9.1790    1.7510   31.7220 N.2   760  H4B760     -0.2474
      5  C4         7.8520    1.8600   32.2150 C.1   760  H4B760      0.2441
      6  O4         6.8890    1.6100   31.4560 O.2   760  H4B760     -0.2063
      7  C4A        7.7920    2.2650   33.5740 C.2   760  H4B760      0.2463
      8  C8A        8.9390    2.5150   34.3470 C.1   760  H4B760      0.1270
      9  N5         6.4610    2.4190   34.1520 N.2   760  H4B760     -0.2460
     10  N8         8.8810    2.8860   35.6400 N.2   760  H4B760     -0.2054
     11  C6         6.4320    3.3630   35.3430 C.3   760  H4B760      0.1627
     12  C7         7.5730    3.0280   36.3110 C.3   760  H4B760      0.1643
     13  C9         5.0130    3.2610   35.9390 C.3   760  H4B760      0.2063
     14  O9         4.6270    1.9610   36.3120 O.3   760  H4B760     -0.2183
     15  C10        4.8310    4.1820   37.1600 C.3   760  H4B760      0.1842
     16  C11        3.4010    4.2540   37.5850 C.3   760  H4B760      0.0383
     17  O10        5.2680    5.4530   36.6940 O.3   760  H4B760     -0.2204
@<TRIPOS>BOND
     1     6     5    2
     2     4     5    2
     3     4     2    2
     4     3     2    1
     5     5     7    1
     6     2     1    2
     7     7     9    2
     8     7     8    1
     9     1     8    2
    10     9    11    1
    11     8    10    2
    12    11    13    1
    13    11    12    1
    14    10    12    1
    15    13    14    1
    16    13    15    1
    17    17    15    1
    18    15    16    1
