@<TRIPOS>MOLECULE
2g6n_ARG_A_1.pdb
 12 11 0 0 0
SMALL
GASTEIGER

@<TRIPOS>ATOM
      1  N          9.8570   -1.5710   26.1460 N.3   770  ARG770     -0.1208
      2  CA         9.2830   -1.8100   24.7850 C.3   770  ARG770      0.1944
      3  C          9.1100   -3.3200   24.5610 C.2   770  ARG770      0.3819
      4  O          8.5660   -3.7060   23.5020 O.co2 770  ARG770     -0.2441
      5  CB        10.2020   -1.2250   23.6790 C.3   770  ARG770      0.0343
      6  CG        10.6060    0.2330   23.8690 C.3   770  ARG770      0.0490
      7  CD        11.8440    0.5510   23.0290 C.3   770  ARG770      0.2205
      8  NE        13.0490   -0.0730   23.6010 N.pl3 770  ARG770     -0.0865
      9  CZ        14.2830   -0.0250   23.0850 C.cat 770  ARG770      0.5346
     10  NH1       14.5380    0.6240   21.9620 N.pl3 770  ARG770      0.1354
     11  NH2       15.2620   -0.6320   23.7080 N.pl3 770  ARG770      0.1354
     12  OXT        9.5220   -4.1070   25.4300 O.co2 770  ARG770     -0.2441
@<TRIPOS>BOND
     1    10     9    1
     2     7     8    1
     3     7     6    1
     4     9     8    2
     5     9    11    1
     6     4     3   ar
     7     5     6    1
     8     5     2    1
     9     3     2    1
    10     3    12   ar
    11     2     1    1
