@<TRIPOS>MOLECULE
2g6n_HEM_A_1.pdb
 43 50 0 0 0
SMALL
GASTEIGER

@<TRIPOS>ATOM
      1 FE         15.7640    4.3700   24.2300 Fe    750  HEM750      0.0000
      2  CHA       13.0600    4.5000   26.4390 C.2   750  HEM750      0.0000
      3  CHB       16.9480    1.6300   25.8530 C.2   750  HEM750      0.0000
      4  CHC       17.6010    3.5520   21.4610 C.2   750  HEM750      0.0000
      5  CHD       14.6120    7.2340   22.7080 C.2   750  HEM750      0.0000
      6  NA        15.1210    3.2930   25.8310 N.2   750  HEM750      0.0000
      7  C1A       13.9480    3.4380   26.5610 C.2   750  HEM750      0.0000
      8  C2A       13.7950    2.3810   27.5310 C.2   750  HEM750      0.0000
      9  C3A       14.9180    1.6090   27.4150 C.2   750  HEM750      0.0000
     10  C4A       15.7470    2.1920   26.3670 C.2   750  HEM750      0.0000
     11  CMA       15.2270    0.3470   28.2070 C.3   750  HEM750      0.0000
     12  CAA       12.5490    2.0960   28.3330 C.3   750  HEM750      0.0000
     13  CBA       11.5420    1.3270   27.4800 C.3   750  HEM750      0.0000
     14  CGA       10.2420    1.0200   28.2180 C.2   750  HEM750      0.0000
     15  O1A       10.2880    0.7900   29.4480 O.co2 750  HEM750      0.0000
     16  O2A        9.1840    0.9930   27.5560 O.co2 750  HEM750      0.0000
     17  NB        17.1210    2.9090   23.7540 N.ar  750  HEM750      0.0000
     18  C1B       17.5650    1.9430   24.6260 C.ar  750  HEM750      0.0000
     19  C2B       18.6170    1.1730   24.0260 C.ar  750  HEM750      0.0000
     20  C3B       18.7910    1.6480   22.7710 C.ar  750  HEM750      0.0000
     21  C4B       17.8160    2.7440   22.6060 C.ar  750  HEM750      0.0000
     22  CMB       19.3730    0.0350   24.7350 C.3   750  HEM750      0.0000
     23  CAB       19.7640    1.1160   21.9110 C.2   750  HEM750      0.0000
     24  CBB       20.1920    1.6050   20.7200 C.2   750  HEM750      0.0000
     25  NC        16.0350    5.2160   22.3960 N.2   750  HEM750      0.0000
     26  C1C       16.7850    4.6980   21.3640 C.2   750  HEM750      0.0000
     27  C2C       16.7400    5.5580   20.2070 C.2   750  HEM750      0.0000
     28  C3C       15.9150    6.6160   20.5820 C.2   750  HEM750      0.0000
     29  C4C       15.5300    6.4040   21.9460 C.2   750  HEM750      0.0000
     30  CMC       17.4650    5.2990   18.8750 C.3   750  HEM750      0.0000
     31  CAC       15.4710    7.6800   19.8040 C.2   750  HEM750      0.0000
     32  CBC       16.1720    8.2040   18.7620 C.2   750  HEM750      0.0000
     33  ND        14.2150    5.7000   24.5840 N.ar  750  HEM750      0.0000
     34  C1D       13.9430    6.8680   23.8810 C.ar  750  HEM750      0.0000
     35  C2D       12.7700    7.5220   24.4400 C.ar  750  HEM750      0.0000
     36  C3D       12.2920    6.6960   25.4620 C.ar  750  HEM750      0.0000
     37  C4D       13.2030    5.5840   25.5420 C.ar  750  HEM750      0.0000
     38  CMD       12.2200    8.8820   23.9790 C.3   750  HEM750      0.0000
     39  CAD       11.0450    6.8350   26.3240 C.3   750  HEM750      0.0000
     40  CBD        9.8730    6.2560   25.5410 C.3   750  HEM750      0.0000
     41  CGD        8.5700    6.2880   26.3210 C.2   750  HEM750      0.0000
     42  O1D        8.3350    7.2970   27.0270 O.co2 750  HEM750      0.0000
     43  O2D        7.7900    5.3130   26.2150 O.co2 750  HEM750      0.0000
@<TRIPOS>BOND
     1    32    31    2
     2    30    27    1
     3    31    28    1
     4    27    28    2
     5    27    26    1
     6    28    29    1
     7    24    23    2
     8    26     4    2
     9    26    25    1
    10     4    21    1
    11    23    20    1
    12    29    25    2
    13    29     5    1
    14    25     1    1
    15    21    20   ar
    16    21    17   ar
    17     5    34    2
    18    20    19   ar
    19    17     1    1
    20    17    18   ar
    21    34    35   ar
    22    34    33   ar
    23    38    35    1
    24    19    18   ar
    25    19    22    1
    26     1    33    1
    27     1     6    1
    28    35    36   ar
    29    33    37   ar
    30    18     3    1
    31    36    37   ar
    32    36    39    1
    33    40    41    1
    34    40    39    1
    35    37     2    2
    36     6    10    1
    37     6     7    2
    38     3    10    2
    39    43    41   ar
    40    41    42   ar
    41    10     9    1
    42     2     7    1
    43     7     8    1
    44     9     8    2
    45     9    11    1
    46    13    14    1
    47    13    12    1
    48     8    12    1
    49    16    14   ar
    50    14    15   ar
