@<TRIPOS>MOLECULE
2g6n_HBI_A_1.pdb
 17 18 0 0 0
SMALL
GASTEIGER

@<TRIPOS>ATOM
      1  N1        10.2190    2.4170   33.6800 N.2   760  HBI760     -0.2672
      2  N2        11.5580    1.8430   31.8090 N.pl3 760  HBI760     -0.0220
      3  C2        10.3640    2.0010   32.3800 C.1   760  HBI760      0.2609
      4  N3         9.2050    1.7450   31.6610 N.2   760  HBI760     -0.2466
      5  C4         7.9020    1.8940   32.1970 C.1   760  HBI760      0.2569
      6  O4         6.8950    1.6430   31.4980 O.2   760  HBI760     -0.2052
      7  C4A        7.7950    2.3260   33.5360 C.2   760  HBI760      0.2989
      8  C8A        8.9820    2.5940   34.2830 C.1   760  HBI760      0.1401
      9  N8         8.9260    3.0220   35.6020 N.2   760  HBI760     -0.1992
     10  C7         7.5890    3.0790   36.3150 C.3   760  HBI760      0.1940
     11  C6         6.3790    2.9040   35.4000 C.2   760  HBI760      0.1466
     12  N5         6.5390    2.4900   34.0840 N.2   760  HBI760     -0.3830
     13  C9         4.9500    3.0680   35.9280 C.3   760  HBI760      0.2313
     14  O9         4.5360    1.8140   36.3990 O.3   760  HBI760     -0.2130
     15  C10        4.8200    4.1020   37.0870 C.3   760  HBI760      0.1888
     16  O10        5.2460    5.3740   36.5910 O.3   760  HBI760     -0.2200
     17  C11        3.3750    4.2090   37.5840 C.3   760  HBI760      0.0387
@<TRIPOS>BOND
     1     6     5    2
     2     4     5    2
     3     4     3    2
     4     2     3    1
     5     5     7    1
     6     3     1    2
     7     7    12    2
     8     7     8    1
     9     1     8    2
    10    12    11    2
    11     8     9    2
    12    11    13    1
    13    11    10    1
    14     9    10    1
    15    13    14    1
    16    13    15    1
    17    16    15    1
    18    15    17    1
