@<TRIPOS>MOLECULE
2g6o_ARG_A_1.pdb
 11 8 0 0 0
SMALL
GASTEIGER

@<TRIPOS>ATOM
      1  N          8.0360   15.6430   35.3340 N.3   700  ARG700     -0.1208
      2  CA         8.5610   16.2030   34.0480 C.3   700  ARG700      0.1944
      3  C          7.7140   17.4260   33.6810 C.2   700  ARG700      0.3819
      4  O          8.0340   18.1100   32.6880 O.co2 700  ARG700     -0.2441
      5  CB         8.5260   15.1450   32.9110 C.3   700  ARG700      0.0321
      6  CG         8.8200   13.6970   33.3160 C.3   700  ARG700      0.0226
      7  CD         8.2750   12.7430   32.2510 C.3   700  ARG700      0.1094
      8  NE         6.8080   12.6190   32.2920 N.3   700  ARG700     -0.1314
      9  CZ         6.4780   11.4970   30.2510 C.3   700  ARG700      0.0000
     10  NH2        4.7020   12.0320   31.5700 N.3   700  ARG700      0.0000
     11  OXT        6.7310   17.7010   34.4010 O.co2 700  ARG700     -0.2441
@<TRIPOS>BOND
     1     7     8    1
     2     7     6    1
     3     4     3   ar
     4     5     6    1
     5     5     2    1
     6     3     2    1
     7     3    11   ar
     8     2     1    1
