@<TRIPOS>MOLECULE
2g6o_HEM_A_1.pdb
 43 50 0 0 0
SMALL
GASTEIGER

@<TRIPOS>ATOM
      1  CHA        9.3150    9.1410   35.0440 C.2   500  HEM500      0.0000
      2  CHB        4.6880    9.2620   33.5030 C.2   500  HEM500      0.0000
      3  CHC        6.1570    7.6030   29.1530 C.2   500  HEM500      0.0000
      4  CHD       10.6570    6.8840   30.9550 C.2   500  HEM500      0.0000
      5  C1A        7.9320    9.3990   34.9620 C.2   500  HEM500      0.0000
      6  C2A        7.1680   10.1290   35.9480 C.2   500  HEM500      0.0000
      7  C3A        5.8700   10.1500   35.5460 C.2   500  HEM500      0.0000
      8  C4A        5.8340    9.4460   34.2780 C.2   500  HEM500      0.0000
      9  CMA        4.6930   10.7850   36.3110 C.3   500  HEM500      0.0000
     10  CAA        7.7390   10.8720   37.1620 C.3   500  HEM500      0.0000
     11  CBA        7.7760   12.3410   36.7870 C.3   500  HEM500      0.0000
     12  CGA        8.4900   13.1980   37.8060 C.2   500  HEM500      0.0000
     13  O1A        8.1510   13.1040   39.0090 O.co2 500  HEM500      0.0000
     14  O2A        9.3850   13.9780   37.3930 O.co2 500  HEM500      0.0000
     15  C1B        4.6530    8.6620   32.2390 C.ar  500  HEM500      0.0000
     16  C2B        3.4670    8.6200   31.3990 C.ar  500  HEM500      0.0000
     17  C3B        3.8650    8.1630   30.1610 C.ar  500  HEM500      0.0000
     18  C4B        5.3100    7.9440   30.2460 C.ar  500  HEM500      0.0000
     19  CMB        2.0680    9.0910   31.8030 C.3   500  HEM500      0.0000
     20  CAB        3.0620    8.0960   29.0210 C.2   500  HEM500      0.0000
     21  CBB        3.0730    7.1010   28.0920 C.2   500  HEM500      0.0000
     22  C1C        7.5500    7.3490   29.2360 C.2   500  HEM500      0.0000
     23  C2C        8.3990    6.8760   28.1530 C.2   500  HEM500      0.0000
     24  C3C        9.6450    6.5780   28.6830 C.2   500  HEM500      0.0000
     25  C4C        9.5660    6.9260   30.0810 C.2   500  HEM500      0.0000
     26  CMC        7.9650    6.7290   26.6860 C.3   500  HEM500      0.0000
     27  CAC       10.7750    5.9930   28.0720 C.2   500  HEM500      0.0000
     28  CBC       10.8670    5.3630   26.8590 C.2   500  HEM500      0.0000
     29  C1D       10.6700    7.3700   32.2660 C.ar  500  HEM500      0.0000
     30  C2D       11.8650    7.4950   33.0890 C.ar  500  HEM500      0.0000
     31  C3D       11.4930    8.1920   34.2020 C.ar  500  HEM500      0.0000
     32  C4D       10.0680    8.4400   34.0940 C.ar  500  HEM500      0.0000
     33  CMD       13.2690    6.9220   32.8340 C.3   500  HEM500      0.0000
     34  CAD       12.3900    8.6350   35.3760 C.3   500  HEM500      0.0000
     35  CBD       13.2180    9.8800   35.0680 C.3   500  HEM500      0.0000
     36  CGD       13.9690   10.4080   36.2810 C.2   500  HEM500      0.0000
     37  O1D       14.5450    9.5960   37.0340 O.co2 500  HEM500      0.0000
     38  O2D       13.9930   11.6430   36.4720 O.co2 500  HEM500      0.0000
     39  NA         7.1080    8.9720   33.9220 N.2   500  HEM500      0.0000
     40  NB         5.7670    8.2040   31.5510 N.ar  500  HEM500      0.0000
     41  NC         8.2630    7.3930   30.4340 N.2   500  HEM500      0.0000
     42  ND         9.5520    7.9200   32.9000 N.ar  500  HEM500      0.0000
     43 FE          7.6210    7.9230   32.2820 Fe    500  HEM500      0.0000
@<TRIPOS>BOND
     1    26    23    1
     2    28    27    2
     3    27    24    1
     4    21    20    2
     5    23    24    2
     6    23    22    1
     7    24    25    1
     8    20    17    1
     9     3    22    2
    10     3    18    1
    11    22    41    1
    12    25    41    2
    13    25     4    1
    14    17    18   ar
    15    17    16   ar
    16    18    40   ar
    17    41    43    1
    18     4    29    2
    19    16    19    1
    20    16    15   ar
    21    40    15   ar
    22    40    43    1
    23    15     2    1
    24    29    42   ar
    25    29    30   ar
    26    43    42    1
    27    43    39    1
    28    33    30    1
    29    42    32   ar
    30    30    31   ar
    31     2     8    2
    32    39     8    1
    33    39     5    2
    34    32    31   ar
    35    32     1    2
    36    31    34    1
    37     8     7    1
    38     5     1    1
    39     5     6    1
    40    35    34    1
    41    35    36    1
    42     7     6    2
    43     7     9    1
    44     6    10    1
    45    36    38   ar
    46    36    37   ar
    47    11    10    1
    48    11    12    1
    49    14    12   ar
    50    12    13   ar
