@<TRIPOS>MOLECULE
2g6p_HM2_A_1.pdb
 23 25 0 0 0
SMALL
GASTEIGER

@<TRIPOS>ATOM
      1  N1        22.0290   19.5340   11.4170 N.ar  410  HM2410     -0.2318
      2  N2        21.4760   19.2310   15.0800 N.2   410  HM2410     -0.3248
      3  N3        20.8520   20.8110   13.4480 N.2   410  HM2410     -0.3458
      4  N4        21.3220   19.4520   17.2330 N.pl3 410  HM2410     -0.2110
      5  C1        22.7090   18.8170   10.3050 C.ar  410  HM2410      0.0997
      6  C2        23.2950   17.6110   10.4890 C.ar  410  HM2410      0.0207
      7  C3        23.2620   16.9900   11.8510 C.ar  410  HM2410      0.0039
      8  C4        22.6620   17.6510   12.9130 C.ar  410  HM2410      0.0315
      9  C5        22.0560   18.8780   12.7340 C.ar  410  HM2410      0.1662
     10  C6        21.4230   19.6660   13.8260 C.1   410  HM2410      0.1567
     11  C7        20.9150   20.0850   16.0530 C.2   410  HM2410      0.2098
     12  C8        20.2840   21.6180   14.3460 C.2   410  HM2410      0.1225
     13  C9        20.3090   21.2710   15.7570 C.3   410  HM2410      0.1969
     14  C10       21.4910   18.0300   17.6200 C.3   410  HM2410      0.1193
     15  C11       20.2570   17.2690   18.0420 C.3   410  HM2410      0.0497
     16  C12       19.2750   17.2230   16.9230 C.ar  410  HM2410     -0.0204
     17  C13       19.4280   16.2820   15.8820 C.ar  410  HM2410     -0.0042
     18  C14       18.5010   16.2590   14.8480 C.ar  410  HM2410     -0.0003
     19  C15       17.4270   17.1130   14.7740 C.ar  410  HM2410     -0.0000
     20  C16       17.2890   18.0170   15.7830 C.ar  410  HM2410     -0.0003
     21  C17       18.1850   18.1090   16.8760 C.ar  410  HM2410     -0.0042
     22  C18       19.6420   22.8800   13.8860 C.3   410  HM2410      0.0643
     23 CL1        19.6220   22.3620   16.8860 Cl    410  HM2410     -0.0984
@<TRIPOS>BOND
     1     5     6   ar
     2     5     1   ar
     3     6     7   ar
     4     1     9   ar
     5     7     8   ar
     6     9     8   ar
     7     9    10    1
     8     3    10    2
     9     3    12    2
    10    10     2    2
    11    22    12    1
    12    12    13    1
    13    19    18   ar
    14    19    20   ar
    15    18    17   ar
    16     2    11    2
    17    13    11    1
    18    13    23    1
    19    20    21   ar
    20    17    16   ar
    21    11     4    1
    22    21    16   ar
    23    16    15    1
    24     4    14    1
    25    14    15    1
