@<TRIPOS>MOLECULE
2g6w_LLF_A_1.pdb
 20 20 0 0 0
SMALL
GASTEIGER

@<TRIPOS>ATOM
      1  CBF        8.7920   -3.0370   42.8490 C.3   436  LLF436      0.3398
      2  CAF        8.4490   -1.8460   41.9250 C.3   436  LLF436      0.1842
      3  F1         9.5740   -3.8710   41.9720 F     436  LLF436     -0.1964
      4  F2         9.6610   -2.5720   43.9430 F     436  LLF436     -0.1964
      5  NF         8.0050   -0.7720   42.7820 N.pl3 436  LLF436     -0.2305
      6  C4A        6.7530   -0.7170   42.3470 C.2   436  LLF436      0.0786
      7  C4         5.7820    0.0360   43.2190 C.2   436  LLF436      0.0291
      8  C3         6.1240    0.3960   44.5460 C.3   436  LLF436      0.2110
      9  O3         7.4460    0.0430   45.0740 O.3   436  LLF436     -0.2121
     10  C2         5.1820    1.1250   45.3120 C.2   436  LLF436      0.0714
     11  C2A        5.5020    1.5180   46.7230 C.3   436  LLF436      0.0503
     12  N1         3.9460    1.4420   44.7530 N.2   436  LLF436     -0.2499
     13  C5         4.5280    0.3950   42.6830 C.2   436  LLF436      0.0270
     14  C6         3.5910    1.1130   43.4600 C.2   436  LLF436      0.0961
     15  C5M        4.2580    0.0080   41.2620 C.3   436  LLF436      0.1816
     16  O4P        3.4480   -1.1250   40.8660 O.3   436  LLF436     -0.2653
     17  P          3.9610   -2.1160   39.7280 P.3   436  LLF436      0.5329
     18  OP1        2.9520   -3.1540   39.9300 O.3   436  LLF436     -0.1145
     19  OP2        3.8870   -1.5190   38.3850 O.2   436  LLF436     -0.2224
     20  OP3        5.2760   -2.7010   39.9950 O.3   436  LLF436     -0.1145
@<TRIPOS>BOND
     1    19    17    2
     2    17    18    1
     3    17    20    1
     4    17    16    1
     5    16    15    1
     6    15    13    1
     7     2     5    1
     8     2     1    1
     9     3     1    1
    10     6     5    1
    11     6     7    2
    12    13     7    1
    13    13    14    2
    14     1     4    1
    15     7     8    1
    16    14    12    1
    17     8     9    1
    18     8    10    1
    19    12    10    2
    20    10    11    1
