@<TRIPOS>MOLECULE
2g70_HNT_A_1.pdb
 15 16 0 0 0
SMALL
GASTEIGER

@<TRIPOS>ATOM
      1  C1        28.1360   45.6050   18.3040 C.3   5001  HNT5001     0.0461
      2  C2        27.7780   44.8180   19.5660 C.3   5001  HNT5001     0.1104
      3  O2        26.3510   41.2810   13.7810 O.2   5001  HNT5001    -0.1261
      4  C4        27.6300   42.6390   18.4790 C.3   5001  HNT5001     0.1148
      5  C5        27.0770   42.7130   16.0320 C.ar  5001  HNT5001     0.0209
      6  C6        26.9060   43.3660   14.8170 C.ar  5001  HNT5001     0.1426
      7  C7        27.1300   44.7380   14.7430 C.ar  5001  HNT5001     0.0237
      8  C8        27.5270   45.4440   15.8750 C.ar  5001  HNT5001    -0.0028
      9  O22       27.6070   45.0230   21.9680 O.3   5001  HNT5001    -0.2189
     10  C22       28.2660   45.5540   20.8160 C.3   5001  HNT5001     0.1997
     11  C8A       27.7000   44.7860   17.0870 C.ar  5001  HNT5001    -0.0232
     12  N1        26.5910   42.6800   13.7180 N.pl3 5001  HNT5001     0.0577
     13  O3        26.4880   43.3420   12.4650 O.2   5001  HNT5001    -0.1261
     14  C4A       27.4730   43.4150   17.1690 C.ar  5001  HNT5001    -0.0071
     15  N41       28.3270   43.4550   19.4880 N.3   5001  HNT5001    -0.2117
@<TRIPOS>BOND
     1    13    12    2
     2    12     3    2
     3    12     6    1
     4     7     6   ar
     5     7     8   ar
     6     6     5   ar
     7     8    11   ar
     8     5    14   ar
     9    11    14   ar
    10    11     1    1
    11    14     4    1
    12     1     2    1
    13     4    15    1
    14    15     2    1
    15     2    10    1
    16    10     9    1
