@<TRIPOS>MOLECULE
2g70_SAM_A_1.pdb
 27 29 0 0 0
SMALL
GASTEIGER

@<TRIPOS>ATOM
      1  N         25.8810   52.4820   17.4090 N.3   2001  SAM2001    -0.1208
      2  CA        27.0160   51.7730   16.8330 C.3   2001  SAM2001     0.1952
      3  C         26.5960   50.5340   16.0170 C.2   2001  SAM2001     0.3819
      4  O         25.4030   50.4520   15.6370 O.co2 2001  SAM2001    -0.2441
      5  OXT       27.4630   49.6770   15.7320 O.co2 2001  SAM2001    -0.2441
      6  CB        28.0480   51.4330   17.9420 C.3   2001  SAM2001     0.0414
      7  CG        27.5220   50.7250   19.2040 C.3   2001  SAM2001     0.0503
      8  SD        28.8420   50.4150   20.4710 S.3   2001  SAM2001    -0.1761
      9  CE        29.0470   48.6790   20.7190 C.3   2001  SAM2001     0.0590
     10  C5'       28.4310   51.2060   22.1050 C.3   2001  SAM2001     0.0806
     11  C4'       28.6450   52.7070   22.1720 C.3   2001  SAM2001     0.1622
     12  O4'       28.1960   53.2890   23.4260 O.3   2001  SAM2001    -0.3153
     13  C3'       30.1100   53.1130   21.9980 C.3   2001  SAM2001     0.2168
     14  O3'       30.2410   54.0360   20.9230 O.3   2001  SAM2001    -0.2175
     15  C2'       30.4750   53.7320   23.3470 C.3   2001  SAM2001     0.2569
     16  O2'       31.4230   54.7770   23.2690 O.3   2001  SAM2001    -0.2130
     17  C1'       29.1280   54.2740   23.8190 C.3   2001  SAM2001     0.3185
     18  N9        29.0300   54.4930   25.2670 N.pl3 2001  SAM2001    -0.1439
     19  C8        29.9680   54.1460   26.2890 C.3   2001  SAM2001     0.3377
     20  N7        29.5890   54.5170   27.4890 N.2   2001  SAM2001    -0.2095
     21  C5        28.3600   55.1240   27.2660 C.2   2001  SAM2001     0.2526
     22  C6        27.4800   55.7240   28.2000 C.2   2001  SAM2001     0.4393
     23  N6        27.7250   55.7980   29.5090 N.pl3 2001  SAM2001     0.2180
     24  N1        26.3190   56.2550   27.7170 N.2   2001  SAM2001     0.0021
     25  C2        26.0800   56.1790   26.3810 C.3   2001  SAM2001     0.5254
     26  N3        26.8510   55.6330   25.4100 N.2   2001  SAM2001    -0.0055
     27  C4        27.9930   55.1160   25.9270 C.2   2001  SAM2001     0.3518
@<TRIPOS>BOND
     1     4     3   ar
     2     5     3   ar
     3     3     2    1
     4     2     1    1
     5     2     6    1
     6     6     7    1
     7     7     8    1
     8     8     9    1
     9     8    10    1
    10    14    13    1
    11    13    11    1
    12    13    15    1
    13    10    11    1
    14    11    12    1
    15    16    15    1
    16    15    17    1
    17    12    17    1
    18    17    18    1
    19    18    27    1
    20    18    19    1
    21    26    27    2
    22    26    25    1
    23    27    21    1
    24    19    20    1
    25    25    24    1
    26    21    20    2
    27    21    22    1
    28    24    22    2
    29    22    23    1
