@<TRIPOS>MOLECULE
2g71_SAH_A_1.pdb
 26 28 0 0 0
SMALL
GASTEIGER

@<TRIPOS>ATOM
      1  N         26.7960   52.7570   18.2220 N.3   2001  SAH2001    -0.1208
      2  CA        27.9750   52.2680   17.5190 C.3   2001  SAH2001     0.1952
      3  CB        29.1210   52.0320   18.5230 C.3   2001  SAH2001     0.0422
      4  CG        28.8090   51.0750   19.6730 C.3   2001  SAH2001     0.0597
      5  SD        30.3040   50.6570   20.5870 S.3   2001  SAH2001    -0.1375
      6  C         27.6600   51.0060   16.7030 C.2   2001  SAH2001     0.3819
      7  O         26.4670   50.7880   16.4070 O.co2 2001  SAH2001    -0.2441
      8  OXT       28.5980   50.2670   16.3420 O.co2 2001  SAH2001    -0.2441
      9  C5'       29.9070   51.3450   22.2210 C.3   2001  SAH2001     0.0899
     10  C4'       30.1530   52.8360   22.2850 C.3   2001  SAH2001     0.1630
     11  O4'       29.7250   53.3980   23.5590 O.3   2001  SAH2001    -0.3153
     12  C3'       31.5940   53.2970   22.0680 C.3   2001  SAH2001     0.2168
     13  O3'       31.6530   54.2760   21.0360 O.3   2001  SAH2001    -0.2175
     14  C2'       32.0020   53.8330   23.4390 C.3   2001  SAH2001     0.2569
     15  O2'       32.9720   54.8610   23.4010 O.3   2001  SAH2001    -0.2130
     16  C1'       30.6690   54.3630   23.9630 C.3   2001  SAH2001     0.3185
     17  N9        30.5890   54.5460   25.4140 N.pl3 2001  SAH2001    -0.1439
     18  C8        31.4450   54.0360   26.4300 C.3   2001  SAH2001     0.3377
     19  N7        31.1050   54.4230   27.6360 N.2   2001  SAH2001    -0.2095
     20  C5        29.9810   55.2060   27.4160 C.2   2001  SAH2001     0.2526
     21  C6        29.1840   55.9030   28.3560 C.2   2001  SAH2001     0.4393
     22  N6        29.4050   55.8940   29.6750 N.pl3 2001  SAH2001     0.2180
     23  N1        28.1320   56.6240   27.8710 N.2   2001  SAH2001     0.0021
     24  C2        27.9120   56.6270   26.5260 C.3   2001  SAH2001     0.5254
     25  N3        28.6110   55.9950   25.5520 N.2   2001  SAH2001    -0.0055
     26  C4        29.6450   55.2940   26.0750 C.2   2001  SAH2001     0.3518
@<TRIPOS>BOND
     1     8     6   ar
     2     7     6   ar
     3     6     2    1
     4     2     1    1
     5     2     3    1
     6     3     4    1
     7     4     5    1
     8     5     9    1
     9    13    12    1
    10    12    10    1
    11    12    14    1
    12     9    10    1
    13    10    11    1
    14    15    14    1
    15    14    16    1
    16    11    16    1
    17    16    17    1
    18    17    26    1
    19    17    18    1
    20    25    26    2
    21    25    24    1
    22    26    20    1
    23    18    19    1
    24    24    23    1
    25    20    19    2
    26    20    21    1
    27    23    21    2
    28    21    22    1
