@<TRIPOS>MOLECULE
2g71_FTS_A_1.pdb
 22 23 0 0 0
SMALL
GASTEIGER

@<TRIPOS>ATOM
      1  C7        28.0050   43.2620   16.7460 C.ar  3001  FTS3001     0.0168
      2  C8        28.5970   43.7970   17.8890 C.ar  3001  FTS3001    -0.0074
      3  C1        28.8530   42.9050   19.1070 C.3   3001  FTS3001     0.1148
      4  N1        29.7420   43.5700   20.0600 N.3   3001  FTS3001    -0.2115
      5  C2        29.2360   44.9090   20.4020 C.3   3001  FTS3001     0.1128
      6  C10       29.8960   45.4340   21.6800 C.3   3001  FTS3001     0.2108
      7  F4        29.3460   46.6000   22.0480 F     3001  FTS3001    -0.2328
      8  C3        29.5340   45.7790   19.1780 C.3   3001  FTS3001     0.0463
      9  C9        28.9140   45.1530   17.9280 C.ar  3001  FTS3001    -0.0232
     10  C4        28.6350   45.9520   16.8230 C.ar  3001  FTS3001    -0.0031
     11  C5        28.0440   45.4240   15.6800 C.ar  3001  FTS3001     0.0196
     12  C6        27.7300   44.0670   15.6450 C.ar  3001  FTS3001     0.1233
     13  S1        26.9860   43.3480   14.2190 S.O2  3001  FTS3001     0.0768
     14  O1        25.6500   42.9830   14.6130 O.2   3001  FTS3001    -0.1516
     15  O2        27.8700   42.3030   13.7680 O.2   3001  FTS3001    -0.1516
     16  N2        26.8340   44.4240   13.0250 N.3   3001  FTS3001    -0.0775
     17  C11       27.9740   44.6230   12.1160 C.3   3001  FTS3001     0.1242
     18  C12       27.7140   44.2790   10.6630 C.3   3001  FTS3001     0.1241
     19  C13       27.0420   45.2940    9.7870 C.3   3001  FTS3001     0.3992
     20  F1        27.0200   44.9920    8.4790 F     3001  FTS3001    -0.1700
     21  F2        27.6450   46.4890    9.8000 F     3001  FTS3001    -0.1700
     22  F3        25.7740   45.5770   10.1170 F     3001  FTS3001    -0.1700
@<TRIPOS>BOND
     1    20    19    1
     2    19    21    1
     3    19    22    1
     4    19    18    1
     5    18    17    1
     6    17    16    1
     7    16    13    1
     8    15    13    2
     9    13    14    2
    10    13    12    1
    11    12    11   ar
    12    12     1   ar
    13    11    10   ar
    14     1     2   ar
    15    10     9   ar
    16     2     9   ar
    17     2     3    1
    18     9     8    1
    19     3     4    1
    20     8     5    1
    21     4     5    1
    22     5     6    1
    23     6     7    1
