@<TRIPOS>MOLECULE
2g72_F21_A_1.pdb
 21 23 0 0 0
SMALL
GASTEIGER

@<TRIPOS>ATOM
      1  C12       25.4190   45.1080   12.8050 C.3   4001  F214001     0.1074
      2  C13       24.7240   45.4900   11.4930 C.3   4001  F214001     0.0767
      3  S2        25.9940   46.0790   10.3160 S.3   4001  F214001    -0.1372
      4  C15       27.3250   44.8260   10.3970 C.3   4001  F214001     0.0767
      5  C14       27.6210   44.5470   11.8750 C.3   4001  F214001     0.1074
      6  N1        26.3920   44.0430   12.5110 N.3   4001  F214001    -0.1537
      7  S1        26.7330   43.1380   13.8220 S.O2  4001  F214001     0.0633
      8  O2        25.5190   42.4960   14.2160 O.2   4001  F214001    -0.1528
      9  O1        27.7170   42.0840   13.4090 O.2   4001  F214001    -0.1528
     10  C7        27.4210   43.9450   15.2130 C.ar  4001  F214001     0.1219
     11  C8        27.7660   43.1620   16.3120 C.ar  4001  F214001     0.0167
     12  C9        28.3510   43.7290   17.4410 C.ar  4001  F214001    -0.0074
     13  C1        28.5980   42.8650   18.6840 C.3   4001  F214001     0.1148
     14  N2        29.4230   43.5410   19.7010 N.3   4001  F214001    -0.2115
     15  C3        29.0200   44.9410   19.9030 C.3   4001  F214001     0.1128
     16  C11       29.7940   45.5770   21.0600 C.3   4001  F214001     0.2108
     17  F1        29.1530   45.2880   22.2540 F     4001  F214001    -0.2328
     18  C4        29.3000   45.7550   18.6390 C.3   4001  F214001     0.0463
     19  C10       28.5990   45.1000   17.4480 C.ar  4001  F214001    -0.0232
     20  C5        28.2490   45.8870   16.3540 C.ar  4001  F214001    -0.0031
     21  C6        27.6570   45.3150   15.2330 C.ar  4001  F214001     0.0196
@<TRIPOS>BOND
     1     3     4    1
     2     3     2    1
     3     4     5    1
     4     2     1    1
     5     5     6    1
     6     6     1    1
     7     6     7    1
     8     9     7    2
     9     7     8    2
    10     7    10    1
    11    10    21   ar
    12    10    11   ar
    13    21    20   ar
    14    11    12   ar
    15    20    19   ar
    16    12    19   ar
    17    12    13    1
    18    19    18    1
    19    18    15    1
    20    13    14    1
    21    14    15    1
    22    15    16    1
    23    16    17    1
