@<TRIPOS>MOLECULE
2g72_SAM_A_1.pdb
 27 29 0 0 0
SMALL
GASTEIGER

@<TRIPOS>ATOM
      1  N         26.4310   52.6510   18.1750 N.3   2001  SAM2001    -0.1208
      2  CA        27.6580   52.1680   17.5660 C.3   2001  SAM2001     0.1952
      3  C         27.3960   50.8970   16.7560 C.2   2001  SAM2001     0.3819
      4  O         26.2160   50.6750   16.4010 O.co2 2001  SAM2001    -0.2441
      5  OXT       28.3560   50.1620   16.4490 O.co2 2001  SAM2001    -0.2441
      6  CB        28.7540   51.9620   18.6400 C.3   2001  SAM2001     0.0414
      7  CG        28.4640   50.9350   19.7520 C.3   2001  SAM2001     0.0503
      8  SD        29.9470   50.6070   20.8010 S.3   2001  SAM2001    -0.1761
      9  CE        30.1830   48.8450   20.9830 C.3   2001  SAM2001     0.0590
     10  C5'       29.7000   51.3280   22.4890 C.3   2001  SAM2001     0.0806
     11  C4'       29.8030   52.8390   22.5080 C.3   2001  SAM2001     0.1622
     12  O4'       29.4040   53.4070   23.7870 O.3   2001  SAM2001    -0.3153
     13  C3'       31.2360   53.2950   22.2540 C.3   2001  SAM2001     0.2168
     14  O3'       31.2690   54.2570   21.2080 O.3   2001  SAM2001    -0.2175
     15  C2'       31.6720   53.8580   23.6040 C.3   2001  SAM2001     0.2569
     16  O2'       32.6330   54.8790   23.5010 O.3   2001  SAM2001    -0.2130
     17  C1'       30.3520   54.3860   24.1610 C.3   2001  SAM2001     0.3185
     18  N9        30.3070   54.5620   25.6190 N.pl3 2001  SAM2001    -0.1439
     19  C8        31.2280   54.0980   26.6030 C.3   2001  SAM2001     0.3377
     20  N7        30.9050   54.4520   27.8220 N.2   2001  SAM2001    -0.2095
     21  C5        29.7280   55.1630   27.6500 C.2   2001  SAM2001     0.2526
     22  C6        28.9200   55.7930   28.6260 C.2   2001  SAM2001     0.4393
     23  N6        29.1860   55.7830   29.9340 N.pl3 2001  SAM2001     0.2180
     24  N1        27.8050   56.4440   28.1870 N.2   2001  SAM2001     0.0021
     25  C2        27.5430   56.4530   26.8500 C.3   2001  SAM2001     0.5254
     26  N3        28.2490   55.8840   25.8450 N.2   2001  SAM2001    -0.0055
     27  C4        29.3430   55.2450   26.3230 C.2   2001  SAM2001     0.3518
@<TRIPOS>BOND
     1     4     3   ar
     2     5     3   ar
     3     3     2    1
     4     2     1    1
     5     2     6    1
     6     6     7    1
     7     7     8    1
     8     8     9    1
     9     8    10    1
    10    14    13    1
    11    13    11    1
    12    13    15    1
    13    10    11    1
    14    11    12    1
    15    16    15    1
    16    15    17    1
    17    12    17    1
    18    17    18    1
    19    18    27    1
    20    18    19    1
    21    26    27    2
    22    26    25    1
    23    27    21    1
    24    19    20    1
    25    25    24    1
    26    21    20    2
    27    21    22    1
    28    24    22    2
    29    22    23    1
