@<TRIPOS>MOLECULE
2g73_EIP_A_1.pdb
 15 14 0 0 0
SMALL
GASTEIGER

@<TRIPOS>ATOM
      1  O1        10.6670    2.0310   12.4870 O.3   186  EIP186     -0.1143
      2  O2        11.0060    2.3250   10.2180 O.2   186  EIP186     -0.2221
      3  O3         8.8080    1.9690   10.9840 O.3   186  EIP186     -0.1143
      4  P4        10.1470    2.6310   11.2090 P.3   186  EIP186      0.5373
      5  O5         9.9310    4.1310   11.4000 O.3   186  EIP186     -0.2261
      6  O6        11.3660    6.0070   11.9580 O.2   186  EIP186     -0.5169
      7  O7        11.3820    4.0560   13.3080 O.3   186  EIP186     -0.4370
      8  P8        10.6050    5.0160   12.4540 P.3   186  EIP186      0.2230
      9  O9         9.4840    5.5400   13.3560 O.3   186  EIP186     -0.3138
     10  C10        8.7660    6.6080   12.7190 C.3   186  EIP186      0.1492
     11  C11        7.7960    7.3740   13.6140 C.3   186  EIP186      0.0351
     12  C12        8.1460    8.8870   13.6510 C.3   186  EIP186      0.0355
     13  C13        9.4450    9.1000   12.8380 C.3   186  EIP186      0.1821
     14  C14        8.4940    9.2270   15.1260 C.3   186  EIP186      0.0028
     15  O15       10.2260   10.1120   13.4780 O.3   186  EIP186     -0.2204
@<TRIPOS>BOND
     1     2     4    2
     2     3     4    1
     3     4     5    1
     4     4     1    1
     5     5     8    1
     6     6     8    2
     7     8     7    1
     8     8     9    1
     9    10     9    1
    10    10    11    1
    11    13    15    1
    12    13    12    1
    13    11    12    1
    14    12    14    1
