@<TRIPOS>MOLECULE
2g76_NAD_A_1.pdb
 44 48 0 0 0
SMALL
GASTEIGER

@<TRIPOS>ATOM
      1  PA        12.1460   33.0660    0.4670 P.3   501  NAD501      0.2189
      2  O1A       11.8530   33.9860   -0.6720 O.2   501  NAD501     -0.5170
      3  O2A       12.8200   33.6390    1.6330 O.3   501  NAD501     -0.4371
      4  O5B       12.9950   31.8090   -0.0480 O.3   501  NAD501     -0.3112
      5  C5B       12.6040   31.1160   -1.2050 C.3   501  NAD501      0.1813
      6  C4B       13.8200   30.4800   -1.8030 C.3   501  NAD501      0.1821
      7  O4B       13.3790   29.5570   -2.7710 O.3   501  NAD501     -0.3135
      8  C3B       14.7640   31.4980   -2.4520 C.3   501  NAD501      0.2184
      9  O3B       16.0180   31.5470   -1.7510 O.3   501  NAD501     -0.2174
     10  C2B       14.8580   31.0220   -3.8910 C.3   501  NAD501      0.2570
     11  O2B       16.1340   31.1740   -4.5210 O.3   501  NAD501     -0.2130
     12  C1B       14.4390   29.5670   -3.7200 C.3   501  NAD501      0.3186
     13  N9A       14.1480   28.9280   -4.9840 N.pl3 501  NAD501     -0.1439
     14  C8A       13.5590   29.4610   -6.0910 C.3   501  NAD501      0.3377
     15  N7A       13.5230   28.4890   -7.0210 N.2   501  NAD501     -0.2095
     16  C5A       14.0900   27.3670   -6.5420 C.2   501  NAD501      0.2526
     17  C6A       14.3270   26.1100   -7.0820 C.2   501  NAD501      0.4393
     18  N6A       13.9630   25.8080   -8.3260 N.pl3 501  NAD501      0.2180
     19  N1A       14.9130   25.1470   -6.2980 N.2   501  NAD501      0.0021
     20  C2A       15.3190   25.4370   -5.0170 C.3   501  NAD501      0.5254
     21  N3A       15.0890   26.6810   -4.5050 N.2   501  NAD501     -0.0055
     22  C4A       14.4710   27.6290   -5.2480 C.2   501  NAD501      0.3518
     23  O3        10.7040   32.4560    0.8330 O.3   501  NAD501     -0.2703
     24  PN        10.2310   31.8820    2.2670 P.3   501  NAD501      0.2189
     25  O1N        9.7460   32.9940    3.0930 O.3   501  NAD501     -0.4371
     26  O2N       11.2770   30.9650    2.7660 O.2   501  NAD501     -0.5170
     27  O5D        8.9470   31.0560    1.7870 O.3   501  NAD501     -0.3112
     28  C5D        9.0440   29.7390    1.2780 C.3   501  NAD501      0.1813
     29  C4D        7.6900   29.2470    0.7620 C.3   501  NAD501      0.1799
     30  O4D        6.8200   29.0110    1.8670 O.3   501  NAD501     -0.3327
     31  C3D        6.9370   30.2090   -0.1400 C.3   501  NAD501      0.2158
     32  O3D        6.2340   29.4570   -1.0880 O.3   501  NAD501     -0.2175
     33  C2D        5.9550   30.9080    0.7910 C.3   501  NAD501      0.2309
     34  O2D        4.8260   31.4440    0.1160 O.3   501  NAD501     -0.2158
     35  C1D        5.5810   29.7180    1.6600 C.3   501  NAD501      0.2263
     36  N1N        4.9230   30.0120    2.9460 N.pl3 501  NAD501     -0.2787
     37  C2N        3.9260   29.1460    3.3080 C.3   501  NAD501      0.1244
     38  C3N        3.2720   29.3050    4.4990 C.2   501  NAD501      0.0544
     39  C7N        2.1690   28.3650    4.8640 C.2   501  NAD501      0.2818
     40  O7N        1.2010   28.9100    5.6560 O.2   501  NAD501     -0.2670
     41  N7N        2.1290   27.0700    4.5410 N.am  501  NAD501     -0.0839
     42  C4N        3.6530   30.3520    5.3380 C.2   501  NAD501      0.0033
     43  C5N        4.7160   31.2010    4.9830 C.2   501  NAD501      0.0157
     44  C6N        5.3600   31.0050    3.7750 C.2   501  NAD501      0.0633
@<TRIPOS>BOND
     1    18    17    1
     2    17    16    1
     3    17    19    2
     4    15    16    2
     5    15    14    1
     6    16    22    1
     7    19    20    1
     8    14    13    1
     9    22    13    1
    10    22    21    2
    11    20    21    1
    12    13    12    1
    13    11    10    1
    14    10    12    1
    15    10     8    1
    16    12     7    1
    17     7     6    1
    18     8     6    1
    19     8     9    1
    20     6     5    1
    21     5     4    1
    22    32    31    1
    23     2     1    2
    24    31    29    1
    25    31    33    1
    26     4     1    1
    27    34    33    1
    28     1    23    1
    29     1     3    1
    30    29    28    1
    31    29    30    1
    32    33    35    1
    33    23    24    1
    34    28    27    1
    35    35    30    1
    36    35    36    1
    37    27    24    1
    38    24    26    2
    39    24    25    1
    40    36    37    1
    41    36    44    1
    42    37    38    1
    43    44    43    2
    44    38    39    1
    45    38    42    2
    46    41    39   am
    47    39    40    2
    48    43    42    1
