@<TRIPOS>MOLECULE
2g77_GDP_B_1.pdb
 28 30 0 0 0
SMALL
GASTEIGER

@<TRIPOS>ATOM
      1  PB        21.2270   33.5440   22.6050 P.3   501  GDP501      0.5373
      2  O1B       22.1260   33.3430   23.8170 O.3   501  GDP501     -0.1143
      3  O2B       21.9430   33.0290   21.3950 O.2   501  GDP501     -0.2221
      4  O3B       19.8610   33.0100   22.6720 O.3   501  GDP501     -0.1143
      5  O3A       21.0350   35.1530   22.5240 O.3   501  GDP501     -0.2261
      6  PA        19.6080   35.8360   22.5960 P.3   501  GDP501      0.2231
      7  O1A       19.0200   35.7290   23.9850 O.3   501  GDP501     -0.4370
      8  O2A       18.5640   35.3620   21.6440 O.2   501  GDP501     -0.5169
      9  O5'       19.9840   37.3560   22.2880 O.3   501  GDP501     -0.3111
     10  C5'       21.0840   37.9430   22.9950 C.3   501  GDP501      0.1813
     11  C4'       21.0750   39.4700   22.8470 C.3   501  GDP501      0.1799
     12  O4'       21.2410   39.8770   21.4520 O.3   501  GDP501     -0.3326
     13  C3'       19.7120   39.9800   23.2910 C.3   501  GDP501      0.2158
     14  O3'       19.8800   41.2560   23.9300 O.3   501  GDP501     -0.2175
     15  C2'       18.9370   40.1760   22.0010 C.3   501  GDP501      0.2310
     16  O2'       18.0160   41.2670   22.0900 O.3   501  GDP501     -0.2158
     17  C1'       20.0400   40.5550   21.0300 C.3   501  GDP501      0.2293
     18  N9        19.7520   40.2390   19.6220 N.pl3 501  GDP501     -0.2354
     19  C8        19.3320   39.1160   19.0810 C.3   501  GDP501      0.2246
     20  N7        19.2010   39.2730   17.7340 N.2   501  GDP501     -0.2322
     21  C5        19.5270   40.5430   17.4040 C.2   501  GDP501      0.2182
     22  C6        19.6350   41.3660   16.1550 C.1   501  GDP501      0.2372
     23  O6        19.3890   40.9120   15.0030 O.2   501  GDP501     -0.2069
     24  N1        20.0380   42.6200   16.2910 N.2   501  GDP501     -0.2485
     25  C2        20.3400   43.1720   17.4610 C.1   501  GDP501      0.2531
     26  N2        20.7550   44.4490   17.4650 N.pl3 501  GDP501     -0.0226
     27  N3        20.2980   42.4720   18.6350 N.2   501  GDP501     -0.3074
     28  C4        19.9010   41.1650   18.6550 C.2   501  GDP501      0.2300
@<TRIPOS>BOND
     1    23    22    2
     2    22    24    2
     3    22    21    1
     4    24    25    2
     5    21    20    2
     6    21    28    1
     7    25    26    1
     8    25    27    2
     9    20    19    1
    10    27    28    2
    11    28    18    1
    12    19    18    1
    13    18    17    1
    14    17    12    1
    15    17    15    1
    16     3     1    2
    17    12    11    1
    18     8     6    2
    19    15    16    1
    20    15    13    1
    21     9     6    1
    22     9    10    1
    23     5     6    1
    24     5     1    1
    25     6     7    1
    26     1     4    1
    27     1     2    1
    28    11    10    1
    29    11    13    1
    30    13    14    1
