@<TRIPOS>MOLECULE
2g78_REA_A_1.pdb
 22 22 0 0 0
SMALL
GASTEIGER

@<TRIPOS>ATOM
      1  C1        21.6270   29.3960   16.5110 C.3   200  REA200      0.0183
      2  C2        20.5360   30.0740   15.6790 C.3   200  REA200      0.0044
      3  C3        19.8510   29.1120   14.7310 C.3   200  REA200      0.0047
      4  C4        19.1600   27.9620   15.4160 C.3   200  REA200      0.0217
      5  C5        20.0480   27.3390   16.4260 C.2   200  REA200     -0.0479
      6  C6        21.1140   28.0640   16.9900 C.2   200  REA200     -0.0307
      7  C7        21.9100   27.5430   18.0670 C.2   200  REA200     -0.0052
      8  C8        21.2650   26.8470   19.1450 C.2   200  REA200     -0.0049
      9  C9        22.1110   26.1800   20.0880 C.2   200  REA200     -0.0261
     10  C10       21.4310   25.2640   20.9460 C.2   200  REA200     -0.0300
     11  C11       22.1430   24.7110   22.0350 C.3   200  REA200      0.0300
     12  C12       21.3270   23.7670   22.7880 C.3   200  REA200      0.0269
     13  C13       21.9120   23.0970   23.9240 C.2   200  REA200     -0.0370
     14  C14       21.0020   22.2940   24.6310 C.2   200  REA200      0.0777
     15  C15       21.4340   21.5600   25.8120 C.2   200  REA200      0.3873
     16  C16       22.0600   30.2480   17.7000 C.3   200  REA200      0.0043
     17  C17       22.8920   29.1420   15.6960 C.3   200  REA200      0.0043
     18  C18       19.7050   25.9520   16.8200 C.3   200  REA200      0.0260
     19  C19       23.5870   26.3550   20.2110 C.3   200  REA200      0.0307
     20  C20       23.3450   23.2190   24.3400 C.3   200  REA200      0.0266
     21  O1        22.4630   20.8280   25.7930 O.co2 200  REA200     -0.2406
     22  O2        20.7930   21.7510   26.8620 O.co2 200  REA200     -0.2406
@<TRIPOS>BOND
     1     3     4    1
     2     3     2    1
     3     4     5    1
     4     2     1    1
     5    17     1    1
     6     5    18    1
     7     5     6    2
     8     1     6    1
     9     1    16    1
    10     6     7    1
    11     7     8    2
    12     8     9    1
    13     9    19    1
    14     9    10    2
    15    10    11    1
    16    11    12    1
    17    12    13    1
    18    13    20    1
    19    13    14    2
    20    14    15    1
    21    21    15   ar
    22    15    22   ar
