@<TRIPOS>MOLECULE
2g79_RET_A_1.pdb
 21 21 0 0 0
SMALL
GASTEIGER

@<TRIPOS>ATOM
      1  C1        21.7940    6.4900  -21.2990 C.3   200  RET200      0.0183
      2  C2        21.0390    7.2510  -22.3780 C.3   200  RET200      0.0044
      3  C3        20.3520    6.2920  -23.3370 C.3   200  RET200      0.0047
      4  C4        19.2600    5.6010  -22.5430 C.3   200  RET200      0.0217
      5  C5        19.8760    4.8340  -21.4040 C.2   200  RET200     -0.0479
      6  C6        21.0430    5.2370  -20.8310 C.2   200  RET200     -0.0307
      7  C7        21.6810    4.5570  -19.6790 C.2   200  RET200     -0.0052
      8  C8        21.0940    3.6690  -18.8940 C.2   200  RET200     -0.0046
      9  C9        21.7880    3.0910  -17.7450 C.2   200  RET200     -0.0219
     10  C10       21.0710    2.2090  -17.0310 C.2   200  RET200     -0.0043
     11  C11       21.5700    1.5290  -15.8630 C.2   200  RET200     -0.0006
     12  C12       20.7260    0.6830  -15.2670 C.2   200  RET200     -0.0042
     13  C13       21.1190   -0.0760  -14.0590 C.2   200  RET200     -0.0186
     14  C14       20.1720   -0.8200  -13.4680 C.2   200  RET200      0.0411
     15  C15       20.3660   -1.6310  -12.2650 C.2   200  RET200      0.2339
     16  O1        21.4350   -1.7540  -11.6910 O.2   200  RET200     -0.2832
     17  C16       22.0030    7.4310  -20.1130 C.3   200  RET200      0.0043
     18  C17       23.1720    6.1210  -21.8420 C.3   200  RET200      0.0043
     19  C18       19.0820    3.6230  -20.9990 C.3   200  RET200      0.0260
     20  C19       23.2240    3.4340  -17.4100 C.3   200  RET200      0.0310
     21  C20       22.5260   -0.0350  -13.5200 C.3   200  RET200      0.0311
@<TRIPOS>BOND
     1     3     4    1
     2     3     2    1
     3     4     5    1
     4     2     1    1
     5    18     1    1
     6     5    19    1
     7     5     6    2
     8     1     6    1
     9     1    17    1
    10     6     7    1
    11     7     8    2
    12     8     9    1
    13     9    20    1
    14     9    10    2
    15    10    11    1
    16    11    12    2
    17    12    13    1
    18    13    21    1
    19    13    14    2
    20    14    15    1
    21    15    16    2
