@<TRIPOS>MOLECULE
2g7b_AZE_A_1.pdb
 20 20 0 0 0
SMALL
GASTEIGER

@<TRIPOS>ATOM
      1  C1       -22.3800    5.3450   22.8790 C.3   138  AZE138      0.0183
      2  C2       -21.7350    6.1470   24.0080 C.3   138  AZE138      0.0044
      3  C3       -21.1820    5.2130   25.0740 C.3   138  AZE138      0.0047
      4  C4       -20.1300    4.3220   24.4870 C.3   138  AZE138      0.0217
      5  C5       -20.4980    3.7090   23.1680 C.2   138  AZE138     -0.0479
      6  C6       -21.5440    4.2050   22.4370 C.2   138  AZE138     -0.0307
      7  C7       -21.8510    3.7380   21.0880 C.2   138  AZE138     -0.0052
      8  C8       -21.6800    2.5590   20.5970 C.2   138  AZE138     -0.0046
      9  C9       -22.0550    2.2480   19.2330 C.2   138  AZE138     -0.0219
     10  C10      -21.7540    1.0460   18.7740 C.2   138  AZE138     -0.0043
     11  C11      -22.0380    0.5940   17.4300 C.2   138  AZE138     -0.0007
     12  C12      -21.7980   -0.6940   17.1190 C.2   138  AZE138     -0.0046
     13  C13      -22.0410   -1.2430   15.8130 C.2   138  AZE138     -0.0261
     14  C14      -21.8700   -2.5670   15.6210 C.2   138  AZE138     -0.0300
     15  C15      -22.0770   -3.1860   14.3290 C.3   138  AZE138      0.0304
     16  C16      -22.6810    6.3240   21.7480 C.3   138  AZE138      0.0043
     17  C17      -23.7430    4.8120   23.2570 C.3   138  AZE138      0.0043
     18  C18      -19.5500    2.6490   22.6940 C.3   138  AZE138      0.0260
     19  C19      -22.6510    3.2840   18.3350 C.3   138  AZE138      0.0310
     20  C20      -22.3830   -0.3380   14.6840 C.3   138  AZE138      0.0307
@<TRIPOS>BOND
     1    15    14    1
     2    20    13    1
     3    14    13    2
     4    13    12    1
     5    12    11    2
     6    11    10    1
     7    19     9    1
     8    10     9    2
     9     9     8    1
    10     8     7    2
    11     7     6    1
    12    16     1    1
    13     6     1    1
    14     6     5    2
    15    18     5    1
    16     1    17    1
    17     1     2    1
    18     5     4    1
    19     2     3    1
    20     4     3    1
