@<TRIPOS>MOLECULE
2g7c_GAL_A_1.pdb
 11 11 0 0 0
SMALL
GASTEIGER

@<TRIPOS>ATOM
      1  C1        17.0630   33.6330   42.5690 C.3     2  GAL2        0.1777
      2  C2        16.2960   34.5210   43.5650 C.3     2  GAL2        0.2141
      3  C3        15.3350   35.5270   42.9110 C.3     2  GAL2        0.2173
      4  C4        16.0160   36.2130   41.7250 C.3     2  GAL2        0.2142
      5  C5        16.5870   35.1580   40.7880 C.3     2  GAL2        0.1810
      6  C6        17.2400   35.7670   39.5610 C.3     2  GAL2        0.2141
      7  O2        15.5500   33.7050   44.4480 O.3     2  GAL2       -0.2176
      8  O3        14.9750   36.5050   43.9150 O.3     2  GAL2       -0.2175
      9  O4        17.0750   37.0230   42.2000 O.3     2  GAL2       -0.2176
     10  O5        17.6010   34.4150   41.4870 O.3     2  GAL2       -0.3481
     11  O6        17.4390   34.7910   38.5440 O.3     2  GAL2       -0.2176
@<TRIPOS>BOND
     1    11     6    1
     2     6     5    1
     3     5    10    1
     4     5     4    1
     5    10     1    1
     6     4     9    1
     7     4     3    1
     8     1     2    1
     9     3     2    1
    10     3     8    1
    11     2     7    1
