@<TRIPOS>MOLECULE
2g7c_GLA_A_1.pdb
 11 11 0 0 0
SMALL
GASTEIGER

@<TRIPOS>ATOM
      1  C1        14.0870   37.5340   43.5710 C.3     1  GLA1        0.1777
      2  C2        14.1200   38.6190   44.6600 C.3     1  GLA1        0.2141
      3  C3        13.5000   38.0840   45.9510 C.3     1  GLA1        0.2173
      4  C4        12.0900   37.5730   45.6850 C.3     1  GLA1        0.2142
      5  C5        12.1100   36.5330   44.5550 C.3     1  GLA1        0.1810
      6  C6        10.7110   36.1190   44.1440 C.3     1  GLA1        0.2141
      7  O2        15.4670   39.0000   44.9100 O.3     1  GLA1       -0.2176
      8  O3        13.4540   39.1130   46.9270 O.3     1  GLA1       -0.2175
      9  O4        11.2470   38.6620   45.3360 O.3     1  GLA1       -0.2176
     10  O5        12.7530   37.0700   43.3750 O.3     1  GLA1       -0.3481
     11  O6        10.7440   35.0740   43.1820 O.3     1  GLA1       -0.2176
@<TRIPOS>BOND
     1    11     6    1
     2    10     1    1
     3    10     5    1
     4     1     2    1
     5     6     5    1
     6     5     4    1
     7     2     7    1
     8     2     3    1
     9     9     4    1
    10     4     3    1
    11     3     8    1
