@<TRIPOS>MOLECULE
2g7m_AN0_C_1.pdb
 11 10 0 0 0
SMALL
GASTEIGER

@<TRIPOS>ATOM
      1  CA        -3.2920  -55.9340  -18.4660 C.3   645  AN0645      0.1977
      2  C         -4.6030  -56.2770  -17.7630 C.2   645  AN0645      0.3842
      3  O         -5.1850  -55.3680  -17.1260 O.co2 645  AN0645     -0.2437
      4  OXT       -5.0300  -57.4460  -17.8620 O.co2 645  AN0645     -0.2437
      5  CB        -3.5440  -54.8260  -19.4890 C.3   645  AN0645      0.0333
      6  CG        -4.5770  -55.1820  -20.5370 C.3   645  AN0645      0.0023
      7  CD        -4.9250  -53.9800  -21.3890 C.3   645  AN0645      0.0001
      8  N1        -2.6180  -57.1240  -19.0110 N.am  645  AN0645     -0.1956
      9  C1        -1.3520  -57.4510  -18.7520 C.2   645  AN0645      0.2423
     10  O1        -0.6310  -56.7600  -18.0330 O.2   645  AN0645     -0.2733
     11  C2        -0.8910  -58.7220  -19.4080 C.3   645  AN0645      0.0964
@<TRIPOS>BOND
     1     7     6    1
     2     6     5    1
     3     5     1    1
     4    11     9    1
     5     8     9   am
     6     8     1    1
     7     9    10    2
     8     1     2    1
     9     4     2   ar
    10     2     3   ar
