@<TRIPOS>MOLECULE
2g7q_AHL_A_1.pdb
 13 12 0 0 0
SMALL
GASTEIGER

@<TRIPOS>ATOM
      1  N1        12.6720   33.0100   63.0630 N.3   500  AHL500     -0.1261
      2  CA        11.2720   33.2990   63.1400 C.3   500  AHL500      0.1367
      3  CB        10.7440   33.4320   61.7280 C.3   500  AHL500      0.0292
      4  CG         9.3840   34.1140   61.7450 C.3   500  AHL500      0.0488
      5  CD         8.7830   34.2950   60.3710 C.3   500  AHL500      0.2205
      6  NE         8.3980   33.0160   59.7400 N.pl3 500  AHL500     -0.0865
      7  CZ         8.4500   32.7200   58.4370 C.cat 500  AHL500      0.5346
      8  NH1        9.2450   33.3820   57.6100 N.pl3 500  AHL500      0.1354
      9  NH2        7.6820   31.7460   57.9650 N.pl3 500  AHL500      0.1354
     10  C         10.5010   32.1780   63.8620 C.2   500  AHL500      0.1042
     11  O1        10.3970   31.0540   63.3210 O.2   500  AHL500     -0.5381
     12  N2        10.0190   32.4040   64.9050 N.am  500  AHL500     -0.2015
     13  O2         9.3210   31.5200   65.6190 O.3   500  AHL500     -0.4026
@<TRIPOS>BOND
     1     8     7    1
     2     9     7    1
     3     7     6    2
     4     6     5    1
     5     5     4    1
     6     3     4    1
     7     3     2    1
     8     1     2    1
     9     2    10    1
    10    11    10    2
    11    10    12   am
    12    12    13    1
