@<TRIPOS>MOLECULE
2g7y_MO9_A_1.pdb
 31 32 0 0 0
SMALL
GASTEIGER

@<TRIPOS>ATOM
      1  C1        30.6080   24.0480   24.2240 C.ar  999  MO9999      0.1419
      2  C2        30.8580   22.9270   23.3800 C.ar  999  MO9999      0.0355
      3  C3        29.9160   22.5740   22.3830 C.ar  999  MO9999      0.0004
      4  C4        28.7320   23.3250   22.2200 C.ar  999  MO9999     -0.0001
      5  C5        28.4820   24.4360   23.0530 C.ar  999  MO9999      0.0031
      6  C6        29.4100   24.7970   24.0490 C.ar  999  MO9999      0.0368
      7  C7        32.1440   22.0850   23.5300 C.3   999  MO9999      0.1803
      8  C9        33.9580   20.4880   25.3160 C.3   999  MO9999      0.2043
      9  C10       34.9210   21.6130   25.8110 C.3   999  MO9999      0.2707
     10  C12       36.2490   21.0370   25.9330 C.2   999  MO9999      0.2846
     11  S8        32.2830   21.1830   25.1190 S.O2  999  MO9999     -0.0016
     12  O11       34.9560   22.7600   24.9310 O.3   999  MO9999     -0.4269
     13  O13       31.3900   20.0870   25.0340 O.2   999  MO9999     -0.1725
     14  O14       31.9060   21.9950   26.2630 O.2   999  MO9999     -0.1725
     15  N15       36.7550   20.8960   27.2090 N.am  999  MO9999     -0.1856
     16  O16       36.8870   20.7110   24.9490 O.2   999  MO9999     -0.2693
     17  C17       38.0750   20.3580   27.6000 C.3   999  MO9999      0.2195
     18  C18       39.0790   21.4330   27.5930 C.1   999  MO9999      0.0972
     19  C19       35.5990   23.9140   25.3590 C.2   999  MO9999      0.4054
     20  N20       35.8070   24.9580   24.4720 N.am  999  MO9999     -0.2409
     21  O21       35.9780   24.0290   26.5240 O.2   999  MO9999     -0.2262
     22  C22       36.5680   26.2010   24.8540 C.3   999  MO9999      0.1288
     23  C23       37.5260   26.7130   23.7160 C.3   999  MO9999      0.1638
     24  O24       36.8730   26.7540   22.4250 O.3   999  MO9999     -0.3501
     25  C25       36.3750   25.4530   22.0550 C.3   999  MO9999      0.1638
     26  C26       35.2890   24.9550   23.0670 C.3   999  MO9999      0.1288
     27  O27       31.5270   24.3780   25.2040 O.3   999  MO9999     -0.4239
     28  C28       32.0720   25.6860   25.4570 C.3   999  MO9999      0.5086
     29  F29       33.0890   25.5870   26.3850 F     999  MO9999     -0.1550
     30  F30       31.1440   26.4240   25.9850 F     999  MO9999     -0.1550
     31  N31       39.8620   22.2880   27.5770 N.1   999  MO9999     -0.1940
@<TRIPOS>BOND
     1    25    24    1
     2    25    26    1
     3     4     3   ar
     4     4     5   ar
     5     3     2   ar
     6    24    23    1
     7     5     6   ar
     8    26    20    1
     9     2     7    1
    10     2     1   ar
    11     7    11    1
    12    23    22    1
    13     6     1   ar
    14     1    27    1
    15    20    22    1
    16    20    19   am
    17    12    19    1
    18    12     9    1
    19    16    10    2
    20    13    11    2
    21    11     8    1
    22    11    14    2
    23    27    28    1
    24     8     9    1
    25    19    21    2
    26    28    30    1
    27    28    29    1
    28     9    10    1
    29    10    15   am
    30    15    17    1
    31    31    18    3
    32    18    17    1
