@<TRIPOS>MOLECULE
2g7z_HXA_A_1.pdb
 19 18 0 0 0
SMALL
GASTEIGER

@<TRIPOS>ATOM
      1  C1        38.8520   31.9040   51.3120 C.2   9136  HXA9136     0.3649
      2  O1        38.6530   30.9290   52.0860 O.co2 9136  HXA9136    -0.2457
      3  O2        39.2660   33.0020   51.7420 O.co2 9136  HXA9136    -0.2457
      4  C2        38.5630   31.7660   49.8260 C.3   9136  HXA9136     0.1141
      5  C3        37.1510   32.2710   49.4860 C.3   9136  HXA9136     0.0118
      6  C4        36.8240   32.1330   47.9840 C.3   9136  HXA9136     0.0006
      7  C5        35.3870   32.5190   47.5640 C.3   9136  HXA9136     0.0000
      8  C6        34.9960   32.1050   46.1170 C.3   9136  HXA9136     0.0000
      9  C7        34.2540   33.1070   45.1920 C.3   9136  HXA9136     0.0000
     10  C8        32.7930   32.8560   44.7460 C.3   9136  HXA9136     0.0000
     11  C9        32.3330   32.9280   43.2690 C.3   9136  HXA9136     0.0000
     12  C10       32.2280   34.2200   42.4360 C.3   9136  HXA9136     0.0000
     13  C11       33.3720   34.5100   41.4090 C.3   9136  HXA9136     0.0000
     14  C12       33.9970   33.2660   40.7080 C.3   9136  HXA9136     0.0000
     15  C13       34.2640   33.4760   39.1990 C.3   9136  HXA9136     0.0000
     16  C14       34.6810   32.2370   38.3700 C.3   9136  HXA9136     0.0000
     17  C15       33.6120   31.1240   38.3470 C.3   9136  HXA9136     0.0000
     18  C16       34.0420   29.9180   37.5100 C.3   9136  HXA9136     0.0000
     19  C17       33.0750   28.7570   37.6510 C.3   9136  HXA9136     0.0000
@<TRIPOS>BOND
     1    18    19    1
     2    18    17    1
     3    17    16    1
     4    16    15    1
     5    15    14    1
     6    14    13    1
     7    13    12    1
     8    12    11    1
     9    11    10    1
    10    10     9    1
    11     9     8    1
    12     8     7    1
    13     7     6    1
    14     6     5    1
    15     5     4    1
    16     4     1    1
    17     1     3   ar
    18     1     2   ar
