@<TRIPOS>MOLECULE
2g81_P6G_I_1.pdb
 19 18 0 0 0
SMALL
GASTEIGER

@<TRIPOS>ATOM
      1  O1        21.8320   -2.9170   -8.2580 O.3   701  P6G701     -0.2176
      2  C2        22.6480   -3.7600   -9.0700 C.3   701  P6G701      0.2140
      3  C3        22.3830   -5.2080   -8.6960 C.3   701  P6G701      0.1777
      4  O4        23.6360   -5.8650   -8.5010 O.3   701  P6G701     -0.3483
      5  C5        23.4280   -7.2390   -8.1850 C.3   701  P6G701      0.1742
      6  C6        24.7510   -7.8880   -7.8020 C.3   701  P6G701      0.1742
      7  O7        25.6930   -7.6570   -8.8510 O.3   701  P6G701     -0.3484
      8  C8        27.0270   -7.9190   -8.4220 C.3   701  P6G701      0.1742
      9  C9        27.9290   -8.0330   -9.6350 C.3   701  P6G701      0.1742
     10  O10       27.5990   -9.2350  -10.3080 O.3   701  P6G701     -0.3484
     11  C11       28.4710   -9.5020  -11.4050 C.3   701  P6G701      0.1742
     12  C12       28.1390  -10.8360  -12.0450 C.3   701  P6G701      0.1742
     13  O13       28.1930  -11.8680  -11.0670 O.3   701  P6G701     -0.3484
     14  C14       27.9990  -13.1730  -11.6260 C.3   701  P6G701      0.1742
     15  C15       27.9160  -14.2370  -10.5440 C.3   701  P6G701      0.1742
     16  O16       29.1820  -14.3820   -9.9160 O.3   701  P6G701     -0.3483
     17  C17       29.2150  -15.4040   -8.9120 C.3   701  P6G701      0.1777
     18  C18       30.5960  -15.4910   -8.2860 C.3   701  P6G701      0.2140
     19  O19       30.7300  -16.7320   -7.5730 O.3   701  P6G701     -0.2176
@<TRIPOS>BOND
     1    12    11    1
     2    12    13    1
     3    14    13    1
     4    14    15    1
     5    11    10    1
     6    15    16    1
     7    10     9    1
     8    16    17    1
     9     9     8    1
    10     2     3    1
    11     2     1    1
    12    17    18    1
    13     7     8    1
    14     7     6    1
    15     3     4    1
    16     4     5    1
    17    18    19    1
    18     5     6    1
