@<TRIPOS>MOLECULE
2g82_NAD_A_1.pdb
 44 48 0 0 0
SMALL
GASTEIGER

@<TRIPOS>ATOM
      1  PA        -7.9310   58.3360  174.0130 P.3   336  NAD336      0.2189
      2  O1A       -6.5250   58.6710  173.6480 O.2   336  NAD336     -0.5170
      3  O2A       -8.3140   56.9320  174.2650 O.3   336  NAD336     -0.4371
      4  O5B       -8.9370   58.9060  172.9130 O.3   336  NAD336     -0.3112
      5  C5B       -8.7070   60.1600  172.2550 C.3   336  NAD336      0.1813
      6  C4B       -9.4680   60.1090  170.9360 C.3   336  NAD336      0.1821
      7  O4B       -9.5170   61.4280  170.3450 O.3   336  NAD336     -0.3135
      8  C3B       -8.7130   59.1900  169.9750 C.3   336  NAD336      0.2184
      9  O3B       -9.6490   58.2930  169.3610 O.3   336  NAD336     -0.2174
     10  C2B       -8.1220   60.1860  168.9700 C.3   336  NAD336      0.2570
     11  O2B       -8.0050   59.6030  167.6630 O.3   336  NAD336     -0.2130
     12  C1B       -9.1780   61.2850  168.9680 C.3   336  NAD336      0.3186
     13  N9A       -8.6450   62.6090  168.5380 N.pl3 336  NAD336     -0.1439
     14  C8A       -7.4620   63.1720  168.8300 C.3   336  NAD336      0.3377
     15  N7A       -7.3780   64.3780  168.2370 N.2   336  NAD336     -0.2095
     16  C5A       -8.5210   64.5900  167.5840 C.2   336  NAD336      0.2526
     17  C6A       -9.0310   65.6260  166.8020 C.2   336  NAD336      0.4393
     18  N6A       -8.3380   66.7530  166.5470 N.pl3 336  NAD336      0.2180
     19  N1A      -10.2650   65.4850  166.2830 N.2   336  NAD336      0.0021
     20  C2A      -10.9840   64.3950  166.4970 C.3   336  NAD336      0.5254
     21  N3A      -10.5300   63.3890  167.2290 N.2   336  NAD336     -0.0055
     22  C4A       -9.3150   63.4640  167.7820 C.2   336  NAD336      0.3518
     23  O3        -8.2750   59.2850  175.2640 O.3   336  NAD336     -0.2703
     24  PN        -9.3050   58.9960  176.4720 P.3   336  NAD336      0.2189
     25  O1N       -8.6590   58.1930  177.5520 O.3   336  NAD336     -0.4371
     26  O2N      -10.6090   58.5900  175.9050 O.2   336  NAD336     -0.5170
     27  O5D       -9.4040   60.4710  177.0550 O.3   336  NAD336     -0.3112
     28  C5D      -10.1930   61.4300  176.3610 C.3   336  NAD336      0.1813
     29  C4D      -10.3510   62.6900  177.2290 C.3   336  NAD336      0.1799
     30  O4D      -11.1260   62.2700  178.3850 O.3   336  NAD336     -0.3327
     31  C3D       -9.0330   63.2670  177.7620 C.3   336  NAD336      0.2158
     32  O3D       -9.2300   64.6720  178.0280 O.3   336  NAD336     -0.2175
     33  C2D       -8.8810   62.5030  179.0740 C.3   336  NAD336      0.2309
     34  O2D       -8.0960   63.2870  179.9770 O.3   336  NAD336     -0.2158
     35  C1D      -10.3270   62.5110  179.5570 C.3   336  NAD336      0.2263
     36  N1N      -10.6190   61.4470  180.5490 N.pl3 336  NAD336     -0.2787
     37  C2N      -10.0180   60.1840  180.4750 C.3   336  NAD336      0.1244
     38  C3N      -10.3440   59.2310  181.4370 C.2   336  NAD336      0.0544
     39  C7N       -9.7380   57.8410  181.4360 C.2   336  NAD336      0.2818
     40  O7N       -9.5950   57.2260  182.4920 O.2   336  NAD336     -0.2670
     41  N7N       -9.4140   57.3620  180.2420 N.am  336  NAD336     -0.0839
     42  C4N      -11.2390   59.5330  182.4560 C.2   336  NAD336      0.0033
     43  C5N      -11.8230   60.7920  182.5190 C.2   336  NAD336      0.0157
     44  C6N      -11.5150   61.7430  181.5630 C.2   336  NAD336      0.0633
@<TRIPOS>BOND
     1    19    20    1
     2    19    17    2
     3    20    21    1
     4    18    17    1
     5    17    16    1
     6    21    22    2
     7    16    22    1
     8    16    15    2
     9    11    10    1
    10    22    13    1
    11    15    14    1
    12    13    14    1
    13    13    12    1
    14    12    10    1
    15    12     7    1
    16    10     8    1
    17     9     8    1
    18     8     6    1
    19     7     6    1
    20     6     5    1
    21     5     4    1
    22     4     1    1
    23     2     1    2
    24     1     3    1
    25     1    23    1
    26    23    24    1
    27    26    24    2
    28    28    27    1
    29    28    29    1
    30    24    27    1
    31    24    25    1
    32    29    31    1
    33    29    30    1
    34    31    32    1
    35    31    33    1
    36    30    35    1
    37    33    35    1
    38    33    34    1
    39    35    36    1
    40    41    39   am
    41    37    36    1
    42    37    38    1
    43    36    44    1
    44    39    38    1
    45    39    40    2
    46    38    42    2
    47    44    43    2
    48    42    43    1
