@<TRIPOS>MOLECULE
2g83_GDP_A_1.pdb
 28 30 0 0 0
SMALL
GASTEIGER

@<TRIPOS>ATOM
      1  PB       -47.8950   27.1140   35.9390 P.3   355  GDP355      0.5373
      2  O1B      -49.2200   26.8930   35.9560 O.3   355  GDP355     -0.1143
      3  O2B      -47.5670   25.8900   36.3520 O.3   355  GDP355     -0.1143
      4  O3B      -47.2060   27.5800   34.6850 O.2   355  GDP355     -0.2221
      5  O3A      -47.8260   27.7890   37.2410 O.3   355  GDP355     -0.2261
      6  PA       -48.4950   29.0410   37.7140 P.3   355  GDP355      0.2231
      7  O1A      -47.4670   29.8200   38.0930 O.3   355  GDP355     -0.4370
      8  O2A      -49.1850   29.8080   36.8630 O.2   355  GDP355     -0.5169
      9  O5'      -49.2600   29.0910   38.9510 O.3   355  GDP355     -0.3111
     10  C5'      -50.4990   29.5900   38.7360 C.3   355  GDP355      0.1813
     11  C4'      -51.1570   30.5340   39.7230 C.3   355  GDP355      0.1799
     12  O4'      -51.1220   30.2470   41.0630 O.3   355  GDP355     -0.3326
     13  C3'      -50.6460   31.8780   39.6520 C.3   355  GDP355      0.2158
     14  O3'      -51.6690   32.7310   39.8180 O.3   355  GDP355     -0.2175
     15  C2'      -49.8910   31.8830   40.8540 C.3   355  GDP355      0.2310
     16  O2'      -49.8680   33.1660   41.1780 O.3   355  GDP355     -0.2158
     17  C1'      -50.7050   31.2660   41.8370 C.3   355  GDP355      0.2293
     18  N9       -49.8730   30.5840   42.7850 N.pl3 355  GDP355     -0.2354
     19  C8       -48.9210   29.8210   42.4570 C.3   355  GDP355      0.2246
     20  N7       -48.3550   29.3030   43.4650 N.2   355  GDP355     -0.2322
     21  C5       -48.9600   29.7430   44.4930 C.2   355  GDP355      0.2182
     22  C6       -48.8770   29.5700   45.8820 C.1   355  GDP355      0.2372
     23  O6       -48.1050   28.8720   46.4400 O.2   355  GDP355     -0.2069
     24  N1       -49.6710   30.1440   46.6260 N.2   355  GDP355     -0.2485
     25  C2       -50.5480   30.9060   46.1680 C.1   355  GDP355      0.2531
     26  N2       -51.2920   31.4390   47.0760 N.pl3 355  GDP355     -0.0226
     27  N3       -50.7300   31.1300   44.9300 N.2   355  GDP355     -0.3074
     28  C4       -49.9580   30.5710   44.0550 C.2   355  GDP355      0.2300
@<TRIPOS>BOND
     1     4     1    2
     2     1     2    1
     3     1     3    1
     4     1     5    1
     5     8     6    2
     6     5     6    1
     7     6     7    1
     8     6     9    1
     9    10     9    1
    10    10    11    1
    11    13    11    1
    12    13    14    1
    13    13    15    1
    14    11    12    1
    15    15    16    1
    16    15    17    1
    17    12    17    1
    18    17    18    1
    19    19    18    1
    20    19    20    1
    21    18    28    1
    22    20    21    2
    23    28    21    1
    24    28    27    2
    25    21    22    1
    26    27    25    2
    27    22    23    2
    28    22    24    2
    29    25    24    2
    30    25    26    1
