@<TRIPOS>MOLECULE
2g86_UMP_A_1.pdb
 20 21 0 0 0
SMALL
GASTEIGER

@<TRIPOS>ATOM
      1  N1        14.6000   48.6840  -53.4870 N.am  317  UMP317     -0.1790
      2  C2        13.7700   47.6310  -52.9910 C.1   317  UMP317      0.2844
      3  N3        12.9730   47.9030  -51.8630 N.2   317  UMP317     -0.2452
      4  C4        13.0030   49.1560  -51.2220 C.1   317  UMP317      0.2182
      5  C5        13.8340   50.1650  -51.7070 C.2   317  UMP317      0.1242
      6  C6        14.6270   49.8960  -52.8230 C.2   317  UMP317      0.0928
      7  O2        13.6680   46.4860  -53.4760 O.2   317  UMP317     -0.1918
      8  O4        12.3160   49.3950  -50.2330 O.2   317  UMP317     -0.2085
      9  C1'       15.5520   48.6370  -54.6460 C.3   317  UMP317      0.2090
     10  C2'       15.1560   47.9090  -55.9290 C.3   317  UMP317      0.0874
     11  C3'       16.2740   48.4050  -56.8640 C.3   317  UMP317      0.1857
     12  C4'       16.5780   49.8570  -56.4090 C.3   317  UMP317      0.1774
     13  O3'       17.4190   47.5530  -56.7950 O.3   317  UMP317     -0.2203
     14  O4'       16.0220   49.9330  -55.0890 O.3   317  UMP317     -0.3339
     15  C5'       15.9730   50.9820  -57.3040 C.3   317  UMP317      0.1858
     16  O5'       16.6590   51.3350  -58.5380 O.3   317  UMP317     -0.2675
     17  P         15.8400   51.6070  -59.8950 P.3   317  UMP317      0.5327
     18  OP1       16.6560   51.5580  -61.1330 O.2   317  UMP317     -0.2224
     19  OP2       14.9300   50.4520  -59.8740 O.3   317  UMP317     -0.1145
     20  OP3       15.1800   52.8840  -59.7970 O.3   317  UMP317     -0.1145
@<TRIPOS>BOND
     1    18    17    2
     2    17    19    1
     3    17    20    1
     4    17    16    1
     5    16    15    1
     6    15    12    1
     7    11    13    1
     8    11    12    1
     9    11    10    1
    10    12    14    1
    11    10     9    1
    12    14     9    1
    13     9     1    1
    14     1     2   am
    15     1     6    1
    16     7     2    2
    17     2     3    2
    18     6     5    2
    19     3     4    2
    20     5     4    1
    21     4     8    2
