@<TRIPOS>MOLECULE
2g87_RET_A_1.pdb
 20 20 0 0 0
SMALL
GASTEIGER

@<TRIPOS>ATOM
      1  C1        34.7020    6.5130   17.9340 C.3   1296  RET1296     0.0149
      2  C2        33.9880    5.9250   16.7000 C.3   1296  RET1296     0.0037
      3  C3        33.2640    6.9080   15.8150 C.3   1296  RET1296     0.0006
      4  C4        34.1330    8.0740   15.3840 C.3   1296  RET1296     0.0040
      5  C5        34.9400    8.7130   16.5150 C.3   1296  RET1296     0.0180
      6  C6        35.2650    7.9870   17.7270 C.2   1296  RET1296    -0.0494
      7  C7        36.2010    8.5420   18.7590 C.2   1296  RET1296    -0.0343
      8  C8        37.0490    9.5790   18.6720 C.3   1296  RET1296     0.0297
      9  C9        38.2640    9.8630   19.3940 C.3   1296  RET1296     0.0260
     10  C10       39.1490   10.5870   18.6500 C.2   1296  RET1296    -0.0304
     11  C11       40.5670   10.5890   18.8280 C.2   1296  RET1296    -0.0263
     12  C12       41.3010   11.1470   17.8230 C.3   1296  RET1296     0.0473
     13  C13       42.6950   10.8160   17.5550 C.2   1296  RET1296    -0.0438
     14  C14       43.4790   11.8060   17.1150 C.2   1296  RET1296    -0.0339
     15  C15       44.7920   11.6620   16.5610 C.3   1296  RET1296     0.0300
     16  C16       33.6780    6.4470   19.0890 C.3   1296  RET1296     0.0040
     17  C17       35.8230    5.4820   18.2490 C.3   1296  RET1296     0.0040
     18  C18       35.2850   10.1400   16.1070 C.3   1296  RET1296     0.0043
     19  C19       38.4760    9.2220   20.7430 C.3   1296  RET1296     0.0050
     20  C20       43.1260    9.3830   17.6440 C.3   1296  RET1296     0.0264
@<TRIPOS>BOND
     1     4     3    1
     2     4     5    1
     3     3     2    1
     4    18     5    1
     5     5     6    1
     6    15    14    1
     7     2     1    1
     8    14    13    2
     9    13    20    1
    10    13    12    1
    11     6     1    1
    12     6     7    2
    13    12    11    1
    14     1    17    1
    15     1    16    1
    16    10    11    2
    17    10     9    1
    18     8     7    1
    19     8     9    1
    20     9    19    1
