@<TRIPOS>MOLECULE
2g88_DTP_A_1.pdb
 30 32 0 0 0
SMALL
GASTEIGER

@<TRIPOS>ATOM
      1  PG        31.3470   85.7770    7.9110 P.3   832  DTP832      0.5373
      2  O1G       31.2360   84.4000    7.3720 O.3   832  DTP832     -0.1143
      3  O2G       32.2110   86.4380    7.0470 O.2   832  DTP832     -0.2221
      4  O3G       31.8700   85.7720    9.3800 O.3   832  DTP832     -0.1143
      5  PB        28.4660   86.4050    7.2220 P.3   832  DTP832      0.2277
      6  O1B       28.3710   84.9830    6.7220 O.3   832  DTP832     -0.4368
      7  O2B       28.1470   87.4560    6.3720 O.2   832  DTP832     -0.5168
      8  O3B       29.9360   86.7030    7.7930 O.3   832  DTP832     -0.2258
      9  PA        26.6260   85.3220    9.2160 P.3   832  DTP832      0.2189
     10  O1A       25.6890   84.9920    8.1690 O.2   832  DTP832     -0.5170
     11  O2A       27.3490   84.2100    9.8250 O.3   832  DTP832     -0.4371
     12  O3A       27.4990   86.5000    8.5130 O.3   832  DTP832     -0.2700
     13  O5'       25.8880   86.0080   10.2550 O.3   832  DTP832     -0.3112
     14  C5'       26.5530   86.4540   11.4040 C.3   832  DTP832      0.1813
     15  C4'       25.8570   86.1890   12.8050 C.3   832  DTP832      0.1795
     16  O4'       25.2470   84.8720   13.1010 O.3   832  DTP832     -0.3155
     17  C3'       26.7870   86.4310   13.9630 C.3   832  DTP832      0.1883
     18  O3'       26.2320   87.4910   14.6500 O.3   832  DTP832     -0.2202
     19  C2'       26.8190   85.1480   14.8270 C.3   832  DTP832      0.1151
     20  C1'       25.7430   84.2360   14.2730 C.3   832  DTP832      0.2873
     21  N9        26.1500   82.8050   13.6650 N.pl3 832  DTP832     -0.1460
     22  C8        26.7220   82.4390   12.4270 C.3   832  DTP832      0.3377
     23  N7        26.9240   81.1080   12.4570 N.2   832  DTP832     -0.2095
     24  C5        26.4740   80.6170   13.5540 C.2   832  DTP832      0.2526
     25  C6        26.4950   79.2070   13.9430 C.2   832  DTP832      0.4393
     26  N6        26.9520   78.2660   13.0710 N.pl3 832  DTP832      0.2180
     27  N1        25.9990   78.8040   15.1320 N.2   832  DTP832      0.0021
     28  C2        25.5650   79.7840   16.0130 C.3   832  DTP832      0.5254
     29  N3        25.4930   81.2040   15.7440 N.2   832  DTP832     -0.0055
     30  C4        25.9690   81.5780   14.4390 C.2   832  DTP832      0.3518
@<TRIPOS>BOND
     1     7     5    2
     2     6     5    1
     3     3     1    2
     4     5     8    1
     5     5    12    1
     6     2     1    1
     7     8     1    1
     8     1     4    1
     9    10     9    2
    10    12     9    1
    11     9    11    1
    12     9    13    1
    13    13    14    1
    14    14    15    1
    15    22    23    1
    16    22    21    1
    17    23    24    2
    18    15    16    1
    19    15    17    1
    20    26    25    1
    21    16    20    1
    22    24    25    1
    23    24    30    1
    24    21    20    1
    25    21    30    1
    26    25    27    2
    27    17    18    1
    28    17    19    1
    29    20    19    1
    30    30    29    2
    31    27    28    1
    32    29    28    1
