@<TRIPOS>MOLECULE
2g89_UMP_A_1.pdb
 20 21 0 0 0
SMALL
GASTEIGER

@<TRIPOS>ATOM
      1  N1        14.8260   48.6860  -53.5270 N.am  317  UMP317     -0.1790
      2  C2        14.0530   47.5500  -53.1330 C.1   317  UMP317      0.2844
      3  N3        13.2370   47.6730  -52.0160 N.2   317  UMP317     -0.2452
      4  C4        13.1770   48.8640  -51.2740 C.1   317  UMP317      0.2182
      5  C5        13.9490   49.9760  -51.6670 C.2   317  UMP317      0.1242
      6  C6        14.7780   49.8580  -52.7850 C.2   317  UMP317      0.0928
      7  O2        14.0100   46.4440  -53.6950 O.2   317  UMP317     -0.1918
      8  O4        12.4440   48.9380  -50.2740 O.2   317  UMP317     -0.2085
      9  C1'       15.7760   48.7270  -54.6730 C.3   317  UMP317      0.2090
     10  C2'       15.2920   48.1620  -55.9980 C.3   317  UMP317      0.0874
     11  C3'       16.5040   48.5860  -56.8320 C.3   317  UMP317      0.1857
     12  C4'       16.8090   50.0190  -56.3490 C.3   317  UMP317      0.1774
     13  O3'       17.6090   47.7030  -56.6180 O.3   317  UMP317     -0.2203
     14  O4'       16.3300   50.0210  -54.9980 O.3   317  UMP317     -0.3339
     15  C5'       16.1140   51.1120  -57.2240 C.3   317  UMP317      0.1858
     16  O5'       16.7270   51.3970  -58.5160 O.3   317  UMP317     -0.2675
     17  P         15.8300   51.6640  -59.8410 P.3   317  UMP317      0.5327
     18  OP1       16.5730   51.8720  -61.1070 O.2   317  UMP317     -0.2224
     19  OP2       14.9710   50.4520  -59.7590 O.3   317  UMP317     -0.1145
     20  OP3       15.1350   52.9620  -59.7130 O.3   317  UMP317     -0.1145
@<TRIPOS>BOND
     1    18    17    2
     2    17    19    1
     3    17    20    1
     4    17    16    1
     5    16    15    1
     6    15    12    1
     7    11    13    1
     8    11    12    1
     9    11    10    1
    10    12    14    1
    11    10     9    1
    12    14     9    1
    13     9     1    1
    14     7     2    2
    15     1     2   am
    16     1     6    1
    17     2     3    2
    18     6     5    2
    19     3     4    2
    20     5     4    1
    21     4     8    2
