@<TRIPOS>MOLECULE
2g8a_UMP_A_1.pdb
 20 21 0 0 0
SMALL
GASTEIGER

@<TRIPOS>ATOM
      1  N1        14.5930   48.5450  -53.6340 N.am  317  UMP317     -0.1790
      2  C2        13.7290   47.5630  -53.1280 C.1   317  UMP317      0.2844
      3  N3        12.7930   47.9050  -52.1380 N.2   317  UMP317     -0.2452
      4  C4        12.7290   49.2290  -51.6120 C.1   317  UMP317      0.2182
      5  C5        13.5960   50.2320  -52.1040 C.2   317  UMP317      0.1242
      6  C6        14.5140   49.8440  -53.1130 C.2   317  UMP317      0.0928
      7  O2        13.7430   46.4100  -53.5510 O.2   317  UMP317     -0.1918
      8  O4        11.8970   49.4770  -50.7270 O.2   317  UMP317     -0.2085
      9  C1'       15.5790   48.2050  -54.6910 C.3   317  UMP317      0.2090
     10  C2'       15.0580   47.5230  -55.9510 C.3   317  UMP317      0.0874
     11  C3'       16.0660   47.9370  -57.0460 C.3   317  UMP317      0.1857
     12  C4'       16.4540   49.3200  -56.5950 C.3   317  UMP317      0.1774
     13  O3'       17.1920   47.0660  -57.1540 O.3   317  UMP317     -0.2203
     14  O4'       16.2400   49.3410  -55.1830 O.3   317  UMP317     -0.3339
     15  C5'       15.6370   50.4160  -57.3380 C.3   317  UMP317      0.1858
     16  O5'       16.4990   50.8360  -58.4090 O.3   317  UMP317     -0.2675
     17  P         15.8160   51.4020  -59.7500 P.3   317  UMP317      0.5327
     18  OP1       15.2790   52.7840  -59.6520 O.3   317  UMP317     -0.1145
     19  OP2       14.6860   50.3540  -59.7430 O.3   317  UMP317     -0.1145
     20  OP3       16.6900   51.4110  -60.8940 O.2   317  UMP317     -0.2224
@<TRIPOS>BOND
     1    20    17    2
     2    17    19    1
     3    17    18    1
     4    17    16    1
     5    16    15    1
     6    15    12    1
     7    13    11    1
     8    11    12    1
     9    11    10    1
    10    12    14    1
    11    10     9    1
    12    14     9    1
    13     9     1    1
    14     1     2   am
    15     1     6    1
    16     7     2    2
    17     2     3    2
    18     6     5    2
    19     3     4    2
    20     5     4    1
    21     4     8    2
