@<TRIPOS>MOLECULE
2g8d_UMP_A_1.pdb
 20 21 0 0 0
SMALL
GASTEIGER

@<TRIPOS>ATOM
      1  N1        14.5750   48.7330  -53.8830 N.am  317  UMP317     -0.1790
      2  C2        13.8790   47.6210  -53.3440 C.1   317  UMP317      0.2844
      3  N3        13.0930   47.8560  -52.2200 N.2   317  UMP317     -0.2452
      4  C4        12.9730   49.1280  -51.6020 C.1   317  UMP317      0.2182
      5  C5        13.6720   50.2040  -52.1530 C.2   317  UMP317      0.1242
      6  C6        14.4730   49.9640  -53.2690 C.2   317  UMP317      0.0928
      7  O2        13.8650   46.4700  -53.7620 O.2   317  UMP317     -0.1918
      8  O4        12.2610   49.3130  -50.5890 O.2   317  UMP317     -0.2085
      9  C1'       15.5130   48.8010  -55.0380 C.3   317  UMP317      0.2090
     10  C2'       15.4880   47.8080  -56.2110 C.3   317  UMP317      0.0874
     11  C3'       16.4420   48.5110  -57.1900 C.3   317  UMP317      0.1857
     12  C4'       16.3980   50.0110  -56.8010 C.3   317  UMP317      0.1774
     13  O3'       17.7480   47.9440  -57.1080 O.3   317  UMP317     -0.2203
     14  O4'       15.5670   50.1040  -55.6380 O.3   317  UMP317     -0.3339
     15  C5'       15.7980   50.9630  -57.8520 C.3   317  UMP317      0.1858
     16  O5'       16.7030   51.3360  -58.9010 O.3   317  UMP317     -0.2675
     17  P         15.8890   51.8540  -60.1360 P.3   317  UMP317      0.5327
     18  OP1       16.5770   51.8710  -61.4940 O.2   317  UMP317     -0.2224
     19  OP2       14.9390   50.6890  -60.0240 O.3   317  UMP317     -0.1145
     20  OP3       15.1120   53.0540  -59.7340 O.3   317  UMP317     -0.1145
@<TRIPOS>BOND
     1    18    17    2
     2    17    19    1
     3    17    20    1
     4    17    16    1
     5    16    15    1
     6    15    12    1
     7    11    13    1
     8    11    12    1
     9    11    10    1
    10    12    14    1
    11    10     9    1
    12    14     9    1
    13     9     1    1
    14     1     2   am
    15     1     6    1
    16     7     2    2
    17     2     3    2
    18     6     5    2
    19     3     4    2
    20     5     4    1
    21     4     8    2
