@<TRIPOS>MOLECULE
2g8e_0M6_A_1.pdb
 24 24 0 0 0
SMALL
GASTEIGER

@<TRIPOS>ATOM
      1  CAK       63.1660    1.6140   27.5070 C.ar  400  0M6400      0.0166
      2  CAI       63.1030    0.6070   26.5400 C.ar  400  0M6400      0.0013
      3  CAH       64.1390    0.4170   25.6030 C.ar  400  0M6400      0.0001
      4  CAJ       65.2770    1.2610   25.6180 C.ar  400  0M6400      0.0013
      5  CAL       65.3430    2.2720   26.5890 C.ar  400  0M6400      0.0166
      6  CAV       64.2920    2.4480   27.5190 C.ar  400  0M6400      0.0724
      7  NAP       64.3610    3.4340   28.4180 N.am  400  0M6400     -0.1906
      8  CAU       64.4240    4.7470   28.0670 C.2   400  0M6400      0.1749
      9  SAG       64.2300    5.8840   29.2750 S.2   400  0M6400     -0.0151
     10  N         64.6290    5.2060   26.8170 N.am  400  0M6400     -0.2088
     11  CA        64.7520    6.6340   26.4850 C.3   400  0M6400      0.1717
     12  CB        65.0960    6.7980   24.9890 C.3   400  0M6400      0.0311
     13  CG        66.3380    6.0420   24.5650 C.3   400  0M6400      0.0022
     14  CD2       66.7800    6.2940   23.0950 C.3   400  0M6400      0.0001
     15  CD1       67.4190    6.3190   25.5680 C.3   400  0M6400      0.0001
     16  C         63.4060    7.3820   26.6250 C.2   400  0M6400      0.2612
     17  O         62.3080    6.8440   26.3960 O.2   400  0M6400     -0.2715
     18  NAQ       63.5450    8.6670   26.9560 N.am  400  0M6400     -0.2030
     19  CAZ       62.3810    9.5460   27.0460 C.3   400  0M6400      0.1308
     20  CAX       62.5720   10.5700   25.9340 C.3   400  0M6400      0.2036
     21  OAF       61.5900   11.5550   26.0980 O.3   400  0M6400     -0.2185
     22  CAN       62.1620   10.1420   28.4770 C.3   400  0M6400      0.0599
     23  CAM       61.6590    9.0480   29.4230 C.3   400  0M6400      0.1840
     24  OAE       60.6870    9.5650   30.3410 O.3   400  0M6400     -0.2204
@<TRIPOS>BOND
     1    14    13    1
     2    13    12    1
     3    13    15    1
     4    12    11    1
     5     3     4   ar
     6     3     2   ar
     7     4     5   ar
     8    20    21    1
     9    20    19    1
    10    17    16    2
    11    11    16    1
    12    11    10    1
    13     2     1   ar
    14     5     6   ar
    15    16    18   am
    16    10     8    1
    17    18    19    1
    18    19    22    1
    19     1     6   ar
    20     6     7    1
    21     8     7    1
    22     8     9    2
    23    22    23    1
    24    23    24    1
