@<TRIPOS>MOLECULE
2g8g_D5M_A_1.pdb
 22 24 0 0 0
SMALL
GASTEIGER

@<TRIPOS>ATOM
      1  O5'        4.7130  -31.2280   91.3310 O.3    21  D5M21      -0.2675
      2  C5'        3.7720  -30.3720   90.8270 C.3    21  D5M21       0.1859
      3  C4'        3.0430  -29.3150   91.6610 C.3    21  D5M21       0.1796
      4  O4'        3.4230  -28.8320   92.8850 O.3    21  D5M21      -0.3155
      5  C3'        1.9080  -28.4430   91.1040 C.3    21  D5M21       0.1883
      6  O3'        0.6710  -28.7770   91.7390 O.3    21  D5M21      -0.2202
      7  C2'        2.4140  -27.1020   91.6360 C.3    21  D5M21       0.1151
      8  C1'        2.8630  -27.5100   93.0440 C.3    21  D5M21       0.2873
      9  N9         3.8380  -26.5550   93.6370 N.pl3  21  D5M21      -0.1460
     10  C8         3.6720  -25.7760   94.6920 C.3    21  D5M21       0.3377
     11  N7         4.7810  -25.0680   94.9190 N.2    21  D5M21      -0.2095
     12  C5         5.6790  -25.4220   93.9940 C.2    21  D5M21       0.2526
     13  C6         6.9500  -24.9860   93.6710 C.2    21  D5M21       0.4393
     14  N6         7.5820  -24.1090   94.4240 N.pl3  21  D5M21       0.2180
     15  N1         7.5670  -25.5330   92.6050 N.2    21  D5M21       0.0021
     16  C2         6.9780  -26.4500   91.8670 C.3    21  D5M21       0.5254
     17  N3         5.7530  -26.8620   92.1390 N.2    21  D5M21      -0.0055
     18  C4         5.0880  -26.3690   93.1870 C.2    21  D5M21       0.3518
     19  P          5.3590  -32.1930   90.2060 P.3    21  D5M21       0.5327
     20  O1P        6.2510  -31.4940   89.2570 O.2    21  D5M21      -0.2224
     21  O3P        4.1790  -32.9760   89.4410 O.3    21  D5M21      -0.1145
     22  O2P        6.0950  -33.3960   90.9810 O.3    21  D5M21      -0.1145
@<TRIPOS>BOND
     1    20    19    2
     2    21    19    1
     3    19    22    1
     4    19     1    1
     5     2     1    1
     6     2     3    1
     7     5     7    1
     8     5     3    1
     9     5     6    1
    10     7     8    1
    11     3     4    1
    12    16    17    1
    13    16    15    1
    14    17    18    2
    15    15    13    2
    16     4     8    1
    17     8     9    1
    18    18     9    1
    19    18    12    1
    20     9    10    1
    21    13    12    1
    22    13    14    1
    23    12    11    2
    24    10    11    1
