@<TRIPOS>MOLECULE
2g8j_D7G_A_1.pdb
 35 36 0 0 0
SMALL
GASTEIGER

@<TRIPOS>ATOM
      1  O1       -10.4160   -4.3860  -23.3380 O.3   400  D7G400     -0.2113
      2  C1       -10.3890   -5.0390  -22.0680 C.3   400  D7G400      0.2490
      3  C2        -8.9390   -5.3530  -21.6620 C.2   400  D7G400      0.2736
      4  O2        -8.6900   -5.7920  -20.5410 O.2   400  D7G400     -0.2705
      5  N1        -8.0130   -5.1460  -22.6000 N.am  400  D7G400     -0.2050
      6  C3        -6.5910   -5.4280  -22.3620 C.3   400  D7G400      0.0955
      7  C4        -5.7370   -5.7890  -23.5800 C.3   400  D7G400      0.0234
      8  C5        -6.2230   -6.8890  -22.6470 C.3   400  D7G400      0.0234
      9  C6       -11.1510   -6.3490  -22.2180 C.3   400  D7G400      0.1390
     10  N2       -12.5300   -5.9740  -22.5710 N.am  400  D7G400     -0.2023
     11  C7       -13.5860   -6.3400  -21.8580 C.2   400  D7G400      0.2614
     12  O3       -13.5460   -7.0390  -20.8440 O.2   400  D7G400     -0.2715
     13  C8       -14.9200   -5.8020  -22.3810 C.3   400  D7G400      0.1761
     14  N3       -15.9560   -6.7760  -22.0090 N.am  400  D7G400     -0.1611
     15  C9       -16.5170   -7.6070  -22.8840 C.2   400  D7G400      0.4216
     16  O4       -16.2360   -7.6160  -24.0870 O.2   400  D7G400     -0.2246
     17  O5       -17.4530   -8.4780  -22.4090 O.3   400  D7G400     -0.4308
     18  C10      -17.0000   -9.8350  -22.6240 C.3   400  D7G400      0.2421
     19  C11      -17.7470  -10.7940  -21.7140 C.3   400  D7G400      0.1896
     20  O6       -16.7820  -11.5860  -21.0160 O.3   400  D7G400     -0.3471
     21  C12      -17.3270  -11.9320  -19.7300 C.3   400  D7G400      0.1743
     22  C13      -17.0270  -13.3860  -19.4220 C.3   400  D7G400      0.1742
     23  O7       -17.4230  -13.6500  -18.0740 O.3   400  D7G400     -0.3484
     24  C14      -17.6920  -15.0500  -17.9000 C.3   400  D7G400      0.1742
     25  C15      -15.1560   -4.4430  -21.6950 C.3   400  D7G400      0.0312
     26  C16      -16.4960   -3.8000  -22.1150 C.3   400  D7G400      0.0022
     27  C17      -16.7710   -2.5220  -21.3120 C.3   400  D7G400      0.0001
     28  C18      -16.6230   -3.5190  -23.6220 C.3   400  D7G400      0.0001
     29  C19      -10.5550   -7.2490  -23.3240 C.3   400  D7G400      0.0511
     30  C20      -11.1740   -8.6390  -23.2750 C.ar  400  D7G400     -0.0204
     31  C21      -10.5290   -9.6450  -22.5420 C.ar  400  D7G400     -0.0042
     32  C22      -11.0950  -10.9210  -22.4820 C.ar  400  D7G400     -0.0003
     33  C23      -12.2960  -11.1880  -23.1430 C.ar  400  D7G400     -0.0000
     34  C24      -12.9370  -10.1860  -23.8740 C.ar  400  D7G400     -0.0003
     35  C25      -12.3770   -8.9050  -23.9430 C.ar  400  D7G400     -0.0042
@<TRIPOS>BOND
     1    16    15    2
     2    35    34   ar
     3    35    30   ar
     4    34    33   ar
     5    28    26    1
     6     7     8    1
     7     7     6    1
     8     1     2    1
     9    29    30    1
    10    29     9    1
    11    30    31   ar
    12    33    32   ar
    13    15    17    1
    14    15    14   am
    15     8     6    1
    16    18    17    1
    17    18    19    1
    18     5     6    1
    19     5     3   am
    20    10     9    1
    21    10    11   am
    22    31    32   ar
    23    13    14    1
    24    13    11    1
    25    13    25    1
    26     9     2    1
    27    26    25    1
    28    26    27    1
    29     2     3    1
    30    11    12    2
    31    19    20    1
    32     3     4    2
    33    20    21    1
    34    21    22    1
    35    22    23    1
    36    23    24    1
