@<TRIPOS>MOLECULE
2g8n_F83_A_1.pdb
 23 25 0 0 0
SMALL
GASTEIGER

@<TRIPOS>ATOM
      1  O1        29.0990   44.7580   22.6830 O.3   2001  F832001    -0.2189
      2  C1        29.5500   45.4790   21.5340 C.3   2001  F832001     0.1997
      3  C2        28.9030   44.8560   20.2970 C.3   2001  F832001     0.1104
      4  N1        29.4180   43.4930   20.0970 N.3   2001  F832001    -0.2117
      5  C3        28.5950   42.7870   19.1030 C.3   2001  F832001     0.1148
      6  C4        28.4720   43.6060   17.8120 C.ar  2001  F832001    -0.0074
      7  C5        28.0420   42.9760   16.6550 C.ar  2001  F832001     0.0171
      8  C6        27.8460   43.7140   15.4880 C.ar  2001  F832001     0.1268
      9  C7        28.0770   45.0850   15.4840 C.ar  2001  F832001     0.0199
     10  C8        28.5160   45.7200   16.6450 C.ar  2001  F832001    -0.0031
     11  C9        28.7180   44.9830   17.8050 C.ar  2001  F832001    -0.0232
     12  C10       29.2450   45.6850   19.0580 C.3   2001  F832001     0.0461
     13  S1        27.3310   42.9130   14.0240 S.O2  2001  F832001     0.0928
     14  O2        25.9100   42.7710   14.0030 O.2   2001  F832001    -0.1483
     15  O3        27.9720   41.5570   13.9310 O.2   2001  F832001    -0.1483
     16  N2        27.8390   43.8210   12.7710 N.pl3 2001  F832001    -0.0965
     17  C11       26.9100   44.6130   11.9490 C.ar  2001  F832001     0.0911
     18  C12       25.8530   45.3110   12.5270 C.ar  2001  F832001     0.0189
     19  C13       25.0270   46.0980   11.7300 C.ar  2001  F832001     0.0128
     20  C14       25.2620   46.1850   10.3560 C.ar  2001  F832001     0.0578
     21  C15       26.3130   45.4760    9.7820 C.ar  2001  F832001     0.0128
     22  C16       27.1380   44.6890   10.5800 C.ar  2001  F832001     0.0189
     23 CL1        24.3110   47.2170    9.3510 Cl    2001  F832001    -0.0822
@<TRIPOS>BOND
     1    23    20    1
     2    21    20   ar
     3    21    22   ar
     4    20    19   ar
     5    22    17   ar
     6    19    18   ar
     7    17    18   ar
     8    17    16    1
     9    16    13    1
    10    15    13    2
    11    14    13    2
    12    13     8    1
    13     9     8   ar
    14     9    10   ar
    15     8     7   ar
    16    10    11   ar
    17     7     6   ar
    18    11     6   ar
    19    11    12    1
    20     6     5    1
    21    12     3    1
    22     5     4    1
    23     4     3    1
    24     3     2    1
    25     2     1    1
