@<TRIPOS>MOLECULE
2g8n_SAH_A_1.pdb
 26 28 0 0 0
SMALL
GASTEIGER

@<TRIPOS>ATOM
      1  N         26.7050   52.5400   18.3430 N.3   3001  SAH3001    -0.1208
      2  CA        27.9030   51.9830   17.7210 C.3   3001  SAH3001     0.1952
      3  CB        28.9700   51.7170   18.8060 C.3   3001  SAH3001     0.0422
      4  CG        28.5460   50.7490   19.9260 C.3   3001  SAH3001     0.0597
      5  SD        29.9590   50.1850   20.9290 S.3   3001  SAH3001    -0.1375
      6  C         27.5840   50.7010   16.9250 C.2   3001  SAH3001     0.3819
      7  O         28.5180   49.9400   16.6030 O.co2 3001  SAH3001    -0.2441
      8  OXT       26.3970   50.4740   16.6160 O.co2 3001  SAH3001    -0.2441
      9  C5'       29.5760   50.9740   22.5360 C.3   3001  SAH3001     0.0899
     10  C4'       29.7690   52.4790   22.5780 C.3   3001  SAH3001     0.1630
     11  O4'       29.3720   53.0550   23.8630 O.3   3001  SAH3001    -0.3153
     12  C3'       31.1760   52.9990   22.2960 C.3   3001  SAH3001     0.2168
     13  O3'       31.1210   53.9860   21.2760 O.3   3001  SAH3001    -0.2175
     14  C2'       31.6140   53.5680   23.6480 C.3   3001  SAH3001     0.2569
     15  O2'       32.5560   54.6140   23.5700 O.3   3001  SAH3001    -0.2130
     16  C1'       30.2880   54.0790   24.1960 C.3   3001  SAH3001     0.3185
     17  N9        30.2500   54.3330   25.6380 N.pl3 3001  SAH3001    -0.1439
     18  C8        31.1520   53.8870   26.6400 C.3   3001  SAH3001     0.3377
     19  N7        30.8480   54.3140   27.8380 N.2   3001  SAH3001    -0.2095
     20  C5        29.6990   55.0610   27.6300 C.2   3001  SAH3001     0.2526
     21  C6        28.9180   55.7710   28.5700 C.2   3001  SAH3001     0.4393
     22  N6        29.1830   55.8130   29.8770 N.pl3 3001  SAH3001     0.2180
     23  N1        27.8300   56.4440   28.1000 N.2   3001  SAH3001     0.0021
     24  C2        27.5660   56.3940   26.7650 C.3   3001  SAH3001     0.5254
     25  N3        28.2450   55.7490   25.7930 N.2   3001  SAH3001    -0.0055
     26  C4        29.3150   55.0890   26.3030 C.2   3001  SAH3001     0.3518
@<TRIPOS>BOND
     1     7     6   ar
     2     8     6   ar
     3     6     2    1
     4     2     1    1
     5     2     3    1
     6     3     4    1
     7     4     5    1
     8     5     9    1
     9    13    12    1
    10    12    10    1
    11    12    14    1
    12     9    10    1
    13    10    11    1
    14    15    14    1
    15    14    16    1
    16    11    16    1
    17    16    17    1
    18    17    26    1
    19    17    18    1
    20    25    26    2
    21    25    24    1
    22    26    20    1
    23    18    19    1
    24    24    23    1
    25    20    19    2
    26    20    21    1
    27    23    21    2
    28    21    22    1
