@<TRIPOS>MOLECULE
2g8r_N3E_A_1.pdb
 25 27 0 0 0
SMALL
GASTEIGER

@<TRIPOS>ATOM
      1  O2        34.8040   -5.7070   13.9980 O.2   998  N3E998     -0.1918
      2  C2        35.6110   -5.1090   14.7610 C.1   998  N3E998      0.2845
      3  N3        35.9170   -3.8110   14.4670 N.2   998  N3E998     -0.2452
      4  C4        36.7800   -3.0990   15.2300 C.1   998  N3E998      0.2182
      5  O4        37.0320   -1.9100   14.9320 O.2   998  N3E998     -0.2085
      6  C5        37.3680   -3.7000   16.3340 C.2   998  N3E998      0.1242
      7  C6        37.0400   -5.0250   16.6230 C.2   998  N3E998      0.0929
      8  N1        36.1790   -5.7130   15.8370 N.am  998  N3E998     -0.1767
      9  C1'       35.8450   -7.1130   16.1730 C.3   998  N3E998      0.2388
     10  O4'       35.5660   -7.2150   17.5740 O.3   998  N3E998     -0.3331
     11  C4'       36.0580   -8.4410   18.1080 C.3   998  N3E998      0.1671
     12  C5'       36.7280   -8.1970   19.4610 C.3   998  N3E998      0.2129
     13  O5'       37.6820   -7.1370   19.3450 O.3   998  N3E998     -0.2177
     14  C2'       36.9380   -8.1350   15.8560 C.3   998  N3E998      0.2163
     15  O2'       38.1930   -7.4720   15.6760 O.3   998  N3E998     -0.2170
     16  C3'       37.0300   -9.0280   17.0840 C.3   998  N3E998      0.1226
     17  N7        36.6020  -10.4010   16.7830 N.3   998  N3E998     -0.2695
     18  C13       36.2460  -11.2070   17.9660 C.3   998  N3E998      0.0728
     19  C8        36.6260  -10.8290   15.3710 C.3   998  N3E998      0.0728
     20  C9        36.7340  -12.3500   15.2740 C.3   998  N3E998      0.0286
     21  C10       35.8520  -13.0350   16.3120 C.3   998  N3E998      0.1062
     22  C12       36.3870  -12.7010   17.6940 C.3   998  N3E998      0.0286
     23  C11       35.7650  -14.5210   16.0850 C.2   998  N3E998      0.3644
     24  O13       36.4070  -15.3140   16.8150 O.co2 998  N3E998     -0.2457
     25  O12       35.0170  -14.9100   15.1670 O.co2 998  N3E998     -0.2457
@<TRIPOS>BOND
     1     1     2    2
     2     3     2    2
     3     3     4    2
     4     2     8   am
     5     5     4    2
     6    25    23   ar
     7     4     6    1
     8    20    19    1
     9    20    21    1
    10    19    17    1
    11    15    14    1
    12     8     9    1
    13     8     7    1
    14    14     9    1
    15    14    16    1
    16    23    21    1
    17    23    24   ar
    18     9    10    1
    19    21    22    1
    20     6     7    2
    21    17    16    1
    22    17    18    1
    23    16    11    1
    24    10    11    1
    25    22    18    1
    26    11    12    1
    27    13    12    1
