@<TRIPOS>MOLECULE
2g8t_MI2_A_1.pdb
 19 21 0 0 0
SMALL
GASTEIGER

@<TRIPOS>ATOM
      1  C1        -3.5840   49.2440    1.4630 C.ar  401  MI2401      0.0324
      2  C2        -3.5940   48.9990    2.8780 C.ar  401  MI2401      0.1315
      3  N3        -2.3410   49.1110    3.3420 N.2   401  MI2401     -0.4019
      4  C4        -1.5270   49.4150    2.3010 C.2   401  MI2401      0.1311
      5  C5        -2.2700   49.5060    1.1180 C.2   401  MI2401      0.0346
      6  C6        -0.0250   49.6130    2.4220 C.ar  401  MI2401      0.0256
      7  C7         0.5640   50.7740    1.7610 C.ar  401  MI2401      0.0022
      8  C8         1.9850   51.0120    1.8380 C.ar  401  MI2401      0.0001
      9  C9         2.8370   50.1100    2.5660 C.ar  401  MI2401     -0.0003
     10  C10        2.2720   48.9590    3.2250 C.ar  401  MI2401     -0.0042
     11  C11        0.8460   48.6840    3.1720 C.ar  401  MI2401     -0.0194
     12  C12        0.3590   47.4600    3.8930 C.3   401  MI2401      0.0311
     13  C13       -4.8460   48.6870    3.5460 C.ar  401  MI2401      0.0323
     14  C14       -6.0590   48.6300    2.7550 C.ar  401  MI2401      0.0106
     15  C15       -6.0110   48.8820    1.3240 C.ar  401  MI2401      0.0976
     16  C16       -4.7710   49.2000    0.6410 C.ar  401  MI2401      0.0106
     17  C17       -7.2450   48.8080    0.5390 C.2   401  MI2401      0.4766
     18  N18       -8.1900   47.7940    0.8230 N.pl3 401  MI2401      0.2047
     19  N19       -7.5000   49.7210   -0.5030 N.pl3 401  MI2401      0.2047
@<TRIPOS>BOND
     1    19    17    2
     2    17    18    1
     3    17    15    1
     4    16    15   ar
     5    16     1   ar
     6     5     1    2
     7     5     4    1
     8    15    14   ar
     9     1     2   ar
    10     7     8   ar
    11     7     6   ar
    12     8     9   ar
    13     4     6    1
    14     4     3    2
    15     6    11   ar
    16     9    10   ar
    17    14    13   ar
    18     2     3    2
    19     2    13   ar
    20    11    10   ar
    21    11    12    1
