@<TRIPOS>MOLECULE
2g8y_NAD_A_1.pdb
 44 48 0 0 0
SMALL
GASTEIGER

@<TRIPOS>ATOM
      1  PA        67.2120   66.3580   13.3930 P.3   1001  NAD1001     0.2189
      2  O1A       68.3030   66.5800   12.3830 O.2   1001  NAD1001    -0.5170
      3  O2A       66.3900   67.5670   13.7130 O.3   1001  NAD1001    -0.4371
      4  O5B       67.8520   65.7000   14.7410 O.3   1001  NAD1001    -0.3112
      5  C5B       67.1600   65.7540   15.9630 C.3   1001  NAD1001     0.1813
      6  C4B       67.9430   64.9170   16.9660 C.3   1001  NAD1001     0.1821
      7  O4B       69.2260   65.5180   17.1490 O.3   1001  NAD1001    -0.3135
      8  C3B       67.2670   64.9310   18.3390 C.3   1001  NAD1001     0.2184
      9  O3B       67.7400   63.7950   19.0520 O.3   1001  NAD1001    -0.2174
     10  C2B       67.8040   66.2560   18.8970 C.3   1001  NAD1001     0.2570
     11  O2B       67.7230   66.4220   20.2970 O.3   1001  NAD1001    -0.2130
     12  C1B       69.2540   66.1840   18.4050 C.3   1001  NAD1001     0.3186
     13  N9A       69.9150   67.4930   18.3230 N.pl3 1001  NAD1001    -0.1439
     14  C8A       69.5240   68.6570   17.6760 C.3   1001  NAD1001     0.3377
     15  N7A       70.4640   69.6090   17.9110 N.2   1001  NAD1001    -0.2095
     16  C5A       71.4480   69.0640   18.6990 C.2   1001  NAD1001     0.2526
     17  C6A       72.6470   69.5620   19.2440 C.2   1001  NAD1001     0.4393
     18  N6A       73.1110   70.7660   18.9030 N.pl3 1001  NAD1001     0.2180
     19  N1A       73.4270   68.7160   20.0130 N.2   1001  NAD1001     0.0021
     20  C2A       73.0380   67.4060   20.2760 C.3   1001  NAD1001     0.5254
     21  N3A       71.8720   66.9090   19.7380 N.2   1001  NAD1001    -0.0055
     22  C4A       71.1040   67.7290   18.9650 C.2   1001  NAD1001     0.3518
     23  O3        66.2620   65.1320   12.9300 O.3   1001  NAD1001    -0.2703
     24  PN        65.6980   64.7780   11.4450 P.3   1001  NAD1001     0.2189
     25  O1N       66.5040   63.6630   10.8980 O.3   1001  NAD1001    -0.4371
     26  O2N       65.5120   66.0410   10.6890 O.2   1001  NAD1001    -0.5170
     27  O5D       64.1970   64.2680   11.8330 O.3   1001  NAD1001    -0.3112
     28  C5D       63.2330   65.1610   12.3970 C.3   1001  NAD1001     0.1813
     29  C4D       62.0180   64.4000   12.9410 C.3   1001  NAD1001     0.1799
     30  O4D       61.4150   63.6830   11.8870 O.3   1001  NAD1001    -0.3327
     31  C3D       62.3380   63.3630   14.0070 C.3   1001  NAD1001     0.2158
     32  O3D       61.4490   63.5980   15.0720 O.3   1001  NAD1001    -0.2175
     33  C2D       62.0840   62.0050   13.3510 C.3   1001  NAD1001     0.2309
     34  O2D       61.5650   61.0410   14.2300 O.3   1001  NAD1001    -0.2158
     35  C1D       61.0450   62.3880   12.3130 C.3   1001  NAD1001     0.2263
     36  N1N       60.9480   61.4520   11.1840 N.pl3 1001  NAD1001    -0.2787
     37  C2N       59.8550   60.5980   11.1420 C.3   1001  NAD1001     0.1244
     38  C3N       59.7250   59.6800   10.0790 C.2   1001  NAD1001     0.0544
     39  C7N       58.6220   58.6700   10.0780 C.2   1001  NAD1001     0.2818
     40  O7N       58.5880   57.7760    9.0130 O.2   1001  NAD1001    -0.2670
     41  N7N       57.7190   58.6510   11.0500 N.am  1001  NAD1001    -0.0839
     42  C4N       60.7110   59.6320    9.0660 C.2   1001  NAD1001     0.0033
     43  C5N       61.8200   60.4960    9.1350 C.2   1001  NAD1001     0.0157
     44  C6N       61.9170   61.4110   10.1880 C.2   1001  NAD1001     0.0633
@<TRIPOS>BOND
     1    40    39    2
     2    42    43    1
     3    42    38    2
     4    43    44    2
     5    39    38    1
     6    39    41   am
     7    38    37    1
     8    44    36    1
     9    26    24    2
    10    25    24    1
    11    37    36    1
    12    36    35    1
    13    24    27    1
    14    24    23    1
    15    27    28    1
    16    30    35    1
    17    30    29    1
    18    35    33    1
    19     2     1    2
    20    28    29    1
    21    23     1    1
    22    29    31    1
    23    33    31    1
    24    33    34    1
    25     1     3    1
    26     1     4    1
    27    31    32    1
    28     4     5    1
    29     5     6    1
    30     6     7    1
    31     6     8    1
    32     7    12    1
    33    14    15    1
    34    14    13    1
    35    15    16    2
    36    13    12    1
    37    13    22    1
    38     8    10    1
    39     8     9    1
    40    12    10    1
    41    16    22    1
    42    16    17    1
    43    10    11    1
    44    18    17    1
    45    22    21    2
    46    17    19    2
    47    21    20    1
    48    19    20    1
