@<TRIPOS>MOLECULE
2g8z_III_P_1.pdb
 36 40 0 0 0
SMALL
GASTEIGER

@<TRIPOS>ATOM
      1  N          2.7930   41.6000   17.6710 N.3     1  TRP1       -0.1228
      2  CA         1.4570   41.9950   18.2750 C.3     1  TRP1        0.1719
      3  C          1.6970   42.4700   19.7060 C.2     1  TRP1        0.2437
      4  O          1.0440   43.3830   20.1860 O.2     1  TRP1       -0.2733
      5  CB         0.5050   40.7910   18.2660 C.3     1  TRP1        0.0526
      6  CG        -0.3850   40.5620   19.4800 C.2     1  TRP1       -0.0139
      7  CD1       -0.7560   41.4550   20.4720 C.2     1  TRP1        0.0907
      8  CD2       -1.0920   39.3660   19.7450 C.3     1  TRP1        0.0819
      9  NE1       -1.6560   40.8620   21.3300 N.2     1  TRP1       -0.2482
     10  CE2       -1.8760   39.5720   20.9050 C.2     1  TRP1        0.0665
     11  CE3       -1.1380   38.1190   19.1050 C.2     1  TRP1       -0.0164
     12  CZ2       -2.6940   38.5700   21.4400 C.2     1  TRP1        0.0153
     13  CZ3       -1.9430   37.1350   19.6230 C.2     1  TRP1       -0.0038
     14  CH2       -2.7160   37.3600   20.7810 C.2     1  TRP1        0.0009
     15  N          2.5500   41.7470   20.4440 N.am    2  PRO2       -0.2718
     16  CA         2.9550   41.9730   21.8240 C.3     2  PRO2        0.1535
     17  C          3.3820   43.4190   22.1920 C.2     2  PRO2        0.2599
     18  O          4.3210   43.6140   22.9680 O.2     2  PRO2       -0.2715
     19  CB         4.0770   40.9550   21.9930 C.3     2  PRO2        0.0310
     20  CG         3.4540   39.7260   21.2890 C.3     2  PRO2        0.0237
     21  CD         2.7240   40.3060   20.0950 C.3     2  PRO2        0.0939
     22  N          2.6550   44.4040   21.6530 N.am    3  TRP3       -0.1938
     23  CA         2.8960   45.8370   21.8870 C.3     3  TRP3        0.2021
     24  C          2.1820   46.2580   23.1830 C.2     3  TRP3        0.3845
     25  O          1.2670   47.1270   23.1150 O.co2   3  TRP3       -0.2437
     26  CB         2.3280   46.6410   20.7060 C.3     3  TRP3        0.0612
     27  CG         3.2730   47.6020   19.9740 C.2     3  TRP3        0.0004
     28  CD1        3.1240   48.9640   19.8710 C.2     3  TRP3        0.0946
     29  CD2        4.4050   47.2660   19.1380 C.2     3  TRP3        0.0113
     30  NE1        4.0720   49.4880   19.0240 N.2     3  TRP3       -0.2442
     31  CE2        4.8740   48.4730   18.5610 C.2     3  TRP3        0.0804
     32  CE3        5.0650   46.0660   18.8210 C.2     3  TRP3       -0.0202
     33  CZ2        5.9690   48.5210   17.6820 C.2     3  TRP3        0.0148
     34  CZ3        6.1640   46.1120   17.9380 C.3     3  TRP3        0.0521
     35  CH2        6.5990   47.3350   17.3830 C.2     3  TRP3       -0.0199
     36  OXT        2.5450   45.7050   24.2490 O.co2   3  TRP3       -0.2437
@<TRIPOS>BOND
     1    35    33    2
     2    35    34    1
     3     1     2    1
     4    33    31    1
     5    34    32    1
     6     5     2    1
     7     5     6    1
     8     2     3    1
     9    31    30    2
    10    31    29    1
    11    32    29    2
    12    30    28    1
    13    11    13    2
    14    11     8    1
    15    29    27    1
    16     6     8    1
    17     6     7    2
    18    13    14    1
    19     3     4    2
    20     3    15   am
    21     8    10    1
    22    28    27    2
    23    27    26    1
    24    21    15    1
    25    21    20    1
    26    15    16    1
    27     7     9    1
    28    26    23    1
    29    14    12    2
    30    10     9    2
    31    10    12    1
    32    20    19    1
    33    22    23    1
    34    22    17   am
    35    16    19    1
    36    16    17    1
    37    23    24    1
    38    17    18    2
    39    25    24   ar
    40    24    36   ar
