@<TRIPOS>MOLECULE
2g93_MMA_A_1.pdb
 13 13 0 0 0
SMALL
GASTEIGER

@<TRIPOS>ATOM
      1  C1         9.6750   18.0000   16.5310 C.3   687  MMA687      0.2695
      2  C2        10.8660   18.8710   16.9270 C.3   687  MMA687      0.2406
      3  C3        10.8830   19.1160   18.4360 C.3   687  MMA687      0.2198
      4  C4         9.5100   19.5230   18.9690 C.3   687  MMA687      0.2144
      5  C5         8.4010   18.6340   18.4060 C.3   687  MMA687      0.1835
      6  C6         7.0140   19.1270   18.8160 C.3   687  MMA687      0.2142
      7  C7         9.0550   16.6830   14.5540 C.3   687  MMA687      0.1769
      8  O1         9.6270   17.8510   15.1270 O.3   687  MMA687     -0.3259
      9  O2        10.8240   20.1000   16.2340 O.3   687  MMA687     -0.2149
     10  O3        11.8370   20.1090   18.7440 O.3   687  MMA687     -0.2174
     11  O4         9.5180   19.4350   20.3770 O.3   687  MMA687     -0.2176
     12  O5         8.4800   18.5950   16.9940 O.3   687  MMA687     -0.3256
     13  O6         6.2980   18.0820   19.4370 O.3   687  MMA687     -0.2176
@<TRIPOS>BOND
     1     7     8    1
     2     8     1    1
     3     9     2    1
     4     1     2    1
     5     1    12    1
     6     2     3    1
     7    12     5    1
     8     5     6    1
     9     5     4    1
    10     3    10    1
    11     3     4    1
    12     6    13    1
    13     4    11    1
