@<TRIPOS>MOLECULE
2g94_ZPQ_A_1.pdb
 45 45 0 0 0
SMALL
GASTEIGER

@<TRIPOS>ATOM
      1  C11        1.9840   -5.6010   34.5190 C.ar  1001  ZPQ1001     0.0309
      2  C12        2.8960   -4.4190   34.3400 C.ar  1001  ZPQ1001     0.0802
      3  N11        3.1050   -4.3720   32.7670 N.ar  1001  ZPQ1001    -0.1709
      4  N12        2.3600   -5.4370   32.2460 N.ar  1001  ZPQ1001    -0.2143
      5  C13        1.6920   -6.1680   33.3200 C.ar  1001  ZPQ1001     0.0609
      6  C14        3.5180   -3.4650   35.2730 C.3   1001  ZPQ1001     0.0540
      7  C15        2.2360   -5.8200   30.8060 C.3   1001  ZPQ1001     0.3414
      8  O11        0.9210   -5.6910   30.2630 O.3   1001  ZPQ1001    -0.4077
      9  C16        0.3730   -4.4380   30.1400 C.2   1001  ZPQ1001     0.4232
     10  C17        0.8010   -7.3800   33.1860 C.3   1001  ZPQ1001     0.0519
     11  O12        0.9980   -3.3940   30.3070 O.2   1001  ZPQ1001    -0.2245
     12  N2        -0.9370   -4.4500   29.8110 N.am  1001  ZPQ1001    -0.1592
     13  C21       -1.8500   -3.3340   29.6050 C.3   1001  ZPQ1001     0.1995
     14  C22       -2.0480   -3.1530   28.0760 C.3   1001  ZPQ1001     0.1819
     15  S2        -0.8900   -2.0900   27.2550 S.O2  1001  ZPQ1001    -0.0060
     16  O22       -1.5140   -1.6570   26.0290 O.2   1001  ZPQ1001    -0.1729
     17  O23       -0.4950   -1.0130   28.1650 O.2   1001  ZPQ1001    -0.1729
     18  C23        0.4660   -3.1910   26.9130 C.3   1001  ZPQ1001     0.1761
     19  C25       -3.1140   -3.7990   30.2500 C.2   1001  ZPQ1001     0.2632
     20  O2        -4.1370   -4.0120   29.6070 O.2   1001  ZPQ1001    -0.2714
     21  N3        -3.0360   -3.9860   31.6190 N.am  1001  ZPQ1001    -0.2031
     22  C31       -4.2220   -4.4770   32.3760 C.3   1001  ZPQ1001     0.1256
     23  C32       -4.9840   -3.3880   33.1830 C.3   1001  ZPQ1001     0.1722
     24  C33       -3.7950   -5.6640   33.3040 C.3   1001  ZPQ1001     0.0243
     25  C34       -3.2620   -6.9030   32.5090 C.3   1001  ZPQ1001     0.0018
     26  C35       -4.3290   -7.5100   31.5750 C.3   1001  ZPQ1001     0.0001
     27  C36       -2.8050   -7.9870   33.5000 C.3   1001  ZPQ1001     0.0001
     28  C37       -5.3600   -2.1940   32.2830 C.3   1001  ZPQ1001     0.0438
     29  C38       -6.6620   -1.5430   32.7540 C.3   1001  ZPQ1001     0.0808
     30  C39       -6.7260   -0.1000   32.2390 C.3   1001  ZPQ1001     0.0097
     31  C30       -7.8780   -2.2990   32.2090 C.2   1001  ZPQ1001     0.2414
     32  O31       -4.1550   -2.8940   34.2330 O.3   1001  ZPQ1001    -0.2213
     33  O32       -7.9100   -2.7650   31.0800 O.2   1001  ZPQ1001    -0.2733
     34  N4        -8.9360   -2.3980   33.0750 N.am  1001  ZPQ1001    -0.1978
     35  C41      -10.1770   -3.0790   32.6600 C.3   1001  ZPQ1001     0.1726
     36  C42      -11.0690   -3.4600   33.8710 C.3   1001  ZPQ1001     0.0290
     37  C43      -12.2430   -4.3610   33.4340 C.3   1001  ZPQ1001     0.0023
     38  C44      -11.6220   -2.2120   34.5570 C.3   1001  ZPQ1001     0.0023
     39  C45      -10.8820   -2.1360   31.6360 C.2   1001  ZPQ1001     0.2612
     40  O4       -10.7850   -0.9330   31.7260 O.2   1001  ZPQ1001    -0.2715
     41  N5       -11.6110   -2.7780   30.6420 N.am  1001  ZPQ1001    -0.2040
     42  C51      -12.3520   -2.0350   29.5950 C.3   1001  ZPQ1001     0.1151
     43  C52      -11.6910   -2.1750   28.1840 C.3   1001  ZPQ1001     0.0217
     44  C53      -10.3120   -1.5090   28.1490 C.3   1001  ZPQ1001     0.0018
     45  C54      -11.5290   -3.6470   27.8150 C.3   1001  ZPQ1001     0.0018
@<TRIPOS>BOND
     1    16    15    2
     2    18    15    1
     3    15    14    1
     4    15    17    2
     5    45    43    1
     6    14    13    1
     7    44    43    1
     8    43    42    1
     9    42    41    1
    10    13    12    1
    11    13    19    1
    12    20    19    2
    13    12     9   am
    14     9     8    1
    15     9    11    2
    16    19    21   am
    17     8     7    1
    18    41    39   am
    19     7     4    1
    20    33    31    2
    21    26    25    1
    22    21    22    1
    23    39    40    2
    24    39    35    1
    25    31    29    1
    26    31    34   am
    27    30    29    1
    28     4     3   ar
    29     4     5   ar
    30    28    29    1
    31    28    23    1
    32    22    23    1
    33    22    24    1
    34    25    24    1
    35    25    27    1
    36    35    34    1
    37    35    36    1
    38     3     2   ar
    39    23    32    1
    40    10     5    1
    41     5     1   ar
    42    37    36    1
    43    36    38    1
    44     2     1   ar
    45     2     6    1
