@<TRIPOS>MOLECULE
2g96_NMN_A_1.pdb
 22 23 0 0 0
SMALL
GASTEIGER

@<TRIPOS>ATOM
      1  O3P       14.5180   99.4000   11.4700 O.3   1001  NMN1001    -0.1145
      2  P         14.2510   98.4070   10.2970 P.3   1001  NMN1001     0.5327
      3  O1P       15.4210   98.3110    9.4380 O.2   1001  NMN1001    -0.2224
      4  O2P       13.0100   98.9020    9.6460 O.3   1001  NMN1001    -0.1145
      5  O5R       14.0450   97.0310   11.0480 O.3   1001  NMN1001    -0.2675
      6  C5R       13.0620   96.9400   12.1440 C.3   1001  NMN1001     0.1859
      7  C4R       12.0460   95.8660   11.8040 C.3   1001  NMN1001     0.1801
      8  O4R       11.2480   95.5480   12.9670 O.3   1001  NMN1001    -0.3327
      9  C3R       11.0130   96.2210   10.6560 C.3   1001  NMN1001     0.2158
     10  O3R       10.9520   95.1730    9.6790 O.3   1001  NMN1001    -0.2175
     11  C2R        9.7070   96.4340   11.3630 C.3   1001  NMN1001     0.2309
     12  O2R        8.5570   96.0420   10.5990 O.3   1001  NMN1001    -0.2158
     13  C1R        9.8320   95.6680   12.6310 C.3   1001  NMN1001     0.2263
     14  N1         9.1390   96.3150   13.7680 N.pl3 1001  NMN1001    -0.2787
     15  C2         7.7300   96.2240   13.8300 C.3   1001  NMN1001     0.1244
     16  C3         7.0720   96.8220   14.8830 C.2   1001  NMN1001     0.0544
     17  C7         5.5500   96.7040   14.9150 C.2   1001  NMN1001     0.2818
     18  O7         4.9960   97.2310   15.8380 O.2   1001  NMN1001    -0.2670
     19  N7         4.8990   96.0580   13.9700 N.am  1001  NMN1001    -0.0839
     20  C4         7.8260   97.5600   15.9430 C.2   1001  NMN1001     0.0033
     21  C5         9.2640   97.6350   15.8490 C.2   1001  NMN1001     0.0157
     22  C6         9.9500   97.0160   14.7620 C.2   1001  NMN1001     0.0633
@<TRIPOS>BOND
     1     3     2    2
     2     4     2    1
     3    10     9    1
     4     2     5    1
     5     2     1    1
     6    12    11    1
     7     9    11    1
     8     9     7    1
     9     5     6    1
    10    11    13    1
    11     7     6    1
    12     7     8    1
    13    13     8    1
    14    13    14    1
    15    14    15    1
    16    14    22    1
    17    15    16    1
    18    19    17   am
    19    22    21    2
    20    16    17    1
    21    16    20    2
    22    17    18    2
    23    21    20    1
