@<TRIPOS>MOLECULE
2g97_DGB_A_1.pdb
 29 31 0 0 0
SMALL
GASTEIGER

@<TRIPOS>ATOM
      1  CAK       -3.6740  103.1150   10.4560 C.ar  1001  DGB1001     0.0045
      2  CAF       -3.4850  103.4210    9.1100 C.ar  1001  DGB1001     0.0001
      3  CAE       -4.3770  104.2690    8.4610 C.ar  1001  DGB1001     0.0000
      4  CAG       -5.4600  104.8040    9.1560 C.ar  1001  DGB1001     0.0001
      5  CAL       -5.6530  104.4970   10.4980 C.ar  1001  DGB1001     0.0045
      6  CBA       -4.7520  103.6540   11.1490 C.ar  1001  DGB1001     0.0536
      7  CAY       -4.8800  103.4030   12.6540 C.2   1001  DGB1001     0.2490
      8  OAB       -5.9570  103.0530   13.1350 O.2   1001  DGB1001    -0.2699
      9  NBC       -3.8200  103.6100   13.4390 N.am  1001  DGB1001    -0.2761
     10  CAU       -2.5920  104.2320   12.8910 C.3   1001  DGB1001     0.0937
     11  CAS       -1.3600  103.4280   13.3140 C.3   1001  DGB1001     0.0216
     12  CAT       -3.8580  103.3360   14.8960 C.3   1001  DGB1001     0.0937
     13  CAR       -2.6060  102.5520   15.3100 C.3   1001  DGB1001     0.0216
     14  CBB       -1.3340  103.2640   14.8360 C.3   1001  DGB1001     0.0034
     15  CAQ       -0.0320  102.6240   15.3340 C.3   1001  DGB1001     0.0002
     16  CAO        0.3660  101.2730   14.7310 C.3   1001  DGB1001     0.0018
     17  CAN        1.8840  101.2210   14.5140 C.3   1001  DGB1001     0.0234
     18  CAP        2.4400   99.8160   14.2670 C.3   1001  DGB1001     0.1155
     19  NAW        2.0990   98.9680   15.4260 N.am  1001  DGB1001    -0.2017
     20  CAX        2.9280   98.2470   16.1590 C.2   1001  DGB1001     0.2649
     21  OAA        2.5030   97.6710   17.1640 O.2   1001  DGB1001    -0.2684
     22  CAC        4.3100   98.1540   15.9160 C.2   1001  DGB1001     0.0595
     23  CAD        4.9120   97.5680   14.8150 C.2   1001  DGB1001     0.0063
     24  CAZ        6.3050   97.5070   14.6480 C.ar  1001  DGB1001     0.0193
     25  CAJ        6.8410   96.7720   13.5910 C.ar  1001  DGB1001     0.0031
     26  CAH        8.2170   96.5810   13.5010 C.ar  1001  DGB1001     0.0207
     27  CAI        9.0440   97.1570   14.4600 C.ar  1001  DGB1001     0.0989
     28  NAV        8.5110   97.8670   15.4410 N.ar  1001  DGB1001    -0.2423
     29  CAM        7.2000   98.0400   15.5640 C.ar  1001  DGB1001     0.0988
@<TRIPOS>BOND
     1     3     2   ar
     2     3     4   ar
     3     2     1   ar
     4     4     5   ar
     5     1     6   ar
     6     5     6   ar
     7     6     7    1
     8     7     8    2
     9     7     9   am
    10    10    11    1
    11    10     9    1
    12    11    14    1
    13     9    12    1
    14    26    25   ar
    15    26    27   ar
    16    25    24   ar
    17    18    17    1
    18    18    19    1
    19    27    28   ar
    20    17    16    1
    21    24    23    1
    22    24    29   ar
    23    16    15    1
    24    23    22    2
    25    14    13    1
    26    14    15    1
    27    12    13    1
    28    19    20   am
    29    28    29   ar
    30    22    20    1
    31    20    21    2
