@<TRIPOS>MOLECULE
2g99_III_C_1.pdb
 43 42 0 0 0
SMALL
GASTEIGER

@<TRIPOS>ATOM
      1  N         -5.0330    4.2500  -47.1560 N.3     1  ALA1       -0.1231
      2  CA        -4.3010    3.8360  -45.9700 C.3     1  ALA1        0.1694
      3  C         -5.2230    3.7930  -44.7530 C.2     1  ALA1        0.2592
      4  O         -6.4190    4.0660  -44.8560 O.2     1  ALA1       -0.2718
      5  CB        -3.1320    4.7910  -45.7180 C.3     1  ALA1        0.0304
      6  N         -4.6530    3.4420  -43.6080 N.am    2  ARG2       -0.1966
      7  CA        -5.3890    3.3400  -42.3530 C.3     2  ARG2        0.1729
      8  C         -6.1570    4.6110  -41.9820 C.2     2  ARG2        0.2617
      9  O         -7.1640    4.5510  -41.2740 O.2     2  ARG2       -0.2715
     10  CB        -4.4070    2.9870  -41.2280 C.3     2  ARG2        0.0348
     11  CG        -5.0170    2.8490  -39.8510 C.3     2  ARG2        0.0492
     12  CD        -3.9080    2.7220  -38.8060 C.3     2  ARG2        0.2205
     13  NE        -3.0170    1.5890  -39.0760 N.pl3   2  ARG2       -0.0865
     14  CZ        -3.2240    0.3460  -38.6450 C.cat   2  ARG2        0.5346
     15  NH1       -4.2960    0.0600  -37.9160 N.pl3   2  ARG2        0.1354
     16  NH2       -2.3510   -0.6140  -38.9330 N.pl3   2  ARG2        0.1354
     17  N         -5.6810    5.7530  -42.4650 N.am    3  THR3       -0.1937
     18  CA        -6.2990    7.0450  -42.1650 C.3     3  THR3        0.2028
     19  C         -7.6300    7.3150  -42.8570 C.2     3  THR3        0.2642
     20  O         -8.2940    8.3150  -42.5710 O.2     3  THR3       -0.2714
     21  CB        -5.3470    8.1960  -42.5100 C.3     3  THR3        0.1808
     22  OG1       -4.9600    8.1000  -43.8880 O.3     3  THR3       -0.2208
     23  CG2       -4.1080    8.1330  -41.6300 C.3     3  THR3        0.0379
     24  N         -8.0140    6.4260  -43.7660 N.am    4  LYS4       -0.1963
     25  CA        -9.2630    6.5680  -44.4990 C.3     4  LYS4        0.1728
     26  CB        -8.9810    6.5620  -46.0050 C.3     4  LYS4        0.0311
     27  CG        -9.1170    7.9100  -46.7040 C.3     4  LYS4        0.0037
     28  CD        -8.7420    9.0800  -45.8100 C.3     4  LYS4        0.0174
     29  CE        -8.5680   10.3500  -46.6240 C.3     4  LYS4        0.0722
     30  NZ        -8.8830   11.6670  -45.9870 N.3     4  LYS4       -0.2703
     31  CH1      -10.2850   11.9140  -45.5350 C.3     4  LYS4        0.0897
     32  CH2       -8.4360   12.9360  -46.6220 C.3     4  LYS4        0.0897
     33  C        -10.1900    5.4160  -44.1410 C.2     4  LYS4        0.2616
     34  O         -9.7300    4.3330  -43.7790 O.2     4  LYS4       -0.2715
     35  N        -11.4910    5.6560  -44.2360 N.am    5  GLN5       -0.1977
     36  CA       -12.4800    4.6320  -43.9310 C.3     5  GLN5        0.1601
     37  C        -12.5610    3.6080  -45.0560 C.2     5  GLN5        0.2287
     38  O        -12.4460    2.4050  -44.8210 O.2     5  GLN5       -0.2864
     39  CB       -13.8530    5.2700  -43.7180 C.3     5  GLN5        0.0394
     40  CG       -13.9420    6.1460  -42.4820 C.3     5  GLN5        0.0908
     41  CD       -15.3300    6.7090  -42.2730 C.2     5  GLN5        0.2608
     42  OE1      -16.3210    5.9830  -42.3510 O.2     5  GLN5       -0.2717
     43  NE2      -15.4100    8.0070  -41.9960 N.am    5  GLN5       -0.0878
@<TRIPOS>BOND
     1     1     2    1
     2    27    26    1
     3    27    28    1
     4    29    30    1
     5    29    28    1
     6    32    30    1
     7    26    25    1
     8    30    31    1
     9     2     5    1
    10     2     3    1
    11    37    38    2
    12    37    36    1
    13     4     3    2
    14     3     6   am
    15    25    33    1
    16    25    24    1
    17    35    33   am
    18    35    36    1
    19    33    34    2
    20    36    39    1
    21    22    21    1
    22    24    19   am
    23    39    40    1
    24     6     7    1
    25    19    20    2
    26    19    18    1
    27    21    18    1
    28    21    23    1
    29    40    41    1
    30    17    18    1
    31    17     8   am
    32     7     8    1
    33     7    10    1
    34    42    41    2
    35    41    43   am
    36     8     9    2
    37    10    11    1
    38    11    12    1
    39    13    12    1
    40    13    14    2
    41    16    14    1
    42    14    15    1
