@<TRIPOS>MOLECULE
2g9a_III_B_1.pdb
 43 42 0 0 0
SMALL
GASTEIGER

@<TRIPOS>ATOM
      1  N         -6.3110  -19.7740   32.5120 N.3     1  ALA1       -0.1231
      2  CA        -6.1240  -18.8200   31.4270 C.3     1  ALA1        0.1694
      3  C         -4.8120  -19.0870   30.7080 C.2     1  ALA1        0.2592
      4  O         -3.8020  -19.3980   31.3390 O.2     1  ALA1       -0.2718
      5  CB        -6.1400  -17.3930   31.9700 C.3     1  ALA1        0.0304
      6  N         -4.8460  -18.9670   29.3830 N.am    2  ARG2       -0.1966
      7  CA        -3.6780  -19.1840   28.5320 C.3     2  ARG2        0.1729
      8  C         -2.6240  -18.1080   28.8120 C.2     2  ARG2        0.2617
      9  O         -1.4410  -18.2700   28.5040 O.2     2  ARG2       -0.2715
     10  CB        -4.1100  -19.1270   27.0570 C.3     2  ARG2        0.0348
     11  CG        -2.9900  -19.3160   26.0350 C.3     2  ARG2        0.0492
     12  CD        -3.4680  -18.9890   24.6200 C.3     2  ARG2        0.2205
     13  NE        -4.5230  -19.8930   24.1730 N.pl3   2  ARG2       -0.0865
     14  CZ        -4.3190  -21.1490   23.7930 C.cat   2  ARG2        0.5346
     15  NH1       -3.0920  -21.6490   23.8000 N.pl3   2  ARG2        0.1354
     16  NH2       -5.3430  -21.9090   23.4130 N.pl3   2  ARG2        0.1354
     17  N         -3.0780  -17.0180   29.4180 N.am    3  THR3       -0.1937
     18  CA        -2.2270  -15.8830   29.7340 C.3     3  THR3        0.2028
     19  C         -1.5210  -15.9750   31.0900 C.2     3  THR3        0.2642
     20  O         -0.9380  -14.9980   31.5560 O.2     3  THR3       -0.2714
     21  CB        -3.0520  -14.5830   29.6860 C.3     3  THR3        0.1808
     22  OG1       -4.1410  -14.6840   30.6110 O.3     3  THR3       -0.2208
     23  CG2       -3.6070  -14.3470   28.2790 C.3     3  THR3        0.0379
     24  N         -1.5750  -17.1460   31.7170 N.am    4  LYS4       -0.1963
     25  CA        -0.9310  -17.3670   33.0120 C.3     4  LYS4        0.1728
     26  CB        -1.9990  -17.5420   34.0980 C.3     4  LYS4        0.0311
     27  CG        -1.7070  -16.8260   35.4090 C.3     4  LYS4        0.0037
     28  CD        -1.6760  -15.3120   35.2250 C.3     4  LYS4        0.0174
     29  CE        -1.6850  -14.5870   36.5690 C.3     4  LYS4        0.0722
     30  NZ        -1.5700  -13.0860   36.5870 N.3     4  LYS4       -0.2703
     31  CH1       -0.4180  -12.4080   35.9090 C.3     4  LYS4        0.0897
     32  CH2       -1.7770  -12.3020   37.8420 C.3     4  LYS4        0.0897
     33  C         -0.0770  -18.6400   32.8980 C.2     4  LYS4        0.2616
     34  O         -0.4910  -19.6070   32.2540 O.2     4  LYS4       -0.2715
     35  N          1.1040  -18.6440   33.5190 N.am    5  GLN5       -0.1977
     36  CA         2.0050  -19.8040   33.4540 C.3     5  GLN5        0.1601
     37  C          1.5890  -20.9940   34.3350 C.2     5  GLN5        0.2287
     38  O          2.4760  -21.5660   35.0110 O.2     5  GLN5       -0.2864
     39  CB         3.4270  -19.3710   33.8250 C.3     5  GLN5        0.0394
     40  CG         4.0110  -18.3220   32.9000 C.3     5  GLN5        0.0908
     41  CD         5.2420  -17.6510   33.4780 C.2     5  GLN5        0.2608
     42  OE1        6.2720  -18.2880   33.6930 O.2     5  GLN5       -0.2717
     43  NE2        5.1370  -16.3540   33.7400 N.am    5  GLN5       -0.0878
@<TRIPOS>BOND
     1    16    14    1
     2    14    15    1
     3    14    13    2
     4    13    12    1
     5    12    11    1
     6    11    10    1
     7    10     7    1
     8    23    21    1
     9     9     8    2
    10     7     8    1
    11     7     6    1
    12     8    17   am
    13     6     3   am
    14    17    18    1
    15    21    18    1
    16    21    22    1
    17    18    19    1
    18     3     4    2
    19     3     2    1
    20    19    20    2
    21    19    24   am
    22     2     5    1
    23     2     1    1
    24    24    25    1
    25    34    33    2
    26    33    25    1
    27    33    35   am
    28    40    41    1
    29    40    39    1
    30    25    26    1
    31    36    35    1
    32    36    39    1
    33    36    37    1
    34    41    42    2
    35    41    43   am
    36    26    27    1
    37    37    38    2
    38    28    27    1
    39    28    29    1
    40    31    30    1
    41    29    30    1
    42    30    32    1
