@<TRIPOS>MOLECULE
2g9k_NE1_A_1.pdb
 18 19 0 0 0
SMALL
GASTEIGER

@<TRIPOS>ATOM
      1 CL18       -0.1460   42.7890   31.1290 Cl    501  NE1501     -0.0813
      2  C10       -0.0690   42.7550   29.3700 C.ar  501  NE1501      0.0690
      3  C9         0.8030   41.8950   28.6930 C.ar  501  NE1501      0.0787
      4 CL17        1.8580   40.8460   29.6030 Cl    501  NE1501     -0.0805
      5  C8         0.8630   41.8760   27.3010 C.ar  501  NE1501      0.0690
      6 CL16        2.1090   40.8630   26.5230 Cl    501  NE1501     -0.0813
      7  C11       -0.8810   43.6050   28.6710 C.ar  501  NE1501      0.0123
      8  C12       -0.8330   43.5960   27.2870 C.ar  501  NE1501      0.0018
      9  C7         0.0270   42.7240   26.5580 C.ar  501  NE1501      0.0115
     10  C4         0.0180   42.7110   25.1660 C.ar  501  NE1501      0.0027
     11  C3        -0.2130   43.8930   24.4450 C.ar  501  NE1501      0.0147
     12  C2        -0.2410   43.8750   23.0590 C.ar  501  NE1501      0.0973
     13 CL14       -0.5200   45.3810   22.2060 Cl    501  NE1501     -0.0789
     14  C5         0.1980   41.5060   24.4230 C.ar  501  NE1501      0.0147
     15  C6         0.1700   41.4890   23.0360 C.ar  501  NE1501      0.0973
     16 CL13        0.3980   39.9580   22.1550 Cl    501  NE1501     -0.0789
     17  C1        -0.0480   42.6730   22.3560 C.ar  501  NE1501      0.2165
     18  O15       -0.0770   42.6550   20.9900 O.3   501  NE1501     -0.2848
@<TRIPOS>BOND
     1    18    17    1
     2    16    15    1
     3    13    12    1
     4    17    15   ar
     5    17    12   ar
     6    15    14   ar
     7    12    11   ar
     8    14    10   ar
     9    11    10   ar
    10    10     9    1
    11     6     5    1
    12     9     8   ar
    13     9     5   ar
    14     8     7   ar
    15     5     3   ar
    16     7     2   ar
    17     3     2   ar
    18     3     4    1
    19     2     1    1
