@<TRIPOS>MOLECULE
2g9r_G27_A_1.pdb
 19 20 0 0 0
SMALL
GASTEIGER

@<TRIPOS>ATOM
      1  C12       36.3100   28.3610   29.4400 C.ar  998  G27998     -0.0043
      2  C13       36.5660   29.7250   29.2790 C.ar  998  G27998     -0.0003
      3  C14       37.2600   30.1720   28.1560 C.ar  998  G27998     -0.0000
      4  C15       37.6950   29.2530   27.2010 C.ar  998  G27998     -0.0003
      5  C16       37.4370   27.8900   27.3640 C.ar  998  G27998     -0.0043
      6  C11       36.7350   27.4440   28.4810 C.ar  998  G27998     -0.0221
      7  C10       36.4600   25.9490   28.6790 C.3   998  G27998      0.0278
      8  C9        35.1750   25.4550   28.0060 C.3   998  G27998      0.0220
      9  C8        35.1020   23.9240   28.1570 C.3   998  G27998      0.0725
     10  N1        33.9240   23.3320   27.4930 N.3   998  G27998     -0.2703
     11  C7        33.7790   21.9430   28.0080 C.3   998  G27998      0.0774
     12  C2        34.0630   23.3660   26.0120 C.3   998  G27998      0.1080
     13  C3        32.8320   22.7170   25.3360 C.3   998  G27998      0.1981
     14  O3        33.0400   22.6620   23.9270 O.3   998  G27998     -0.2189
     15  C4        32.5810   21.2920   25.8610 C.3   998  G27998      0.1873
     16  O4        31.3540   20.7940   25.3040 O.3   998  G27998     -0.2202
     17  C5        32.5330   21.2690   27.4110 C.3   998  G27998      0.0820
     18  C6        32.3830   19.8510   27.9890 C.3   998  G27998      0.1860
     19  O6        33.3670   18.9650   27.4360 O.3   998  G27998     -0.2203
@<TRIPOS>BOND
     1    14    13    1
     2    16    15    1
     3    13    15    1
     4    13    12    1
     5    15    17    1
     6    12    10    1
     7     4     5   ar
     8     4     3   ar
     9     5     6   ar
    10    17    18    1
    11    17    11    1
    12    19    18    1
    13    10    11    1
    14    10     9    1
    15     8     9    1
    16     8     7    1
    17     3     2   ar
    18     6     7    1
    19     6     1   ar
    20     2     1   ar
