@<TRIPOS>MOLECULE
2g9u_G27_A_1.pdb
 19 20 0 0 0
SMALL
GASTEIGER

@<TRIPOS>ATOM
      1  C12       36.4760   28.1000   29.9550 C.ar  998  G27998     -0.0043
      2  C13       36.6920   29.4820   29.9620 C.ar  998  G27998     -0.0003
      3  C14       37.0370   30.1280   28.7760 C.ar  998  G27998     -0.0000
      4  C15       37.1690   29.3910   27.5960 C.ar  998  G27998     -0.0003
      5  C16       36.9440   28.0110   27.5890 C.ar  998  G27998     -0.0043
      6  C11       36.5870   27.3650   28.7700 C.ar  998  G27998     -0.0221
      7  C10       36.3600   25.8480   28.7980 C.3   998  G27998      0.0278
      8  C9        35.1390   25.3520   28.0110 C.3   998  G27998      0.0220
      9  C8        35.0440   23.8250   28.1780 C.3   998  G27998      0.0725
     10  N1        33.8630   23.2440   27.5130 N.3   998  G27998     -0.2703
     11  C7        33.7150   21.8340   27.9870 C.3   998  G27998      0.0774
     12  C2        33.9880   23.3490   26.0240 C.3   998  G27998      0.1080
     13  C3        32.7840   22.6750   25.3200 C.3   998  G27998      0.1981
     14  O3        33.0020   22.6610   23.9120 O.3   998  G27998     -0.2189
     15  C4        32.5790   21.2330   25.8070 C.3   998  G27998      0.1873
     16  O4        31.3950   20.6950   25.2000 O.3   998  G27998     -0.2202
     17  C5        32.4800   21.1810   27.3520 C.3   998  G27998      0.0820
     18  C6        32.2790   19.7600   27.9040 C.3   998  G27998      0.1860
     19  O6        33.2800   18.8580   27.4030 O.3   998  G27998     -0.2203
@<TRIPOS>BOND
     1    14    13    1
     2    16    15    1
     3    13    15    1
     4    13    12    1
     5    15    17    1
     6    12    10    1
     7    17    18    1
     8    17    11    1
     9    19    18    1
    10    10    11    1
    11    10     9    1
    12     5     4   ar
    13     5     6   ar
    14     4     3   ar
    15     8     9    1
    16     8     7    1
    17     6     7    1
    18     6     1   ar
    19     3     2   ar
    20     1     2   ar
