@<TRIPOS>MOLECULE
2g9v_IFM_A_1.pdb
 10 10 0 0 0
SMALL
GASTEIGER

@<TRIPOS>ATOM
      1  O4        31.5400   20.7970   25.2760 O.3   998  IFM998     -0.2202
      2  C4        32.7190   21.3240   25.9110 C.3   998  IFM998      0.1874
      3  C3        32.9430   22.7770   25.4470 C.3   998  IFM998      0.1995
      4  O3        33.1770   22.7770   24.0370 O.3   998  IFM998     -0.2189
      5  C2        34.1500   23.4190   26.1810 C.3   998  IFM998      0.1241
      6  N         33.9860   23.3020   27.6580 N.3   998  IFM998     -0.2151
      7  C1        33.8250   21.8890   28.1250 C.3   998  IFM998      0.0940
      8  C5        32.6080   21.2270   27.4560 C.3   998  IFM998      0.0834
      9  C6        32.4560   19.7810   27.9600 C.3   998  IFM998      0.1861
     10  O6        33.4890   18.9320   27.4220 O.3   998  IFM998     -0.2203
@<TRIPOS>BOND
     1     4     3    1
     2     1     2    1
     3     3     2    1
     4     3     5    1
     5     2     8    1
     6     5     6    1
     7    10     9    1
     8     8     9    1
     9     8     7    1
    10     6     7    1
