@<TRIPOS>MOLECULE
2g9x_NU5_A_1.pdb
 34 37 0 0 0
SMALL
GASTEIGER

@<TRIPOS>ATOM
      1  O2        -2.9360  -28.3320   26.8310 O.2   299  NU5299     -0.1686
      2  S1        -2.8770  -27.5210   25.6500 S.O2  299  NU5299      0.0101
      3  O3        -2.7900  -28.4260   24.5250 O.2   299  NU5299     -0.1686
      4  C22       -1.5680  -26.4910   25.7520 C.3   299  NU5299      0.1746
      5  C23       -0.4450  -26.9770   24.8550 C.3   299  NU5299      0.1144
      6  N6        -0.5150  -26.4000   23.5210 N.3   299  NU5299     -0.2161
      7  C24        0.7140  -25.9890   22.8510 C.3   299  NU5299      0.0915
      8  C25        0.8080  -26.5510   21.4330 C.3   299  NU5299      0.0543
      9  C26        1.1280  -28.0470   21.4110 C.3   299  NU5299      0.1836
     10  O4         0.0470  -28.7930   21.9940 O.3   299  NU5299     -0.2204
     11  C19       -4.2310  -26.6820   25.4720 C.ar  299  NU5299      0.1058
     12  C18       -5.3430  -27.0140   26.2290 C.ar  299  NU5299      0.0197
     13  C17       -6.5350  -26.3140   26.0770 C.ar  299  NU5299      0.0187
     14  C16       -6.6500  -25.2680   25.1710 C.ar  299  NU5299      0.0836
     15  C21       -5.5380  -24.9280   24.4000 C.ar  299  NU5299      0.0187
     16  C20       -4.3370  -25.6330   24.5530 C.ar  299  NU5299      0.0197
     17  N2        -7.8540  -24.6440   25.0980 N.pl3 299  NU5299     -0.1248
     18  C2        -8.2000  -23.6080   24.2970 C.1   299  NU5299      0.2364
     19  N1        -7.2940  -23.0690   23.4500 N.2   299  NU5299     -0.2865
     20  C6        -7.5790  -22.0300   22.6460 C.2   299  NU5299      0.3177
     21  C5        -8.9400  -21.4760   22.6850 C.2   299  NU5299      0.2195
     22  N7        -9.5900  -20.4930   22.0490 N.2   299  NU5299     -0.2273
     23  C8       -10.8510  -20.4910   22.5400 C.3   299  NU5299      0.2628
     24  N9       -11.0330  -21.4570   23.4810 N.2   299  NU5299     -0.1806
     25  C4        -9.8830  -22.1090   23.6190 C.1   299  NU5299      0.1221
     26  N3        -9.4650  -23.1400   24.3780 N.2   299  NU5299     -0.2702
     27  O6        -6.6440  -21.5150   21.8070 O.2   299  NU5299     -0.4497
     28  C9        -5.3010  -21.3330   22.2350 C.3   299  NU5299      0.2081
     29  C10       -4.4120  -21.9920   21.1740 C.3   299  NU5299      0.0438
     30  C15       -4.9830  -21.7410   19.7550 C.3   299  NU5299      0.0037
     31  C14       -4.0310  -21.2700   18.6500 C.3   299  NU5299      0.0001
     32  C13       -2.5620  -21.5290   18.9600 C.3   299  NU5299      0.0000
     33  C12       -2.2300  -20.9160   20.3190 C.3   299  NU5299      0.0001
     34  C11       -2.9340  -21.6660   21.4450 C.3   299  NU5299      0.0037
@<TRIPOS>BOND
     1    31    32    1
     2    31    30    1
     3    32    33    1
     4    30    29    1
     5    33    34    1
     6    29    34    1
     7    29    28    1
     8     9     8    1
     9     9    10    1
    10     8     7    1
    11    27    28    1
    12    27    20    1
    13    22    23    1
    14    22    21    2
    15    23    24    1
    16    20    21    1
    17    20    19    2
    18    21    25    1
    19     7     6    1
    20    19    18    2
    21    24    25    2
    22     6     5    1
    23    25    26    2
    24    18    26    2
    25    18    17    1
    26    15    16   ar
    27    15    14   ar
    28     3     2    2
    29    16    11   ar
    30     5     4    1
    31    17    14    1
    32    14    13   ar
    33    11     2    1
    34    11    12   ar
    35     2     4    1
    36     2     1    2
    37    13    12   ar
