@<TRIPOS>MOLECULE
2g9z_VNP_A_1.pdb
 26 27 0 0 0
SMALL
GASTEIGER

@<TRIPOS>ATOM
      1  O2G       28.7410   46.0530   24.8260 O.3   602  VNP602     -0.1240
      2  PG        28.9970   47.4940   24.1610 P.3   602  VNP602      0.4884
      3  O3G       28.5680   47.5050   22.7440 O.2   602  VNP602     -0.2331
      4  O1G       30.5740   47.7780   24.3110 O.3   602  VNP602     -0.1240
      5  N3B       28.2170   48.6110   25.0470 N.3   602  VNP602     -0.0165
      6  PB        28.0920   48.2340   26.6200 P.3   602  VNP602      0.4623
      7  O2B       27.5110   49.3870   27.3410 O.3   602  VNP602     -0.1255
      8  O1B       29.4090   47.7370   27.0770 O.2   602  VNP602     -0.2354
      9  O1        27.0520   47.0030   26.6520 O.3   602  VNP602     -0.2802
     10  C7        25.6970   47.0820   26.1950 C.3   602  VNP602      0.1537
     11  C12       24.9110   46.0490   27.0060 C.3   602  VNP602      0.0448
     12  C11       23.4370   45.8570   26.6370 C.3   602  VNP602      0.0661
     13  C10       23.1460   44.9820   25.4160 C.3   602  VNP602      0.0686
     14  CM4       24.0490   43.8200   24.9950 C.3   602  VNP602      0.0183
     15  S1        22.4580   47.3380   26.2180 S.3   602  VNP602     -0.1220
     16  C9        21.4340   46.4530   25.1100 C.3   602  VNP602      0.1316
     17  N5        22.0490   45.3300   24.7360 N.3   602  VNP602     -0.2601
     18  C7A       21.6160   44.5440   23.5690 C.3   602  VNP602      0.1054
     19  C5A       20.1220   44.6770   23.2600 C.2   602  VNP602      0.0616
     20  C6A       19.7950   45.2590   22.0420 C.2   602  VNP602      0.1112
     21  N1A       18.5400   45.3160   21.6320 N.2   602  VNP602     -0.1861
     22  C2A       17.5480   44.8180   22.3800 C.1   602  VNP602      0.0663
     23  CM2       16.1090   44.8700   21.8620 C.3   602  VNP602      0.1291
     24  N3A       17.8140   44.2570   23.5690 N.2   602  VNP602     -0.3368
     25  C4A       19.0720   44.1760   24.0250 C.2   602  VNP602      0.2289
     26  N4A       19.2940   43.6250   25.2140 N.pl3 602  VNP602     -0.0925
@<TRIPOS>BOND
     1    21    20    1
     2    21    22    2
     3    23    22    1
     4    20    19    2
     5    22    24    2
     6     3     2    2
     7    19    18    1
     8    19    25    1
     9    24    25    2
    10    18    17    1
    11    25    26    1
    12     2     4    1
    13     2     1    1
    14     2     5    1
    15    17    16    1
    16    17    13    1
    17    14    13    1
    18     5     6    1
    19    16    15    1
    20    13    12    1
    21    10     9    1
    22    10    11    1
    23    15    12    1
    24     6     9    1
    25     6     8    2
    26     6     7    1
    27    12    11    1
