@<TRIPOS>MOLECULE
2ga4_ADE_A_1.pdb
 10 11 0 0 0
SMALL
GASTEIGER

@<TRIPOS>ATOM
      1  N9         2.3600   63.0740   17.3200 N.2   701  ADE701     -0.1914
      2  C8         3.3850   63.5670   18.0740 C.3   701  ADE701      0.2618
      3  N7         3.0780   64.6410   18.8130 N.2   701  ADE701     -0.2267
      4  C5         1.7320   64.8460   18.4810 C.2   701  ADE701      0.2303
      5  C6         0.7840   65.8150   18.8810 C.2   701  ADE701      0.4393
      6  N6         1.1260   66.7840   19.7560 N.pl3 701  ADE701      0.2185
      7  N1        -0.4970   65.7270   18.3480 N.2   701  ADE701     -0.0265
      8  C2        -0.8390   64.7350   17.4550 C.3   701  ADE701      0.4008
      9  N3        -0.0150   63.7550   16.9950 N.2   701  ADE701     -0.1640
     10  C4         1.2790   63.8800   17.5630 C.1   701  ADE701      0.0579
@<TRIPOS>BOND
     1     9     8    1
     2     9    10    2
     3     1    10    2
     4     1     2    1
     5     8     7    1
     6    10     4    1
     7     2     3    1
     8     7     5    2
     9     4     3    2
    10     4     5    1
    11     5     6    1
