@<TRIPOS>MOLECULE
2ga4_1PS_B_1.pdb
 13 13 0 0 0
SMALL
GASTEIGER

@<TRIPOS>ATOM
      1  N1        27.0280   29.3320  -16.5420 N.pl3 703  1PS703     -0.3026
      2  C1        28.1220   29.8250  -15.8560 C.3   703  1PS703      0.1175
      3  C2        29.4130   29.7030  -16.3880 C.2   703  1PS703     -0.0047
      4  C3        27.1700   28.7140  -17.7550 C.2   703  1PS703      0.0616
      5  C4        28.4420   28.5780  -18.3070 C.2   703  1PS703      0.0155
      6  C5        29.5610   29.0700  -17.6240 C.2   703  1PS703     -0.0016
      7  C6        25.6820   29.4560  -15.9500 C.3   703  1PS703      0.0928
      8  C7        25.2190   28.1580  -15.3010 C.3   703  1PS703      0.0429
      9  C8        26.1090   27.7510  -14.1510 C.3   703  1PS703      0.1070
     10  S1        25.6490   26.2040  -13.4280 S.3   703  1PS703     -0.1960
     11  O1        26.4170   26.0970  -12.1460 O.3   703  1PS703     -0.3075
     12  O2        26.0340   25.1720  -14.3960 O.3   703  1PS703     -0.3075
     13  O3        24.1970   26.2960  -13.2650 O.3   703  1PS703     -0.3075
@<TRIPOS>BOND
     1     5     4    2
     2     5     6    1
     3     4     1    1
     4     6     3    2
     5     1     7    1
     6     1     2    1
     7     3     2    1
     8     7     8    1
     9     8     9    1
    10    12    10    1
    11     9    10    1
    12    10    13    1
    13    10    11    1
