@<TRIPOS>MOLECULE
2ga9_AGS_D_1.pdb
 31 33 0 0 0
SMALL
GASTEIGER

@<TRIPOS>ATOM
      1  PG        18.2980   16.9710   24.7660 P.3   482  AGS482      0.4340
      2  S1G       19.3480   16.8870   26.2830 S.3   482  AGS482      0.0416
      3  O2G       16.9670   17.7460   25.2040 O.3   482  AGS482     -0.1305
      4  O3G       18.9140   17.8420   23.5730 O.2   482  AGS482     -0.2423
      5  PB        19.1800   14.7810   23.3650 P.3   482  AGS482      0.2262
      6  O1B       20.0930   13.9210   24.1310 O.3   482  AGS482     -0.4369
      7  O2B       20.1530   15.7580   22.5430 O.2   482  AGS482     -0.5168
      8  O3B       18.0280   15.4750   24.2770 O.3   482  AGS482     -0.2405
      9  PA        17.9190   14.1590   21.0080 P.3   482  AGS482      0.2189
     10  O1A       16.6760   14.9490   21.0650 O.3   482  AGS482     -0.4371
     11  O2A       19.0600   15.0150   20.3020 O.2   482  AGS482     -0.5170
     12  O3A       18.3380   13.7190   22.4970 O.3   482  AGS482     -0.2701
     13  O5'       17.8110   12.8630   20.0500 O.3   482  AGS482     -0.3112
     14  C5'       18.7930   11.9120   20.4850 C.3   482  AGS482      0.1813
     15  C4'       19.6090   11.2730   19.3660 C.3   482  AGS482      0.1821
     16  O4'       18.7660   10.7670   18.2980 O.3   482  AGS482     -0.3135
     17  C3'       20.6330   12.2360   18.7290 C.3   482  AGS482      0.2184
     18  O3'       21.8320   12.3360   19.5120 O.3   482  AGS482     -0.2174
     19  C2'       20.8250   11.5490   17.3530 C.3   482  AGS482      0.2570
     20  O2'       21.8020   10.5040   17.3950 O.3   482  AGS482     -0.2130
     21  C1'       19.4200   10.9770   17.0280 C.3   482  AGS482      0.3186
     22  N9        18.6820   11.9350   16.1780 N.pl3 482  AGS482     -0.1439
     23  C8        17.8350   12.9450   16.5600 C.3   482  AGS482      0.3377
     24  N7        17.3670   13.5910   15.5390 N.2   482  AGS482     -0.2095
     25  C5        17.9010   13.0510   14.4190 C.2   482  AGS482      0.2526
     26  C6        17.7750   13.2780   13.0200 C.2   482  AGS482      0.4393
     27  N6        17.0300   14.3550   12.5710 N.pl3 482  AGS482      0.2180
     28  N1        18.4520   12.4920   12.1560 N.2   482  AGS482      0.0021
     29  C2        19.2230   11.4640   12.5520 C.3   482  AGS482      0.5254
     30  N3        19.3680   11.2150   13.8610 N.2   482  AGS482     -0.0055
     31  C4        18.7120   11.9420   14.8010 C.2   482  AGS482      0.3518
@<TRIPOS>BOND
     1    28    29    1
     2    28    26    2
     3    29    30    1
     4    27    26    1
     5    26    25    1
     6    30    31    2
     7    25    31    1
     8    25    24    2
     9    31    22    1
    10    24    23    1
    11    22    23    1
    12    22    21    1
    13    21    19    1
    14    21    16    1
    15    19    20    1
    16    19    17    1
    17    16    15    1
    18    17    15    1
    19    17    18    1
    20    15    14    1
    21    13    14    1
    22    13     9    1
    23    11     9    2
    24     9    10    1
    25     9    12    1
    26    12     5    1
    27     7     5    2
    28     5     6    1
    29     5     8    1
    30     4     1    2
    31     8     1    1
    32     1     3    1
    33     1     2    1
