@<TRIPOS>MOLECULE
2gab_NE2_A_1.pdb
 17 18 0 0 0
SMALL
GASTEIGER

@<TRIPOS>ATOM
      1 CL17       -1.7200   41.0030    3.1620 Cl    502  NE2502     -0.0814
      2  C9        -0.7890   42.1850    4.0050 C.ar  502  NE2502      0.0682
      3  C8        -0.7820   42.1720    5.4060 C.ar  502  NE2502      0.0122
      4  C10       -0.0600   43.1220    3.2810 C.ar  502  NE2502      0.0682
      5 CL16       -0.0590   43.1520    1.5030 Cl    502  NE2502     -0.0814
      6  C11        0.6770   44.0430    3.9500 C.ar  502  NE2502      0.0122
      7  C12        0.6860   44.0310    5.3510 C.ar  502  NE2502      0.0009
      8  C7        -0.0430   43.0960    6.1320 C.ar  502  NE2502      0.0009
      9  C3        -0.0350   43.0830    7.5510 C.ar  502  NE2502      0.0019
     10  C2         0.0010   44.2580    8.3410 C.ar  502  NE2502      0.0147
     11  C4        -0.0630   41.8940    8.2660 C.ar  502  NE2502      0.0147
     12  C5        -0.0580   41.8810    9.6660 C.ar  502  NE2502      0.0973
     13 CL14       -0.1060   40.3690   10.4980 Cl    502  NE2502     -0.0789
     14  C6        -0.0200   43.0560   10.4020 C.ar  502  NE2502      0.2165
     15  O15       -0.0140   43.0440   11.7840 O.3   502  NE2502     -0.2848
     16  C1         0.0090   44.2440    9.7410 C.ar  502  NE2502      0.0973
     17 CL13        0.0660   45.7400   10.6670 Cl    502  NE2502     -0.0789
@<TRIPOS>BOND
     1     5     4    1
     2     1     2    1
     3     4     6   ar
     4     4     2   ar
     5     6     7   ar
     6     2     3   ar
     7     7     8   ar
     8     3     8   ar
     9     8     9    1
    10     9    11   ar
    11     9    10   ar
    12    11    12   ar
    13    10    16   ar
    14    12    14   ar
    15    12    13    1
    16    16    14   ar
    17    16    17    1
    18    14    15    1
