@<TRIPOS>MOLECULE
2gak_NAG_A_1.pdb
 14 14 0 0 0
SMALL
GASTEIGER

@<TRIPOS>ATOM
      1  C1         8.4760   17.5850   15.3420 C.3   1001  NAG1001     0.1665
      2  C2         8.9890   16.8700   14.0960 C.3   1001  NAG1001     0.1576
      3  C3         9.2110   17.9320   13.0200 C.3   1001  NAG1001     0.2069
      4  C4         7.8950   18.6770   12.7530 C.3   1001  NAG1001     0.2134
      5  C5         7.2950   19.2270   14.0610 C.3   1001  NAG1001     0.1809
      6  C6         5.8940   19.7690   13.8540 C.3   1001  NAG1001     0.2141
      7  C7        10.2850   14.8450   14.1590 C.2   1001  NAG1001     0.2420
      8  C8        11.6680   14.2110   14.1540 C.3   1001  NAG1001     0.0964
      9  N2        10.2170   16.1540   14.3820 N.am  1001  NAG1001    -0.2019
     10  O3         9.6740   17.3220   11.8240 O.3   1001  NAG1001    -0.2184
     11  O4         8.1300   19.7510   11.8530 O.3   1001  NAG1001    -0.2176
     12  O5         7.2040   18.1840   15.0650 O.3   1001  NAG1001    -0.3489
     13  O6         5.2640   20.0600   15.0920 O.3   1001  NAG1001    -0.2176
     14  O7         9.2880   14.1470   13.9560 O.2   1001  NAG1001    -0.2733
@<TRIPOS>BOND
     1    10     3    1
     2    11     4    1
     3     4     3    1
     4     4     5    1
     5     3     2    1
     6     6     5    1
     7     6    13    1
     8    14     7    2
     9     5    12    1
    10     2     9    1
    11     2     1    1
    12     8     7    1
    13     7     9   am
    14    12     1    1
