@<TRIPOS>MOLECULE
2gal_GAL_A_1.pdb
 12 12 0 0 0
SMALL
GASTEIGER

@<TRIPOS>ATOM
      1  C1         8.6600   20.0290   37.0180 C.3   998  GAL998      0.3024
      2  C2         9.8790   20.1150   37.9530 C.3   998  GAL998      0.2434
      3  C3        10.7020   21.3700   37.6270 C.3   998  GAL998      0.2199
      4  C4        11.0970   21.3590   36.1460 C.3   998  GAL998      0.2144
      5  C5         9.8310   21.2270   35.2820 C.3   998  GAL998      0.1836
      6  C6        10.1670   21.0750   33.8230 C.3   998  GAL998      0.2142
      7  O1         7.9850   18.8390   37.2320 O.3   998  GAL998     -0.1869
      8  O2         9.4450   20.1710   39.3040 O.3   998  GAL998     -0.2148
      9  O3        11.8690   21.4170   38.4410 O.3   998  GAL998     -0.2174
     10  O4        11.9840   20.2760   35.8850 O.3   998  GAL998     -0.2176
     11  O5         9.0780   20.0450   35.6470 O.3   998  GAL998     -0.3236
     12  O6         8.9920   20.9160   33.0540 O.3   998  GAL998     -0.2176
@<TRIPOS>BOND
     1    12     6    1
     2     6     5    1
     3     5    11    1
     4     5     4    1
     5    11     1    1
     6    10     4    1
     7     4     3    1
     8     1     7    1
     9     1     2    1
    10     3     2    1
    11     3     9    1
    12     2     8    1
