@<TRIPOS>MOLECULE
2gam_GAL_A_1.pdb
 11 11 0 0 0
SMALL
GASTEIGER

@<TRIPOS>ATOM
      1  C1        60.8780  -15.0650   56.0000 C.3   501  GAL501      0.1777
      2  C2        60.2520  -16.3830   56.4450 C.3   501  GAL501      0.2141
      3  C3        60.1830  -16.4120   57.9820 C.3   501  GAL501      0.2173
      4  C4        61.5450  -16.1100   58.5980 C.3   501  GAL501      0.2142
      5  C5        62.1330  -14.8260   58.0040 C.3   501  GAL501      0.1810
      6  C6        63.5430  -14.5490   58.4640 C.3   501  GAL501      0.2141
      7  O2        58.9400  -16.5070   55.8960 O.3   501  GAL501     -0.2176
      8  O3        59.7660  -17.6920   58.4160 O.3   501  GAL501     -0.2175
      9  O4        62.4140  -17.1980   58.3500 O.3   501  GAL501     -0.2176
     10  O5        62.1740  -14.9140   56.5700 O.3   501  GAL501     -0.3481
     11  O6        63.5540  -14.0850   59.8010 O.3   501  GAL501     -0.2176
@<TRIPOS>BOND
     1     7     2    1
     2     1     2    1
     3     1    10    1
     4     2     3    1
     5    10     5    1
     6     3     8    1
     7     3     4    1
     8     5     6    1
     9     5     4    1
    10     9     4    1
    11     6    11    1
