@<TRIPOS>MOLECULE
2gb4_SAH_A_1.pdb
 26 28 0 0 0
SMALL
GASTEIGER

@<TRIPOS>ATOM
      1  N         20.1310    3.8280   17.4580 N.3   300  SAH300     -0.1208
      2  CA        20.2890    5.0590   18.2570 C.3   300  SAH300      0.1952
      3  CB        21.7440    5.2850   18.6760 C.3   300  SAH300      0.0422
      4  CG        22.7060    5.3600   17.4840 C.3   300  SAH300      0.0597
      5  SD        24.4520    5.5600   17.9680 S.3   300  SAH300     -0.1375
      6  C         19.7390    6.2950   17.5270 C.2   300  SAH300      0.3819
      7  O         19.2150    6.0280   16.4080 O.co2 300  SAH300     -0.2441
      8  OXT       19.8590    7.3910   18.1060 O.co2 300  SAH300     -0.2441
      9  C5'       25.0090    3.8780   18.2380 C.3   300  SAH300      0.0899
     10  C4'       24.7250    3.2970   19.6310 C.3   300  SAH300      0.1630
     11  O4'       25.2390    1.9520   19.7030 O.3   300  SAH300     -0.3153
     12  C3'       25.3470    4.0970   20.8130 C.3   300  SAH300      0.2168
     13  O3'       24.2830    4.4020   21.7260 O.3   300  SAH300     -0.2175
     14  C2'       26.4450    3.1980   21.3250 C.3   300  SAH300      0.2569
     15  O2'       26.7500    3.1860   22.7140 O.3   300  SAH300     -0.2130
     16  C1'       25.8680    1.8150   21.0430 C.3   300  SAH300      0.3185
     17  N9        26.7350    0.7110   20.6780 N.pl3 300  SAH300     -0.1439
     18  C8        27.8300    0.7480   19.8640 C.3   300  SAH300      0.3377
     19  N7        28.3570   -0.4640   19.7160 N.2   300  SAH300     -0.2095
     20  C5        27.5920   -1.3190   20.4370 C.2   300  SAH300      0.2526
     21  C6        27.6160   -2.6790   20.6770 C.2   300  SAH300      0.4393
     22  N6        28.5090   -3.6070   20.1960 N.pl3 300  SAH300      0.2180
     23  N1        26.6690   -3.2370   21.4790 N.2   300  SAH300      0.0021
     24  C2        25.7200   -2.3930   22.0070 C.3   300  SAH300      0.5254
     25  N3        25.6220   -1.0470   21.8170 N.2   300  SAH300     -0.0055
     26  C4        26.5990   -0.5880   21.0280 C.2   300  SAH300      0.3518
@<TRIPOS>BOND
     1     7     6   ar
     2     1     2    1
     3     4     5    1
     4     4     3    1
     5     6     8   ar
     6     6     2    1
     7     5     9    1
     8     9    10    1
     9     2     3    1
    10    10    11    1
    11    10    12    1
    12    11    16    1
    13    19    18    1
    14    19    20    2
    15    18    17    1
    16    22    21    1
    17    20    21    1
    18    20    26    1
    19    21    23    2
    20    17    26    1
    21    17    16    1
    22    12    14    1
    23    12    13    1
    24    26    25    2
    25    16    14    1
    26    14    15    1
    27    23    24    1
    28    25    24    1
