@<TRIPOS>MOLECULE
2gbc_NAG_A_1.pdb
 14 14 0 0 0
SMALL
GASTEIGER

@<TRIPOS>ATOM
      1  C1        13.9720   65.6220  -85.1540 C.3   1521  NAG1521     0.1665
      2  C2        13.8670   64.1290  -85.4180 C.3   1521  NAG1521     0.1576
      3  C3        14.8840   63.8260  -86.5280 C.3   1521  NAG1521     0.2069
      4  C4        14.4540   64.5990  -87.7900 C.3   1521  NAG1521     0.2134
      5  C5        14.1970   66.1070  -87.5100 C.3   1521  NAG1521     0.1809
      6  C6        13.3920   66.7210  -88.6450 C.3   1521  NAG1521     0.2141
      7  C7        15.2240   62.9400  -83.7740 C.2   1521  NAG1521     0.2420
      8  C8        15.2310   62.1060  -82.5030 C.3   1521  NAG1521     0.0964
      9  N2        14.0320   63.3290  -84.2100 N.am  1521  NAG1521    -0.2019
     10  O3        14.9270   62.4320  -86.8010 O.3   1521  NAG1521    -0.2184
     11  O4        15.4490   64.4710  -88.7980 O.3   1521  NAG1521    -0.2176
     12  O5        13.4270   66.3180  -86.2870 O.3   1521  NAG1521    -0.3489
     13  O6        12.9960   68.0510  -88.3450 O.3   1521  NAG1521    -0.2176
     14  O7        16.2810   63.2210  -84.3380 O.2   1521  NAG1521    -0.2733
@<TRIPOS>BOND
     1    11     4    1
     2     6    13    1
     3     6     5    1
     4     4     5    1
     5     4     3    1
     6     5    12    1
     7    10     3    1
     8     3     2    1
     9    12     1    1
    10     2     1    1
    11     2     9    1
    12    14     7    2
    13     9     7   am
    14     7     8    1
