@<TRIPOS>MOLECULE
2gbf_AIA_A_1.pdb
 18 19 0 0 0
SMALL
GASTEIGER

@<TRIPOS>ATOM
      1  C2        14.2770   39.3180  -83.2740 C.3   768  AIA768      0.1406
      2  C3        16.3030   38.0390  -83.7990 C.3   768  AIA768      0.0953
      3  C4        14.8080   37.1930  -81.9510 C.2   768  AIA768      0.2437
      4  C5        14.7050   39.6530  -84.7050 C.3   768  AIA768      0.0351
      5  C6        14.6430   40.4170  -82.3370 C.1   768  AIA768     -0.0585
      6  C7        16.1700   39.2400  -84.7620 C.3   768  AIA768      0.0241
      7  C8        17.6420   38.2860  -83.0870 C.3   768  AIA768      0.1290
      8  C9        13.5140   37.3610  -81.1060 C.3   768  AIA768      0.1678
      9  N1        15.0970   38.1240  -82.9370 N.am  768  AIA768     -0.2692
     10  O10       15.5130   36.2210  -81.6980 O.2   768  AIA768     -0.2733
     11  C11       14.9620   41.2570  -81.5540 C.1   768  AIA768     -0.0125
     12  N12       17.6880   38.5860  -81.7720 N.3   768  AIA768     -0.1296
     13  C13       13.6630   38.0850  -79.7540 C.3   768  AIA768      0.0265
     14  N14       12.9760   36.0280  -80.9300 N.3   768  AIA768     -0.1231
     15  C16       12.3420   38.5400  -79.1320 C.3   768  AIA768      0.0019
     16  C17       14.3010   37.3000  -78.6140 C.3   768  AIA768      0.0019
     17  C18       12.7300   38.9590  -77.7140 C.3   768  AIA768      0.0001
     18  C19       13.9970   38.1560  -77.3790 C.3   768  AIA768      0.0001
@<TRIPOS>BOND
     1     6     4    1
     2     6     2    1
     3     4     1    1
     4     2     7    1
     5     2     9    1
     6     1     9    1
     7     1     5    1
     8     7    12    1
     9     9     3   am
    10     5    11    3
    11     3    10    2
    12     3     8    1
    13     8    14    1
    14     8    13    1
    15    13    15    1
    16    13    16    1
    17    15    17    1
    18    16    18    1
    19    17    18    1
