@<TRIPOS>MOLECULE
2gbg_1AD_A_1.pdb
 19 20 0 0 0
SMALL
GASTEIGER

@<TRIPOS>ATOM
      1  C2        14.3610   39.0000  -83.1140 C.3   768  1AD768      0.1400
      2  C3        16.4110   37.7450  -83.5180 C.3   768  1AD768      0.1195
      3  C4        14.8830   36.9140  -81.6770 C.2   768  1AD768      0.2440
      4  C5        14.8470   39.2990  -84.5430 C.3   768  1AD768      0.0354
      5  C6        14.6680   40.1120  -82.1960 C.1   768  1AD768     -0.0716
      6  C7        16.3150   38.8840  -84.5390 C.3   768  1AD768      0.0288
      7  C8        17.7420   37.9930  -82.7940 C.2   768  1AD768      0.1153
      8  C9        13.5590   37.0330  -80.8550 C.3   768  1AD768      0.1678
      9  N1        15.1820   37.8400  -82.6970 N.am  768  1AD768     -0.2653
     10  O10       15.6140   35.9620  -81.3790 O.2   768  1AD768     -0.2733
     11  C11       14.8760   40.9770  -81.4080 C.1   768  1AD768     -0.0884
     12  N12       17.7630   38.2940  -81.4990 N.2   768  1AD768     -0.1496
     13  C13       13.5980   37.8680  -79.5570 C.3   768  1AD768      0.0265
     14  N14       13.1490   35.6580  -80.6030 N.3   768  1AD768     -0.1231
     15  C15       15.0730   42.0280  -80.4270 C.3   768  1AD768      0.0900
     16  C16       12.3900   37.7640  -78.6340 C.3   768  1AD768      0.0019
     17  C17       14.7160   37.6120  -78.5570 C.3   768  1AD768      0.0019
     18  C18       12.8030   38.6880  -77.4930 C.3   768  1AD768      0.0001
     19  C19       14.3400   38.5880  -77.4380 C.3   768  1AD768      0.0001
@<TRIPOS>BOND
     1     4     6    1
     2     4     1    1
     3     6     2    1
     4     2     7    1
     5     2     9    1
     6     1     9    1
     7     1     5    1
     8     7    12    2
     9     9     3   am
    10     5    11    3
    11     3    10    2
    12     3     8    1
    13    11    15    1
    14     8    14    1
    15     8    13    1
    16    13    16    1
    17    13    17    1
    18    16    18    1
    19    17    19    1
    20    18    19    1
