@<TRIPOS>MOLECULE
2gbi_XIH_A_1.pdb
 29 32 0 0 0
SMALL
GASTEIGER

@<TRIPOS>ATOM
      1  C5        17.1300   40.5770  -80.0620 C.3   901  XIH901      0.2214
      2  C6        17.2110   40.1610  -78.7820 C.2   901  XIH901      0.1973
      3  C8        15.1770   39.5090  -79.4950 C.cat 901  XIH901      0.2435
      4  C10       12.9680   38.9270  -78.3020 C.3   901  XIH901      0.0945
      5  C13       12.9190   36.8660  -80.4650 C.3   901  XIH901      0.1117
      6  C15       13.2730   38.3120  -80.7080 C.3   901  XIH901      0.1133
      7  C17       15.3590   40.4480  -81.9090 C.3   901  XIH901      0.1226
      8  C20       15.7010   39.2370  -85.4790 C.ar  901  XIH901     -0.0002
      9  C21       16.1870   37.9290  -85.3660 C.ar  901  XIH901      0.0007
     10  C22       16.4340   37.3420  -84.1070 C.ar  901  XIH901      0.0100
     11  C24       16.4820   37.3370  -81.7400 C.1   901  XIH901      0.1001
     12  C28       19.5390   41.1270  -78.5570 C.2   901  XIH901      0.3185
     13  C         20.5480   42.2760  -80.5280 C.3   901  XIH901      0.1245
     14  N         19.4080   41.5380  -79.8820 N.am  901  XIH901     -0.2103
     15  C3        18.2960   41.3180  -80.6640 C.2   901  XIH901      0.2591
     16  O         18.2060   41.6980  -81.8640 O.2   901  XIH901     -0.2721
     17  N7        15.9680   39.4680  -78.4160 N.2   901  XIH901     -0.3599
     18  N9        13.8260   38.9480  -79.5210 N.pl3 901  XIH901     -0.2701
     19  C11       12.4510   37.4810  -78.0210 C.3   901  XIH901      0.0231
     20  C12       11.8970   36.7990  -79.2950 C.3   901  XIH901      0.0225
     21  N14       12.4350   36.2350  -81.7050 N.3   901  XIH901     -0.1311
     22  N16       15.7970   40.1570  -80.5530 N.pl3 901  XIH901     -0.2541
     23  C18       15.6960   39.4350  -83.0060 C.ar  901  XIH901      0.0074
     24  C19       15.4650   39.9700  -84.3080 C.ar  901  XIH901     -0.0019
     25  C23       16.1950   38.0690  -82.9350 C.ar  901  XIH901      0.0661
     26  N25       16.6160   36.7420  -80.7750 N.1   901  XIH901     -0.1908
     27  N26       18.4430   40.4370  -78.0030 N.am  901  XIH901     -0.2178
     28  C27       18.4940   39.9640  -76.6040 C.3   901  XIH901      0.1239
     29  O29       20.5690   41.3330  -77.8680 O.2   901  XIH901     -0.2515
@<TRIPOS>BOND
     1     8     9   ar
     2     8    24   ar
     3     9    10   ar
     4    24    23   ar
     5    10    25   ar
     6    23    25   ar
     7    23     7    1
     8    25    11    1
     9     7    22    1
    10    16    15    2
    11    11    26    3
    12    21     5    1
    13     6     5    1
    14     6    18    1
    15    15     1    1
    16    15    14   am
    17    22     1    1
    18    22     3    1
    19    13    14    1
    20     5    20    1
    21     1     2    1
    22    14    12   am
    23    18     3    1
    24    18     4    1
    25     3    17    2
    26    20    19    1
    27     2    17    2
    28     2    27    1
    29    12    27   am
    30    12    29    2
    31     4    19    1
    32    27    28    1
