@<TRIPOS>MOLECULE
2gbp_BGC_A_1.pdb
 12 12 0 0 0
SMALL
GASTEIGER

@<TRIPOS>ATOM
      1  C2        36.1770   29.8530   50.1240 C.3   310  BGC310      0.2434
      2  C3        37.2960   30.2960   51.0740 C.3   310  BGC310      0.2199
      3  C4        38.5530   30.4000   50.2590 C.3   310  BGC310      0.2144
      4  C5        38.3570   31.2900   49.0440 C.3   310  BGC310      0.1836
      5  C6        39.5590   31.2090   48.0820 C.3   310  BGC310      0.2142
      6  C1        35.8840   30.8950   49.1200 C.3   310  BGC310      0.3024
      7  O1        34.9680   30.3400   48.2340 O.3   310  BGC310     -0.1869
      8  O2        34.9230   29.7750   50.9100 O.3   310  BGC310     -0.2148
      9  O3        37.4410   29.2650   52.1130 O.3   310  BGC310     -0.2174
     10  O4        39.5720   30.9540   51.0860 O.3   310  BGC310     -0.2176
     11  O5        37.1550   30.8580   48.3640 O.3   310  BGC310     -0.3236
     12  O6        39.2610   32.0180   46.9200 O.3   310  BGC310     -0.2176
@<TRIPOS>BOND
     1    12     5    1
     2     5     4    1
     3     7     6    1
     4    11     4    1
     5    11     6    1
     6     4     3    1
     7     6     1    1
     8     1     8    1
     9     1     2    1
    10     3     2    1
    11     3    10    1
    12     2     9    1
