@<TRIPOS>MOLECULE
2gbx_BNL_A_1.pdb
 12 13 0 0 0
SMALL
GASTEIGER

@<TRIPOS>ATOM
      1  C1        99.1140  -22.2860   84.4590 C.ar  457  BNL457      0.0000
      2  C2        99.8910  -21.1390   84.2890 C.ar  457  BNL457      0.0000
      3  C3        99.8900  -20.4750   83.0630 C.ar  457  BNL457      0.0000
      4  C4        99.1140  -20.9520   82.0100 C.ar  457  BNL457      0.0000
      5  C5        98.3400  -22.0960   82.1830 C.ar  457  BNL457      0.0000
      6  C6        98.3380  -22.7630   83.4060 C.ar  457  BNL457      0.0000
      7  C12      102.8140  -19.7550   86.2440 C.ar  457  BNL457      0.0000
      8  C13      102.2720  -19.6710   87.5250 C.ar  457  BNL457      0.0000
      9  C14      100.9560  -20.0640   87.7520 C.ar  457  BNL457      0.0000
     10  C15      100.1800  -20.5410   86.6990 C.ar  457  BNL457      0.0000
     11  C16      100.7200  -20.6280   85.4150 C.ar  457  BNL457      0.0000
     12  C17      102.0380  -20.2320   85.1910 C.ar  457  BNL457      0.0000
@<TRIPOS>BOND
     1     4     5   ar
     2     4     3   ar
     3     5     6   ar
     4     3     2   ar
     5     6     1   ar
     6     2     1   ar
     7     2    11    1
     8    12    11   ar
     9    12     7   ar
    10    11    10   ar
    11     7     8   ar
    12    10     9   ar
    13     8     9   ar
