@<TRIPOS>MOLECULE
2gby_BRN_A_1.pdb
 21 22 0 0 0
SMALL
GASTEIGER

@<TRIPOS>ATOM
      1  C1       -71.4540  -47.3950    7.0250 C.ar  1110  BRN1110     0.1044
      2  C2       -72.3080  -48.2480    7.7050 C.ar  1110  BRN1110     0.0212
      3  C3       -72.3520  -49.6070    7.3760 C.ar  1110  BRN1110     0.0096
      4  C4       -71.5400  -50.1030    6.3760 C.ar  1110  BRN1110     0.0976
      5  C5       -70.6680  -49.2500    5.6900 C.ar  1110  BRN1110     0.0096
      6  C6       -70.6230  -47.9060    6.0140 C.ar  1110  BRN1110     0.0212
      7  C7       -71.6270  -51.4520    6.0260 C.2   1110  BRN1110     0.4766
      8  NA       -72.3630  -51.8260    4.9950 N.pl3 1110  BRN1110     0.2047
      9  NB       -70.9750  -52.3640    6.7520 N.pl3 1110  BRN1110     0.2047
     10  N1       -71.5000  -46.0990    7.2870 N.2   1110  BRN1110    -0.1308
     11  N        -70.8140  -45.2730    6.6730 N.2   1110  BRN1110    -0.0535
     12  N1'      -70.8730  -44.0660    6.8990 N.pl3 1110  BRN1110    -0.0979
     13  C1'      -71.6780  -43.5090    7.8050 C.ar  1110  BRN1110     0.0931
     14  C2'      -71.6580  -42.1200    7.9610 C.ar  1110  BRN1110     0.0186
     15  C3'      -72.5210  -41.5050    8.8570 C.ar  1110  BRN1110     0.0094
     16  C4'      -73.4100  -42.2750    9.6090 C.ar  1110  BRN1110     0.0976
     17  C5'      -73.4300  -43.6480    9.4670 C.ar  1110  BRN1110     0.0094
     18  C6'      -72.5600  -44.2680    8.5590 C.ar  1110  BRN1110     0.0186
     19  C7'      -74.2640  -41.6560   10.5340 C.2   1110  BRN1110     0.4766
     20  NA'      -74.4150  -42.1640   11.7440 N.pl3 1110  BRN1110     0.2047
     21  NB'      -74.9000  -40.5320   10.2000 N.pl3 1110  BRN1110     0.2047
@<TRIPOS>BOND
     1     8     7    2
     2     5     6   ar
     3     5     4   ar
     4     6     1   ar
     5     7     4    1
     6     7     9    1
     7     4     3   ar
     8    11    12    1
     9    11    10    2
    10    12    13    1
    11     1    10    1
    12     1     2   ar
    13     3     2   ar
    14    13    14   ar
    15    13    18   ar
    16    14    15   ar
    17    18    17   ar
    18    15    16   ar
    19    17    16   ar
    20    16    19    1
    21    21    19    2
    22    19    20    1
