@<TRIPOS>MOLECULE
2gc0_PAN_A_1.pdb
 16 15 0 0 0
SMALL
GASTEIGER

@<TRIPOS>ATOM
      1  C2         4.0670  -11.7580    0.7700 C.3   901  PAN901      0.2292
      2  C3         4.1790  -12.4350    2.1320 C.3   901  PAN901      0.2209
      3  C4         2.9440  -13.2890    2.4690 C.3   901  PAN901      0.2150
      4  C5         3.0980  -14.0800    3.7750 C.3   901  PAN901      0.1892
      5  O2         3.9460  -12.7330   -0.2660 O.3   901  PAN901     -0.2134
      6  O3         5.3890  -13.1920    2.1480 O.3   901  PAN901     -0.2171
      7  O4         1.7780  -12.4600    2.5280 O.3   901  PAN901     -0.2176
      8  O5         3.4720  -13.2450    4.8790 O.3   901  PAN901     -0.2674
      9  P          4.8540  -13.4560    5.6880 P.3   901  PAN901      0.5327
     10  O1P        4.6060  -14.6030    6.6360 O.3   901  PAN901     -0.1145
     11  O2P        5.8880  -13.7740    4.6380 O.2   901  PAN901     -0.2224
     12  O3P        5.0490  -12.1160    6.3580 O.3   901  PAN901     -0.1145
     13  C1         5.3020  -10.9190    0.6010 C.2   901  PAN901      0.1201
     14  O1         5.3720   -9.8370    1.1620 O.2   901  PAN901     -0.5373
     15  N          6.2850  -11.4140   -0.1550 N.am  901  PAN901     -0.2003
     16  ON1        7.4130  -10.8730   -0.1760 O.3   901  PAN901     -0.4026
@<TRIPOS>BOND
     1     5     1    1
     2    16    15    1
     3    15    13   am
     4    13     1    1
     5    13    14    2
     6     1     2    1
     7     2     6    1
     8     2     3    1
     9     3     7    1
    10     3     4    1
    11     4     8    1
    12    11     9    2
    13     8     9    1
    14     9    12    1
    15     9    10    1
