@<TRIPOS>MOLECULE
2gc1_S6P_A_1.pdb
 16 15 0 0 0
SMALL
GASTEIGER

@<TRIPOS>ATOM
      1  C1        -6.5960    3.9710    3.3130 C.3   502  S6P502      0.2175
      2  C2        -5.3510    3.1030    3.0920 C.3   502  S6P502      0.2175
      3  C3        -4.0140    3.8690    3.1550 C.3   502  S6P502      0.2175
      4  C4        -3.7490    4.5640    4.5170 C.3   502  S6P502      0.2174
      5  C5        -2.3490    5.1910    4.6750 C.3   502  S6P502      0.2147
      6  C6        -1.8140    5.5040    6.1200 C.3   502  S6P502      0.1892
      7  O1        -7.8000    3.1700    3.4090 O.3   502  S6P502     -0.2175
      8  O2        -5.2970    2.0380    4.0410 O.3   502  S6P502     -0.2175
      9  O3        -4.0270    4.7850    2.0590 O.3   502  S6P502     -0.2175
     10  O4        -4.7190    5.5920    4.7540 O.3   502  S6P502     -0.2175
     11  O5        -1.4380    4.3080    3.9630 O.3   502  S6P502     -0.2176
     12  O6        -1.7020    4.2900    6.7590 O.3   502  S6P502     -0.2674
     13  P         -2.8070    5.3440    7.7770 P.3   502  S6P502      0.5327
     14  O1P       -2.1260    6.4620    8.7610 O.3   502  S6P502     -0.1145
     15  O2P       -3.1440    3.9040    8.8160 O.3   502  S6P502     -0.1145
     16  O3P       -4.4670    5.8710    7.2510 O.2   502  S6P502     -0.2224
@<TRIPOS>BOND
     1     9     3    1
     2     2     3    1
     3     2     1    1
     4     2     8    1
     5     3     4    1
     6     1     7    1
     7    11     5    1
     8     4     5    1
     9     4    10    1
    10     5     6    1
    11     6    12    1
    12    12    13    1
    13    16    13    2
    14    13    14    1
    15    13    15    1
