@<TRIPOS>MOLECULE
2gc2_F6R_A_1.pdb
 16 15 0 0 0
SMALL
GASTEIGER

@<TRIPOS>ATOM
      1  C1        22.8930   -3.8560  -15.8780 C.3   501  F6R501      0.2175
      2  C2        21.7510   -3.4940  -14.9210 C.3   501  F6R501      0.2175
      3  C3        22.1480   -3.0520  -13.4640 C.3   501  F6R501      0.2175
      4  C4        22.7760   -1.6530  -13.3290 C.3   501  F6R501      0.2174
      5  C5        23.0560   -1.2050  -11.8720 C.3   501  F6R501      0.2147
      6  C6        23.7750    0.1560  -11.8450 C.3   501  F6R501      0.1892
      7  O1        24.1800   -3.4860  -15.3950 O.3   501  F6R501     -0.2175
      8  O2        20.8710   -2.5050  -15.4840 O.3   501  F6R501     -0.2175
      9  O3        22.9880   -4.0160  -12.8030 O.3   501  F6R501     -0.2175
     10  O4        24.0380   -1.6590  -14.0070 O.3   501  F6R501     -0.2175
     11  O5        21.8590   -1.0570  -11.1170 O.3   501  F6R501     -0.2176
     12  O6        23.0180    1.1250  -12.5900 O.3   501  F6R501     -0.2674
     13  P         23.7130    1.9760  -13.7710 P.3   501  F6R501      0.5327
     14  O1P       22.5620    2.6380  -14.4570 O.3   501  F6R501     -0.1145
     15  O2P       24.6960    2.8830  -13.0710 O.3   501  F6R501     -0.1145
     16  O3P       24.4270    0.9610  -14.6690 O.2   501  F6R501     -0.2224
@<TRIPOS>BOND
     1     1     7    1
     2     1     2    1
     3     8     2    1
     4     2     3    1
     5    16    13    2
     6    14    13    1
     7    10     4    1
     8    13    15    1
     9    13    12    1
    10     3     4    1
    11     3     9    1
    12     4     5    1
    13    12     6    1
    14     5     6    1
    15     5    11    1
