@<TRIPOS>MOLECULE
2gc3_M6P_A_1.pdb
 16 16 0 0 0
SMALL
GASTEIGER

@<TRIPOS>ATOM
      1  C1       -21.9550   -3.3100   12.2860 C.3   501  M6P501      0.3024
      2  C2       -22.2870   -3.7180   13.7310 C.3   501  M6P501      0.2434
      3  C3       -23.7120   -3.3520   14.1330 C.3   501  M6P501      0.2199
      4  C4       -23.9870   -1.8750   13.9200 C.3   501  M6P501      0.2143
      5  C5       -23.3570   -1.2600   12.6610 C.3   501  M6P501      0.1808
      6  C6       -22.5730   -0.0500   13.1100 C.3   501  M6P501      0.1859
      7  O1       -22.4830   -4.2540   11.3350 O.3   501  M6P501     -0.1869
      8  O2       -21.3310   -3.1770   14.6650 O.3   501  M6P501     -0.2148
      9  O3       -23.8990   -3.6350   15.5230 O.3   501  M6P501     -0.2174
     10  O4       -25.4030   -1.6320   13.9250 O.3   501  M6P501     -0.2176
     11  O5       -22.4020   -2.0080   11.8950 O.3   501  M6P501     -0.3237
     12  O6       -23.3520    1.0830   12.8130 O.3   501  M6P501     -0.2675
     13  P        -23.8890    1.9910   14.0040 P.3   501  M6P501      0.5327
     14  O1P      -22.6650    2.4970   14.7250 O.3   501  M6P501     -0.1145
     15  O2P      -24.7330    1.0570   14.8330 O.3   501  M6P501     -0.1145
     16  O3P      -24.6640    3.0260   13.2290 O.2   501  M6P501     -0.2224
@<TRIPOS>BOND
     1     7     1    1
     2    11     1    1
     3    11     5    1
     4     1     2    1
     5     5     6    1
     6     5     4    1
     7    12     6    1
     8    12    13    1
     9    16    13    2
    10     2     3    1
    11     2     8    1
    12     4    10    1
    13     4     3    1
    14    13    14    1
    15    13    15    1
    16     3     9    1
