@<TRIPOS>MOLECULE
2gc4_HEM_D_1.pdb
 43 50 0 0 0
SMALL
GASTEIGER

@<TRIPOS>ATOM
      1 FE         11.6800   40.9790   38.0790 Fe    200  HEM200      0.0000
      2  CHA       10.7360   37.9870   39.2760 C.2   200  HEM200      0.0000
      3  CHB        9.0340   42.4240   39.6690 C.2   200  HEM200      0.0000
      4  CHC       12.7530   44.0980   37.0890 C.2   200  HEM200      0.0000
      5  CHD       14.1270   39.5690   36.2280 C.2   200  HEM200      0.0000
      6  NA        10.1690   40.3200   39.2840 N.2   200  HEM200      0.0000
      7  C1A        9.9630   39.0490   39.6760 C.2   200  HEM200      0.0000
      8  C2A        8.8140   38.9970   40.5550 C.2   200  HEM200      0.0000
      9  C3A        8.3210   40.2420   40.6440 C.2   200  HEM200      0.0000
     10  C4A        9.1660   41.0890   39.8460 C.2   200  HEM200      0.0000
     11  CMA        7.0840   40.7340   41.4570 C.3   200  HEM200      0.0000
     12  CAA        8.2750   37.6860   41.2440 C.3   200  HEM200      0.0000
     13  CBA        7.1780   37.0510   40.3980 C.3   200  HEM200      0.0000
     14  CGA        6.4700   35.8600   40.9900 C.2   200  HEM200      0.0000
     15  O1A        6.3930   35.7730   42.2910 O.co2 200  HEM200      0.0000
     16  O2A        5.9970   35.0790   40.1940 O.co2 200  HEM200      0.0000
     17  NB        11.0070   42.8740   38.3110 N.ar  200  HEM200      0.0000
     18  C1B        9.8610   43.2710   38.9900 C.ar  200  HEM200      0.0000
     19  C2B        9.6650   44.7070   38.8900 C.ar  200  HEM200      0.0000
     20  C3B       10.7540   45.1890   38.2180 C.ar  200  HEM200      0.0000
     21  C4B       11.5740   44.0600   37.8370 C.ar  200  HEM200      0.0000
     22  CMB        8.4310   45.5270   39.4890 C.3   200  HEM200      0.0000
     23  CAB       11.1280   46.6390   37.8810 C.3   200  HEM200      0.0000
     24  CBB       11.5570   47.4390   39.1660 C.3   200  HEM200      0.0000
     25  NC        13.1670   41.6800   36.9150 N.2   200  HEM200      0.0000
     26  C1C       13.4610   43.0030   36.6260 C.2   200  HEM200      0.0000
     27  C2C       14.6000   43.0940   35.7040 C.2   200  HEM200      0.0000
     28  C3C       14.9370   41.8240   35.4180 C.2   200  HEM200      0.0000
     29  C4C       14.0700   40.9440   36.1810 C.2   200  HEM200      0.0000
     30  CMC       15.2140   44.4390   35.1580 C.3   200  HEM200      0.0000
     31  CAC       15.9860   41.3060   34.4150 C.3   200  HEM200      0.0000
     32  CBC       17.4790   41.6210   34.6620 C.3   200  HEM200      0.0000
     33  ND        12.3080   39.1410   37.8080 N.ar  200  HEM200      0.0000
     34  C1D       13.3580   38.7020   36.9800 C.ar  200  HEM200      0.0000
     35  C2D       13.5120   37.2530   37.0450 C.ar  200  HEM200      0.0000
     36  C3D       12.5740   36.8080   37.9500 C.ar  200  HEM200      0.0000
     37  C4D       11.8150   37.9850   38.3890 C.ar  200  HEM200      0.0000
     38  CMD       14.5840   36.4050   36.2250 C.3   200  HEM200      0.0000
     39  CAD       12.3130   35.3570   38.4480 C.3   200  HEM200      0.0000
     40  CBD       13.0660   35.2770   39.8760 C.3   200  HEM200      0.0000
     41  CGD       12.9420   34.0190   40.7030 C.2   200  HEM200      0.0000
     42  O1D       13.5100   33.9700   41.8020 O.co2 200  HEM200      0.0000
     43  O2D       12.2190   33.1380   40.2820 O.co2 200  HEM200      0.0000
@<TRIPOS>BOND
     1    31    32    1
     2    31    28    1
     3    30    27    1
     4    28    27    2
     5    28    29    1
     6    27    26    1
     7    29     5    1
     8    29    25    2
     9    38    35    1
    10     5    34    2
    11    26    25    1
    12    26     4    2
    13    25     1    1
    14    34    35   ar
    15    34    33   ar
    16    35    36   ar
    17     4    21    1
    18    33     1    1
    19    33    37   ar
    20    21    20   ar
    21    21    17   ar
    22    23    20    1
    23    23    24    1
    24    36    37   ar
    25    36    39    1
    26     1    17    1
    27     1     6    1
    28    20    19   ar
    29    17    18   ar
    30    37     2    2
    31    39    40    1
    32    19    18   ar
    33    19    22    1
    34    18     3    1
    35     2     7    1
    36     6     7    2
    37     6    10    1
    38     3    10    2
    39     7     8    1
    40    10     9    1
    41    40    41    1
    42    16    14   ar
    43    43    41   ar
    44    13    14    1
    45    13    12    1
    46     8     9    2
    47     8    12    1
    48     9    11    1
    49    41    42   ar
    50    14    15   ar
