@<TRIPOS>MOLECULE
2gc7_HEM_D_1.pdb
 43 50 0 0 0
SMALL
GASTEIGER

@<TRIPOS>ATOM
      1 FE         11.7030   41.0000   38.2100 Fe    200  HEM200      0.0000
      2  CHA       10.7520   38.0010   39.3830 C.2   200  HEM200      0.0000
      3  CHB        9.0570   42.4240   39.8090 C.2   200  HEM200      0.0000
      4  CHC       12.7310   44.0810   37.2310 C.2   200  HEM200      0.0000
      5  CHD       14.1300   39.5960   36.3190 C.2   200  HEM200      0.0000
      6  NA        10.1910   40.3330   39.4160 N.2   200  HEM200      0.0000
      7  C1A        9.9810   39.0400   39.8040 C.2   200  HEM200      0.0000
      8  C2A        8.8310   38.9740   40.6800 C.2   200  HEM200      0.0000
      9  C3A        8.3370   40.2360   40.7910 C.2   200  HEM200      0.0000
     10  C4A        9.1860   41.0910   39.9860 C.2   200  HEM200      0.0000
     11  CMA        7.1040   40.7270   41.6200 C.3   200  HEM200      0.0000
     12  CAA        8.2920   37.6550   41.3460 C.3   200  HEM200      0.0000
     13  CBA        7.1870   37.0390   40.4540 C.3   200  HEM200      0.0000
     14  CGA        6.4520   35.8540   41.0030 C.2   200  HEM200      0.0000
     15  O1A        6.3590   35.7530   42.3000 O.co2 200  HEM200      0.0000
     16  O2A        5.9770   35.0910   40.2020 O.co2 200  HEM200      0.0000
     17  NB        11.0150   42.8790   38.4510 N.ar  200  HEM200      0.0000
     18  C1B        9.8720   43.2770   39.1290 C.ar  200  HEM200      0.0000
     19  C2B        9.6810   44.7170   39.0310 C.ar  200  HEM200      0.0000
     20  C3B       10.7760   45.2000   38.3470 C.ar  200  HEM200      0.0000
     21  C4B       11.5720   44.0640   37.9800 C.ar  200  HEM200      0.0000
     22  CMB        8.4650   45.5440   39.6290 C.3   200  HEM200      0.0000
     23  CAB       11.1530   46.6660   37.9990 C.3   200  HEM200      0.0000
     24  CBB       11.6160   47.4500   39.2760 C.3   200  HEM200      0.0000
     25  NC        13.1770   41.6990   37.0340 N.2   200  HEM200      0.0000
     26  C1C       13.4490   43.0080   36.7560 C.2   200  HEM200      0.0000
     27  C2C       14.5600   43.1300   35.8350 C.2   200  HEM200      0.0000
     28  C3C       14.9150   41.8660   35.5340 C.2   200  HEM200      0.0000
     29  C4C       14.0630   40.9820   36.2900 C.2   200  HEM200      0.0000
     30  CMC       15.1460   44.4950   35.2960 C.3   200  HEM200      0.0000
     31  CAC       15.9830   41.3590   34.5010 C.3   200  HEM200      0.0000
     32  CBC       17.4450   41.7040   34.7710 C.3   200  HEM200      0.0000
     33  ND        12.3320   39.1520   37.9210 N.ar  200  HEM200      0.0000
     34  C1D       13.3690   38.7170   37.0790 C.ar  200  HEM200      0.0000
     35  C2D       13.5270   37.2800   37.1280 C.ar  200  HEM200      0.0000
     36  C3D       12.5960   36.8290   38.0230 C.ar  200  HEM200      0.0000
     37  C4D       11.8480   37.9990   38.4820 C.ar  200  HEM200      0.0000
     38  CMD       14.6000   36.4250   36.2830 C.3   200  HEM200      0.0000
     39  CAD       12.3390   35.3770   38.4890 C.3   200  HEM200      0.0000
     40  CBD       13.0240   35.2430   39.9290 C.3   200  HEM200      0.0000
     41  CGD       12.8580   33.9630   40.6760 C.2   200  HEM200      0.0000
     42  O1D       13.4020   33.8900   41.7920 O.co2 200  HEM200      0.0000
     43  O2D       12.1460   33.0660   40.1960 O.co2 200  HEM200      0.0000
@<TRIPOS>BOND
     1    31    32    1
     2    31    28    1
     3    30    27    1
     4    28    27    2
     5    28    29    1
     6    27    26    1
     7    38    35    1
     8    29     5    1
     9    29    25    2
    10     5    34    2
    11    26    25    1
    12    26     4    2
    13    25     1    1
    14    34    35   ar
    15    34    33   ar
    16    35    36   ar
    17     4    21    1
    18    33     1    1
    19    33    37   ar
    20    21    20   ar
    21    21    17   ar
    22    23    20    1
    23    23    24    1
    24    36    37   ar
    25    36    39    1
    26     1    17    1
    27     1     6    1
    28    20    19   ar
    29    17    18   ar
    30    37     2    2
    31    39    40    1
    32    19    18   ar
    33    19    22    1
    34    18     3    1
    35     2     7    1
    36     6     7    2
    37     6    10    1
    38     7     8    1
    39     3    10    2
    40    40    41    1
    41    10     9    1
    42    43    41   ar
    43    16    14   ar
    44    13    14    1
    45    13    12    1
    46    41    42   ar
    47     8     9    2
    48     8    12    1
    49     9    11    1
    50    14    15   ar
