@<TRIPOS>MOLECULE
2gc8_885_A_1.pdb
 20 21 0 0 0
SMALL
GASTEIGER

@<TRIPOS>ATOM
      1  C1         6.7990   43.0500   54.4950 C.3   579  885579      0.0320
      2  C2         7.4540   43.5210   53.2210 C.ar  579  885579     -0.0099
      3  C3         8.6050   44.3390   53.3300 C.ar  579  885579      0.0179
      4  C4         9.2780   44.8240   52.1750 C.ar  579  885579      0.1386
      5  C5         8.8090   44.5050   50.8520 C.ar  579  885579      0.1084
      6  C6         7.6400   43.6870   50.7430 C.ar  579  885579      0.0305
      7  C7         6.9620   43.2010   51.9040 C.ar  579  885579      0.0551
      8 CL          5.5500   42.2330   51.6510 Cl    579  885579     -0.0825
      9  N1         9.4300   44.9510   49.6860 N.pl3 579  885579     -0.1266
     10  S1        10.6940   45.8720   52.4530 S.O2  579  885579      0.0650
     11  O1        10.2540   47.2250   52.1370 O.2   579  885579     -0.1527
     12  O2        11.2330   45.5830   53.7710 O.2   579  885579     -0.1527
     13  N2        11.8410   45.3750   51.2710 N.3   579  885579     -0.1460
     14  C8        12.4760   44.0230   51.4280 C.3   579  885579      0.0964
     15  C9        13.8930   44.3280   51.8810 C.3   579  885579      0.0212
     16  C10       14.2450   45.5630   51.0660 C.3   579  885579      0.0308
     17  C11       12.9470   46.3690   51.0060 C.3   579  885579      0.1822
     18  C12       12.6050   47.0470   49.6610 C.2   579  885579      0.3806
     19  O3        11.7970   46.4450   48.8900 O.co2 579  885579     -0.2441
     20  O4        13.1770   48.1610   49.4910 O.co2 579  885579     -0.2441
@<TRIPOS>BOND
     1    19    18   ar
     2    20    18   ar
     3    18    17    1
     4     9     5    1
     5     6     5   ar
     6     6     7   ar
     7     5     4   ar
     8    17    16    1
     9    17    13    1
    10    16    15    1
    11    13    14    1
    12    13    10    1
    13    14    15    1
    14     8     7    1
    15     7     2   ar
    16    11    10    2
    17     4    10    1
    18     4     3   ar
    19    10    12    2
    20     2     3   ar
    21     2     1    1
