@<TRIPOS>MOLECULE
2gcd_STU_A_1.pdb
 35 42 0 0 0
SMALL
GASTEIGER

@<TRIPOS>ATOM
      1  O4        45.8590   57.0510   -0.5390 O.3   400  STU400     -0.3186
      2  C25       44.7410   56.1840   -0.2990 C.3   400  STU400      0.2078
      3  C24       43.5290   56.7670    0.4440 C.3   400  STU400      0.0739
      4  C23       43.8720   58.2270    0.8050 C.3   400  STU400      0.1086
      5  C22       45.2440   58.1740    1.5710 C.3   400  STU400      0.1761
      6  C21       46.3690   57.8040    0.5660 C.3   400  STU400      0.1915
      7  C26       46.8520   59.1810    0.0540 C.3   400  STU400      0.0566
      8  N2        47.4080   57.0880    1.3760 N.ar  400  STU400     -0.3054
      9  C18       47.3120   55.7080    1.5690 C.ar  400  STU400      0.0774
     10  C19       46.3380   54.8060    1.1170 C.ar  400  STU400      0.0783
     11  C6        46.4370   53.4730    1.5050 C.ar  400  STU400      0.0293
     12  C7        47.5030   52.9960    2.3080 C.ar  400  STU400      0.0822
     13  C10       48.4840   53.9090    2.7280 C.ar  400  STU400      0.0154
     14  C11       48.3680   55.2730    2.4030 C.ar  400  STU400      0.0173
     15  C12       49.1680   56.4210    2.7270 C.ar  400  STU400      0.0171
     16  C17       48.5730   57.5210    2.0740 C.ar  400  STU400      0.0617
     17  C16       49.1880   58.7900    2.2170 C.ar  400  STU400      0.0172
     18  C15       50.3620   58.8870    3.0010 C.ar  400  STU400      0.0015
     19  C14       50.8970   57.7600    3.6300 C.ar  400  STU400      0.0001
     20  C13       50.3040   56.5340    3.5080 C.ar  400  STU400      0.0015
     21  C9        49.4910   53.1480    3.5980 C.3   400  STU400      0.1650
     22  N1        48.9840   51.7480    3.6020 N.2   400  STU400     -0.1976
     23  C8        47.8460   51.6470    2.8320 C.1   400  STU400      0.1501
     24  O5        47.2230   50.6040    2.6690 O.2   400  STU400     -0.2222
     25  C5        45.3390   52.7680    0.8630 C.ar  400  STU400      0.0180
     26  C20       44.5950   53.7720    0.1880 C.ar  400  STU400      0.0618
     27  C1        43.4730   53.4330   -0.5360 C.ar  400  STU400      0.0172
     28  C2        43.1170   52.0490   -0.4960 C.ar  400  STU400      0.0015
     29  C3        43.8220   51.0700    0.2270 C.ar  400  STU400      0.0001
     30  C4        44.9750   51.3900    0.9140 C.ar  400  STU400      0.0015
     31  N3        45.2490   54.9700    0.3480 N.ar  400  STU400     -0.3039
     32  O6        45.0890   57.1480    2.5980 O.3   400  STU400     -0.3478
     33  C27       45.6380   57.6520    3.8340 C.3   400  STU400      0.1743
     34  N4        42.7720   59.0010    1.4850 N.3   400  STU400     -0.2152
     35  C28       41.4360   58.5830    0.8720 C.3   400  STU400      0.1075
@<TRIPOS>BOND
     1     1     2    1
     2     1     6    1
     3    27    28   ar
     4    27    26   ar
     5    28    29   ar
     6     2    31    1
     7     2     3    1
     8     7     6    1
     9    26    31   ar
    10    26    25   ar
    11    29    30   ar
    12    31    10   ar
    13     3     4    1
    14     6     8    1
    15     6     5    1
    16     4    34    1
    17     4     5    1
    18    25    30   ar
    19    25    11   ar
    20    35    34    1
    21    10    11   ar
    22    10     9   ar
    23     8     9   ar
    24     8    16   ar
    25    11    12   ar
    26     9    14   ar
    27     5    32    1
    28    16    17   ar
    29    16    15   ar
    30    17    18   ar
    31    12    13   ar
    32    12    23    1
    33    14    15   ar
    34    14    13   ar
    35    32    33    1
    36    24    23    2
    37    15    20   ar
    38    13    21    1
    39    23    22    2
    40    18    19   ar
    41    20    19   ar
    42    21    22    1
