@<TRIPOS>MOLECULE
2gcg_NDP_A_1.pdb
 48 52 0 0 0
SMALL
GASTEIGER

@<TRIPOS>ATOM
      1  PA         5.5420   12.7560  -10.9310 P.3   2001  NDP2001     0.2189
      2  O1A        4.3790   13.6760  -11.0370 O.2   2001  NDP2001    -0.5170
      3  O2A        5.1570   11.3250  -10.7810 O.3   2001  NDP2001    -0.4371
      4  O5B        6.4370   12.8720  -12.2600 O.3   2001  NDP2001    -0.3112
      5  C5B        6.5750   11.7180  -13.0540 C.3   2001  NDP2001     0.1813
      6  C4B        6.0770   12.0010  -14.4530 C.3   2001  NDP2001     0.1820
      7  O4B        6.4410   10.9350  -15.3090 O.3   2001  NDP2001    -0.3136
      8  C3B        4.5630   12.1040  -14.5380 C.3   2001  NDP2001     0.2157
      9  O3B        4.2470   13.3440  -15.1430 O.3   2001  NDP2001    -0.2175
     10  C2B        4.1450   10.9290  -15.4240 C.3   2001  NDP2001     0.2314
     11  O2B        3.0350   11.2370  -16.2410 O.3   2001  NDP2001    -0.2630
     12  C1B        5.4020   10.7490  -16.2460 C.3   2001  NDP2001     0.3158
     13  N9A        5.4560    9.4760  -16.9780 N.pl3 2001  NDP2001    -0.1439
     14  C8A        5.2450    8.2120  -16.4880 C.3   2001  NDP2001     0.3377
     15  N7A        5.3840    7.3350  -17.5060 N.2   2001  NDP2001    -0.2095
     16  C5A        5.6770    8.0220  -18.6350 C.2   2001  NDP2001     0.2526
     17  C6A        5.9240    7.6100  -19.9470 C.2   2001  NDP2001     0.4393
     18  N6A        5.8910    6.3110  -20.2490 N.pl3 2001  NDP2001     0.2180
     19  N1A        6.2200    8.5560  -20.9170 N.2   2001  NDP2001     0.0021
     20  C2A        6.2700    9.8980  -20.5680 C.3   2001  NDP2001     0.5254
     21  N3A        6.0250   10.2970  -19.2600 N.2   2001  NDP2001    -0.0055
     22  C4A        5.7300    9.3720  -18.3150 C.2   2001  NDP2001     0.3518
     23  O3         6.4020   13.2900   -9.6740 O.3   2001  NDP2001    -0.2703
     24  PN         7.6720   14.2890   -9.8590 P.3   2001  NDP2001     0.2189
     25  O1N        7.3840   15.3200  -10.8880 O.2   2001  NDP2001    -0.5170
     26  O2N        8.0430   14.6530   -8.4800 O.3   2001  NDP2001    -0.4371
     27  O5D        8.7570   13.2480  -10.4380 O.3   2001  NDP2001    -0.3112
     28  C5D        9.9310   13.6540  -11.1330 C.3   2001  NDP2001     0.1813
     29  C4D       10.9310   12.4990  -11.3010 C.3   2001  NDP2001     0.1799
     30  O4D       12.2160   13.0340  -11.5460 O.3   2001  NDP2001    -0.3327
     31  C3D       11.0700   11.5830  -10.1010 C.3   2001  NDP2001     0.2158
     32  O3D       10.2710   10.4160  -10.2280 O.3   2001  NDP2001    -0.2175
     33  C2D       12.5680   11.2980  -10.0040 C.3   2001  NDP2001     0.2309
     34  O2D       12.9560   10.1190  -10.6680 O.3   2001  NDP2001    -0.2158
     35  C1D       13.2150   12.4510  -10.7290 C.3   2001  NDP2001     0.2263
     36  N1N       13.7720   13.4360   -9.7590 N.pl3 2001  NDP2001    -0.2787
     37  C2N       15.0550   13.8450   -9.9400 C.3   2001  NDP2001     0.1244
     38  C3N       15.6850   14.7110   -9.0470 C.2   2001  NDP2001     0.0544
     39  C7N       17.0990   15.0880   -9.3530 C.2   2001  NDP2001     0.2818
     40  O7N       17.9580   15.4100   -8.2840 O.2   2001  NDP2001    -0.2670
     41  N7N       17.4670   15.0960  -10.6400 N.am  2001  NDP2001    -0.0839
     42  C4N       15.0040   15.2630   -7.8050 C.2   2001  NDP2001     0.0033
     43  C5N       13.5970   14.7440   -7.7240 C.2   2001  NDP2001     0.0157
     44  C6N       13.0640   13.8850   -8.6780 C.2   2001  NDP2001     0.0633
     45  P2B        1.9850   10.1040  -16.6830 P.3   2001  NDP2001     0.5328
     46  O1X        0.7130   10.7260  -17.2440 O.3   2001  NDP2001    -0.1145
     47  O2X        1.6280    9.2540  -15.4780 O.3   2001  NDP2001    -0.1145
     48  O3X        2.6340    9.3060  -17.7760 O.2   2001  NDP2001    -0.2224
@<TRIPOS>BOND
     1    19    20    1
     2    19    17    2
     3    20    21    1
     4    18    17    1
     5    17    16    1
     6    21    22    2
     7    16    22    1
     8    16    15    2
     9    22    13    1
    10    48    45    2
    11    15    14    1
    12    46    45    1
    13    13    14    1
    14    13    12    1
    15    45    11    1
    16    45    47    1
    17    12    10    1
    18    12     7    1
    19    11    10    1
    20    10     8    1
    21     7     6    1
    22     9     8    1
    23     8     6    1
    24     6     5    1
    25     5     4    1
    26     4     1    1
    27    30    29    1
    28    30    35    1
    29    29    28    1
    30    29    31    1
    31    28    27    1
    32     2     1    2
    33     1     3    1
    34     1    23    1
    35    25    24    2
    36    35    33    1
    37    35    36    1
    38    34    33    1
    39    41    39   am
    40    27    24    1
    41    32    31    1
    42    31    33    1
    43    37    36    1
    44    37    38    1
    45    24    23    1
    46    24    26    1
    47    36    44    1
    48    39    38    1
    49    39    40    2
    50    38    42    2
    51    44    43    2
    52    42    43    1
