@<TRIPOS>MOLECULE
2gcn_GDP_A_1.pdb
 28 30 0 0 0
SMALL
GASTEIGER

@<TRIPOS>ATOM
      1  PB        -7.9250   -4.8080   -5.1130 P.3   1001  GDP1001     0.5373
      2  O1B       -7.9920   -5.1800   -3.6660 O.3   1001  GDP1001    -0.1143
      3  O2B       -8.5390   -5.8890   -5.9790 O.2   1001  GDP1001    -0.2221
      4  O3B       -8.6180   -3.4770   -5.3440 O.3   1001  GDP1001    -0.1143
      5  O3A       -6.3660   -4.6240   -5.5240 O.3   1001  GDP1001    -0.2261
      6  PA        -5.0530   -5.3040   -4.8450 P.3   1001  GDP1001     0.2231
      7  O1A       -4.7230   -4.5840   -3.5630 O.3   1001  GDP1001    -0.4370
      8  O2A       -5.2790   -6.7960   -4.7130 O.2   1001  GDP1001    -0.5169
      9  O5'       -3.9130   -5.0030   -5.9080 O.3   1001  GDP1001    -0.3111
     10  C5'       -4.1440   -5.3510   -7.2890 C.3   1001  GDP1001     0.1813
     11  C4'       -2.8150   -5.3780   -8.0450 C.3   1001  GDP1001     0.1799
     12  O4'       -2.3270   -4.0370   -8.1400 O.3   1001  GDP1001    -0.3326
     13  C3'       -1.7160   -6.2200   -7.3990 C.3   1001  GDP1001     0.2158
     14  O3'       -1.0060   -6.8230   -8.4890 O.3   1001  GDP1001    -0.2175
     15  C2'       -0.8650   -5.1780   -6.6900 C.3   1001  GDP1001     0.2310
     16  O2'        0.5030   -5.5080   -6.5060 O.3   1001  GDP1001    -0.2158
     17  C1'       -1.0160   -3.9590   -7.5960 C.3   1001  GDP1001     0.2293
     18  N9        -0.9430   -2.7230   -6.8070 N.pl3 1001  GDP1001    -0.2354
     19  C8        -1.5960   -2.4220   -5.6630 C.3   1001  GDP1001     0.2246
     20  N7        -1.2640   -1.1870   -5.2290 N.2   1001  GDP1001    -0.2322
     21  C5        -0.3900   -0.6880   -6.1250 C.2   1001  GDP1001     0.2182
     22  C6         0.3770    0.5620   -6.2800 C.1   1001  GDP1001     0.2372
     23  O6         0.2600    1.4860   -5.4450 O.2   1001  GDP1001    -0.2069
     24  N1         1.1860    0.6590   -7.3500 N.2   1001  GDP1001    -0.2485
     25  C2         1.3360   -0.3250   -8.2620 C.1   1001  GDP1001     0.2531
     26  N2         2.1630   -0.1250   -9.3050 N.pl3 1001  GDP1001    -0.0226
     27  N3         0.6710   -1.5080   -8.1830 N.2   1001  GDP1001    -0.3074
     28  C4        -0.1760   -1.7130   -7.1560 C.2   1001  GDP1001     0.2300
@<TRIPOS>BOND
     1    26    25    1
     2    14    13    1
     3    25    27    2
     4    25    24    2
     5    27    28    2
     6    12    11    1
     7    12    17    1
     8    11    13    1
     9    11    10    1
    10    17    18    1
    11    17    15    1
    12    13    15    1
    13    24    22    2
    14    10     9    1
    15    28    18    1
    16    28    21    1
    17    18    19    1
    18    15    16    1
    19    22    21    1
    20    22    23    2
    21    21    20    2
    22     3     1    2
    23     9     6    1
    24    19    20    1
    25     5     1    1
    26     5     6    1
    27     4     1    1
    28     1     2    1
    29     6     8    2
    30     6     7    1
