@<TRIPOS>MOLECULE
2gco_GNP_A_1.pdb
 32 34 0 0 0
SMALL
GASTEIGER

@<TRIPOS>ATOM
      1  PG        13.8210  -17.3220   33.0620 P.3   1001  GNP1001     0.4884
      2  O1G       13.8580  -18.5040   34.0360 O.3   1001  GNP1001    -0.1240
      3  O2G       13.6220  -17.7340   31.6520 O.2   1001  GNP1001    -0.2331
      4  O3G       15.1170  -16.5670   33.3390 O.3   1001  GNP1001    -0.1240
      5  N3B       12.6250  -16.3330   33.5000 N.3   1001  GNP1001    -0.0163
      6  PB        12.1300  -15.0040   32.7160 P.3   1001  GNP1001     0.4669
      7  O1B       12.9650  -13.8440   33.1200 O.3   1001  GNP1001    -0.1253
      8  O2B       11.9980  -15.2580   31.2600 O.2   1001  GNP1001    -0.2351
      9  O3A       10.7010  -14.6860   33.2590 O.3   1001  GNP1001    -0.2360
     10  PA         9.2940  -14.9060   32.5910 P.3   1001  GNP1001     0.2220
     11  O1A        9.0940  -13.9670   31.4690 O.2   1001  GNP1001    -0.5170
     12  O2A        9.1280  -16.3450   32.3120 O.3   1001  GNP1001    -0.4370
     13  O5'        8.2850  -14.4600   33.7160 O.3   1001  GNP1001    -0.3111
     14  C5'        8.3910  -15.0210   35.0410 C.3   1001  GNP1001     0.1813
     15  C4'        7.1120  -14.7540   35.8110 C.3   1001  GNP1001     0.1799
     16  O4'        6.8980  -13.3240   35.8790 O.3   1001  GNP1001    -0.3326
     17  C3'        5.8670  -15.3460   35.1490 C.3   1001  GNP1001     0.2158
     18  O3'        5.0040  -15.8970   36.1610 O.3   1001  GNP1001    -0.2175
     19  C2'        5.2000  -14.1450   34.4850 C.3   1001  GNP1001     0.2310
     20  O2'        3.7900  -14.2200   34.4530 O.3   1001  GNP1001    -0.2158
     21  C1'        5.6190  -12.9900   35.3960 C.3   1001  GNP1001     0.2293
     22  N9         5.7330  -11.6920   34.7360 N.pl3 1001  GNP1001    -0.2354
     23  C8         6.4420  -11.4010   33.5880 C.3   1001  GNP1001     0.2246
     24  N7         6.3270  -10.1570   33.2390 N.2   1001  GNP1001    -0.2322
     25  C5         5.5210   -9.5800   34.1990 C.2   1001  GNP1001     0.2182
     26  C6         5.0680   -8.2490   34.3290 C.1   1001  GNP1001     0.2372
     27  O6         5.3150   -7.2820   33.6000 O.2   1001  GNP1001    -0.2069
     28  N1         4.2620   -8.0670   35.4580 N.2   1001  GNP1001    -0.2485
     29  C2         3.9270   -9.0870   36.3290 C.1   1001  GNP1001     0.2531
     30  N2         3.1330   -8.7370   37.3510 N.pl3 1001  GNP1001    -0.0226
     31  N3         4.3380  -10.3390   36.2210 N.2   1001  GNP1001    -0.3074
     32  C4         5.1350  -10.5280   35.1340 C.2   1001  GNP1001     0.2300
@<TRIPOS>BOND
     1     8     6    2
     2    11    10    2
     3     3     1    2
     4    12    10    1
     5    10     9    1
     6    10    13    1
     7     6     7    1
     8     6     9    1
     9     6     5    1
    10     1     4    1
    11     1     5    1
    12     1     2    1
    13    24    23    1
    14    24    25    2
    15    23    22    1
    16    27    26    2
    17    13    14    1
    18    25    26    1
    19    25    32    1
    20    26    28    2
    21    20    19    1
    22    19    17    1
    23    19    21    1
    24    22    32    1
    25    22    21    1
    26    14    15    1
    27    32    31    2
    28    17    15    1
    29    17    18    1
    30    21    16    1
    31    28    29    2
    32    15    16    1
    33    31    29    2
    34    29    30    1
