@<TRIPOS>MOLECULE
2gcp_GSP_A_1.pdb
 32 34 0 0 0
SMALL
GASTEIGER

@<TRIPOS>ATOM
      1  PG        17.6580   17.0980   14.0810 P.3   1001  GSP1001     0.4340
      2  O3B       17.0190   16.3500   15.4170 O.3   1001  GSP1001    -0.2405
      3  S1G       19.3290   17.6380   14.5510 S.3   1001  GSP1001     0.0416
      4  O2G       16.7060   18.2400   13.7080 O.3   1001  GSP1001    -0.1305
      5  O3G       17.6790   15.9580   13.0430 O.2   1001  GSP1001    -0.2423
      6  PB        15.6650   15.4830   15.6010 P.3   1001  GSP1001     0.2262
      7  O1B       14.5760   16.4330   15.9500 O.3   1001  GSP1001    -0.4369
      8  O2B       15.3010   14.5950   14.4810 O.2   1001  GSP1001    -0.5168
      9  PA        16.0530   12.9190   16.9590 P.3   1001  GSP1001     0.2189
     10  O1A       14.7580   12.2690   16.7050 O.3   1001  GSP1001    -0.4371
     11  O2A       17.1710   12.3370   16.1760 O.2   1001  GSP1001    -0.5170
     12  O3A       15.9950   14.5350   16.8650 O.3   1001  GSP1001    -0.2701
     13  O5'       16.3300   12.8030   18.5430 O.3   1001  GSP1001    -0.3112
     14  C5'       17.3030   13.6090   19.2140 C.3   1001  GSP1001     0.1813
     15  C4'       17.7870   12.8620   20.4610 C.3   1001  GSP1001     0.1799
     16  O4'       16.6550   12.7220   21.3080 O.3   1001  GSP1001    -0.3326
     17  C3'       18.2550   11.4390   20.2040 C.3   1001  GSP1001     0.2158
     18  O3'       19.2970   11.1270   21.1120 O.3   1001  GSP1001    -0.2175
     19  C2'       17.0360   10.5670   20.4990 C.3   1001  GSP1001     0.2310
     20  O2'       17.3500    9.2240   20.8440 O.3   1001  GSP1001    -0.2158
     21  C1'       16.3100   11.3760   21.5620 C.3   1001  GSP1001     0.2293
     22  N9        14.8380   11.1800   21.5210 N.pl3 1001  GSP1001    -0.2354
     23  C8        13.9960   11.1640   20.4270 C.3   1001  GSP1001     0.2246
     24  N7        12.7350   10.8900   20.8110 N.2   1001  GSP1001    -0.2322
     25  C5        12.7530   10.7210   22.1700 C.2   1001  GSP1001     0.2182
     26  C6        11.7500   10.4630   23.1190 C.1   1001  GSP1001     0.2372
     27  O6        10.5590   10.3010   22.7810 O.2   1001  GSP1001    -0.2069
     28  N1        12.1190   10.3730   24.4530 N.2   1001  GSP1001    -0.2485
     29  C2        13.4280   10.5270   24.8400 C.1   1001  GSP1001     0.2531
     30  N2        13.7740   10.4430   26.1030 N.pl3 1001  GSP1001    -0.0226
     31  N3        14.4020   10.8020   23.9210 N.2   1001  GSP1001    -0.3074
     32  C4        14.0720   10.8980   22.6110 C.2   1001  GSP1001     0.2300
@<TRIPOS>BOND
     1     5     1    2
     2     4     1    1
     3     1     3    1
     4     1     2    1
     5     8     6    2
     6     2     6    1
     7     6     7    1
     8     6    12    1
     9    11     9    2
    10    10     9    1
    11    12     9    1
    12     9    13    1
    13    13    14    1
    14    14    15    1
    15    17    15    1
    16    17    19    1
    17    17    18    1
    18    23    24    1
    19    23    22    1
    20    15    16    1
    21    19    20    1
    22    19    21    1
    23    24    25    2
    24    16    21    1
    25    22    21    1
    26    22    32    1
    27    25    32    1
    28    25    26    1
    29    32    31    2
    30    27    26    2
    31    26    28    2
    32    31    29    2
    33    28    29    2
    34    29    30    1
