@<TRIPOS>MOLECULE
2gcq_GDP_A_1.pdb
 28 30 0 0 0
SMALL
GASTEIGER

@<TRIPOS>ATOM
      1  PB         4.2010   47.1850  165.6400 P.3   432  GDP432      0.5373
      2  O1B        4.1800   46.5360  167.0190 O.3   432  GDP432     -0.1143
      3  O2B        5.3340   48.1780  165.4540 O.3   432  GDP432     -0.1143
      4  O3B        4.0780   46.1770  164.5080 O.2   432  GDP432     -0.2221
      5  O3A        2.8520   48.0900  165.5450 O.3   432  GDP432     -0.2261
      6  PA         2.6340   49.4910  166.3440 P.3   432  GDP432      0.2231
      7  O1A        2.3820   49.0770  167.7490 O.3   432  GDP432     -0.4370
      8  O2A        3.7690   50.4060  166.0490 O.2   432  GDP432     -0.5169
      9  O5'        1.3210   50.1680  165.7580 O.3   432  GDP432     -0.3111
     10  C5'        0.1220   49.4230  165.5960 C.3   432  GDP432      0.1813
     11  C4'       -1.0230   50.1190  166.2960 C.3   432  GDP432      0.1799
     12  O4'       -2.2680   49.4690  165.9650 O.3   432  GDP432     -0.3326
     13  C3'       -0.9400   50.1550  167.8130 C.3   432  GDP432      0.2158
     14  O3'       -1.3140   51.4410  168.2900 O.3   432  GDP432     -0.2175
     15  C2'       -1.8860   49.0440  168.2520 C.3   432  GDP432      0.2310
     16  O2'       -2.4530   49.2920  169.5210 O.3   432  GDP432     -0.2158
     17  C1'       -2.9380   49.0760  167.1450 C.3   432  GDP432      0.2293
     18  N9        -3.5410   47.7840  166.8460 N.pl3 432  GDP432     -0.2354
     19  C8        -2.9410   46.5490  166.8870 C.3   432  GDP432      0.2246
     20  N7        -3.7130   45.5930  166.4460 N.2   432  GDP432     -0.2322
     21  C5        -4.8980   46.2360  166.1130 C.2   432  GDP432      0.2182
     22  C6        -6.0960   45.7280  165.5530 C.1   432  GDP432      0.2372
     23  O6        -6.3510   44.5750  165.2010 O.2   432  GDP432     -0.2069
     24  N1        -7.0530   46.7280  165.3990 N.2   432  GDP432     -0.2485
     25  C2        -6.8760   48.0490  165.7300 C.1   432  GDP432      0.2531
     26  N2        -7.9210   48.8660  165.5240 N.pl3 432  GDP432     -0.0226
     27  N3        -5.7560   48.5370  166.2290 N.2   432  GDP432     -0.3074
     28  C4        -4.8180   47.5820  166.3910 C.2   432  GDP432      0.2300
@<TRIPOS>BOND
     1     4     1    2
     2    23    22    2
     3    24    22    2
     4    24    25    2
     5     3     1    1
     6    26    25    1
     7     5     1    1
     8     5     6    1
     9    22    21    1
    10    10     9    1
    11    10    11    1
    12     1     2    1
    13    25    27    2
    14     9     6    1
    15    12    11    1
    16    12    17    1
    17     8     6    2
    18    21    28    1
    19    21    20    2
    20    27    28    2
    21    11    13    1
    22     6     7    1
    23    28    18    1
    24    20    19    1
    25    18    19    1
    26    18    17    1
    27    17    15    1
    28    13    15    1
    29    13    14    1
    30    15    16    1
