@<TRIPOS>MOLECULE
2gcq_DOI_A_1.pdb
 26 28 0 0 0
SMALL
GASTEIGER

@<TRIPOS>ATOM
      1  PA        16.0480   53.8750  161.1900 P.3   451  DOI451      0.5327
      2  O1A       15.7530   54.7430  162.3990 O.3   451  DOI451     -0.1145
      3  O2A       17.4600   54.0620  160.6590 O.2   451  DOI451     -0.2224
      4  O3A       15.6920   52.4170  161.4290 O.3   451  DOI451     -0.1145
      5  O5'       15.0500   54.4280  160.0290 O.3   451  DOI451     -0.2675
      6  P6         8.5110   48.8770  164.2750 P.3   451  DOI451      0.5898
      7  O16        7.7610   49.7130  165.3090 O.3   451  DOI451     -0.1039
      8  O26        9.3580   47.7660  164.8830 O.3   451  DOI451     -0.1039
      9  O36        7.6030   48.3550  163.1750 O.2   451  DOI451     -0.2114
     10  C5'       15.0640   53.8800  158.6950 C.3   451  DOI451      0.1859
     11  C4'       13.6490   53.7460  158.1880 C.3   451  DOI451      0.1796
     12  O4'       12.9420   52.7670  158.9840 O.3   451  DOI451     -0.3155
     13  C1'       11.6780   53.2750  159.3480 C.3   451  DOI451      0.2873
     14  N9        11.3420   52.7320  160.6620 N.pl3 451  DOI451     -0.1462
     15  C4        10.1520   52.1300  160.9940 C.2   451  DOI451      0.3461
     16  N3         8.9850   52.2090  160.3300 N.2   451  DOI451     -0.0347
     17  C2         8.0470   51.4850  160.9450 C.3   451  DOI451      0.3944
     18  N1         8.1410   50.7450  162.0630 N.2   451  DOI451     -0.1827
     19  C6         9.3300   50.6850  162.6980 C.2   451  DOI451      0.2580
     20  O6         9.6010   49.8840  163.5960 O.2   451  DOI451     -0.3807
     21  C5        10.4000   51.4180  162.1520 C.2   451  DOI451      0.2152
     22  N7        11.7190   51.5820  162.5540 N.2   451  DOI451     -0.2121
     23  C8        12.2310   52.3660  161.6400 C.3   451  DOI451      0.3376
     24  C2'       11.8190   54.7950  159.3620 C.3   451  DOI451      0.1151
     25  C3'       12.8280   55.0320  158.2390 C.3   451  DOI451      0.1883
     26  O3'       12.2170   55.2880  156.9790 O.3   451  DOI451     -0.2202
@<TRIPOS>BOND
     1    26    25    1
     2    11    25    1
     3    11    10    1
     4    11    12    1
     5    25    24    1
     6    10     5    1
     7    12    13    1
     8    13    24    1
     9    13    14    1
    10     5     1    1
    11    16    17    1
    12    16    15    2
    13     3     1    2
    14    14    15    1
    15    14    23    1
    16    17    18    1
    17    15    21    1
    18     1     4    1
    19     1     2    1
    20    23    22    1
    21    18    19    2
    22    21    22    2
    23    21    19    1
    24    19    20    1
    25     9     6    2
    26    20     6    1
    27     6     8    1
    28     6     7    1
