@<TRIPOS>MOLECULE
2gct_III_D_1.pdb
 28 29 0 0 0
SMALL
GASTEIGER

@<TRIPOS>ATOM
      1  N         34.4980    2.4830   47.4170 N.3   501  PRO501     -0.2102
      2  CA        33.3860    2.7220   46.4500 C.3   501  PRO501      0.1504
      3  C         33.2710    1.7020   45.3440 C.2   501  PRO501      0.2576
      4  O         34.1100    0.8150   45.2440 O.2   501  PRO501     -0.2718
      5  CB        33.8620    3.8580   45.5620 C.3   501  PRO501      0.0282
      6  CG        35.2420    4.2340   46.0170 C.3   501  PRO501      0.0208
      7  CD        35.4780    3.5910   47.3690 C.3   501  PRO501      0.0893
      8  N         32.3330    1.9060   44.3930 N.am  502  GLY502     -0.1943
      9  CA        32.2190    0.9700   43.2600 C.3   502  GLY502      0.2014
     10  C         31.6380    1.5720   41.9830 C.2   502  GLY502      0.2639
     11  O         30.8190    2.4560   42.0410 O.2   502  GLY502     -0.2714
     12  N         32.0220    1.1200   40.7980 N.am  503  ALA503     -0.1963
     13  CA        31.4380    1.7010   39.5950 C.3   503  ALA503      0.1728
     14  C         29.9250    1.2530   39.4140 C.2   503  ALA503      0.2616
     15  O         29.6220    0.1500   39.8340 O.2   503  ALA503     -0.2715
     16  CB        32.3440    1.3290   38.4370 C.3   503  ALA503      0.0334
     17  N         28.9650    2.0660   38.8030 N.am  504  TYR504     -0.1974
     18  CA        27.4860    1.7350   38.7080 C.3   504  TYR504      0.1639
     19  C         26.7580    1.4690   37.3590 C.2   504  TYR504      0.2290
     20  O         26.2130    0.3830   37.1070 O.2   504  TYR504     -0.2864
     21  CB        26.8010    2.9050   39.1890 C.3   504  TYR504      0.0560
     22  CG        26.6620    2.9090   40.6270 C.ar  504  TYR504     -0.0198
     23  CD1       27.1390    2.0070   41.5690 C.ar  504  TYR504     -0.0009
     24  CD2       26.1900    4.1440   40.9940 C.ar  504  TYR504     -0.0009
     25  CE1       26.9830    2.2410   42.9240 C.ar  504  TYR504      0.0417
     26  CE2       26.0170    4.3850   42.3420 C.ar  504  TYR504      0.0417
     27  CZ        26.3760    3.4500   43.2910 C.ar  504  TYR504      0.1957
     28  OH        26.1080    3.8690   44.5690 O.3   504  TYR504     -0.2866
@<TRIPOS>BOND
     1    20    19    2
     2    19    18    1
     3    16    13    1
     4    18    17    1
     5    18    21    1
     6    17    14   am
     7    21    22    1
     8    14    13    1
     9    14    15    2
    10    13    12    1
    11    22    24   ar
    12    22    23   ar
    13    12    10   am
    14    24    26   ar
    15    23    25   ar
    16    10    11    2
    17    10     9    1
    18    26    27   ar
    19    25    27   ar
    20     9     8    1
    21    27    28    1
    22     8     3   am
    23     4     3    2
    24     3     2    1
    25     5     6    1
    26     5     2    1
    27     6     7    1
    28     2     1    1
    29     7     1    1
