@<TRIPOS>MOLECULE
2gd2_CAA_B_1.pdb
 48 50 0 0 0
SMALL
GASTEIGER

@<TRIPOS>ATOM
      1  N1A      111.6920   54.6060   21.6900 N.2   1752  CAA1752     0.0021
      2  C2A      112.2460   54.2080   22.8640 C.3   1752  CAA1752     0.5254
      3  N3A      113.0460   53.1230   22.9660 N.2   1752  CAA1752    -0.0055
      4  C4A      113.3260   52.3930   21.8450 C.2   1752  CAA1752     0.3518
      5  C5A      112.7830   52.7450   20.5700 C.2   1752  CAA1752     0.2526
      6  C6A      111.9120   53.9390   20.5230 C.2   1752  CAA1752     0.4393
      7  N6A      111.3630   54.3460   19.3540 N.pl3 1752  CAA1752     0.2180
      8  N7A      113.2440   51.8220   19.6340 N.2   1752  CAA1752    -0.2095
      9  C8A      114.0300   50.9530   20.3630 C.3   1752  CAA1752     0.3377
     10  N9A      114.0710   51.2990   21.6830 N.pl3 1752  CAA1752    -0.1439
     11  C1B      114.7470   50.7310   22.8610 C.3   1752  CAA1752     0.3185
     12  C2B      114.1720   49.4520   23.4780 C.3   1752  CAA1752     0.2543
     13  O2B      113.1660   49.5210   24.4710 O.3   1752  CAA1752    -0.2131
     14  C3B      115.3650   48.6300   23.8980 C.3   1752  CAA1752     0.1928
     15  O3B      115.5640   49.0840   25.2420 O.3   1752  CAA1752    -0.2673
     16  P3B      115.8040   48.0740   26.4830 P.3   1752  CAA1752     0.5327
     17  O7A      114.8080   46.8260   26.4930 O.3   1752  CAA1752    -0.1145
     18  O8A      117.3260   47.6260   26.3490 O.2   1752  CAA1752    -0.2224
     19  O9A      115.5140   48.8660   27.8300 O.3   1752  CAA1752    -0.1145
     20  C4B      116.5630   49.2540   23.2340 C.3   1752  CAA1752     0.1795
     21  O4B      116.1510   50.5010   22.6460 O.3   1752  CAA1752    -0.3136
     22  C5B      117.0670   48.2790   22.1510 C.3   1752  CAA1752     0.1812
     23  O5B      117.6910   47.1900   22.8490 O.3   1752  CAA1752    -0.3112
     24  P1A      118.6750   46.1610   22.0450 P.3   1752  CAA1752     0.2189
     25  O1A      119.2080   45.0980   23.0700 O.3   1752  CAA1752    -0.4371
     26  O2A      117.9540   45.5160   20.7860 O.2   1752  CAA1752    -0.5170
     27  O3A      119.8500   47.1460   21.5180 O.3   1752  CAA1752    -0.2703
     28  P2A      121.4300   47.0260   21.6820 P.3   1752  CAA1752     0.2188
     29  O4A      122.0790   48.3490   21.1510 O.2   1752  CAA1752    -0.5170
     30  O5A      121.9000   46.6270   23.1480 O.3   1752  CAA1752    -0.4371
     31  O6A      121.8180   45.7540   20.7710 O.3   1752  CAA1752    -0.3138
     32  CBP      121.9100   44.6600   18.6800 C.3   1752  CAA1752     0.0645
     33  CCP      121.9480   46.0210   19.3770 C.3   1752  CAA1752     0.1519
     34  CDP      122.0520   44.9640   17.1820 C.3   1752  CAA1752     0.0056
     35  CEP      123.0770   43.7860   19.1320 C.3   1752  CAA1752     0.0056
     36  CAP      120.5630   44.0130   19.0440 C.3   1752  CAA1752     0.2312
     37  OAP      119.4840   44.9050   18.7520 O.3   1752  CAA1752    -0.2131
     38  C9P      120.2950   42.6560   18.4060 C.2   1752  CAA1752     0.2719
     39  O9P      120.9460   41.6980   18.7940 O.2   1752  CAA1752    -0.2706
     40  N8P      119.3410   42.5840   17.4640 N.am  1752  CAA1752    -0.2028
     41  C7P      119.0350   41.4200   16.6180 C.3   1752  CAA1752     0.1248
     42  C6P      120.1680   41.0210   15.6650 C.3   1752  CAA1752     0.1102
     43  C5P      120.7690   42.1630   14.8500 C.2   1752  CAA1752     0.2432
     44  O5P      119.9910   43.0000   14.4220 O.2   1752  CAA1752    -0.2733
     45  N4P      122.1170   42.1970   14.6600 N.am  1752  CAA1752    -0.2044
     46  C3P      122.8700   43.2270   13.9500 C.3   1752  CAA1752     0.1276
     47  C2P      122.5730   43.1350   12.4340 C.3   1752  CAA1752     0.0920
     48  S1P      123.1330   44.5890   11.5580 S.3   1752  CAA1752    -0.0802
@<TRIPOS>BOND
     1    48    47    1
     2    47    46    1
     3    46    45    1
     4    44    43    2
     5    45    43   am
     6    43    42    1
     7    42    41    1
     8    41    40    1
     9    34    32    1
    10    40    38   am
    11    38    39    2
    12    38    36    1
    13    32    36    1
    14    32    35    1
    15    32    33    1
    16    37    36    1
    17     7     6    1
    18    33    31    1
    19     8     9    1
    20     8     5    2
    21     9    10    1
    22     6     5    1
    23     6     1    2
    24     5     4    1
    25    31    28    1
    26    26    24    2
    27    29    28    2
    28    27    28    1
    29    27    24    1
    30    28    30    1
    31    10     4    1
    32    10    11    1
    33     1     2    1
    34     4     3    2
    35    24    23    1
    36    24    25    1
    37    22    23    1
    38    22    20    1
    39    21    11    1
    40    21    20    1
    41    11    12    1
    42     2     3    1
    43    20    14    1
    44    12    14    1
    45    12    13    1
    46    14    15    1
    47    15    16    1
    48    18    16    2
    49    16    17    1
    50    16    19    1
