@<TRIPOS>MOLECULE
2gd8_PO1_A_1.pdb
 30 33 0 0 0
SMALL
GASTEIGER

@<TRIPOS>ATOM
      1  C1        -0.0580    8.8890   11.9170 C.ar  264  PO1264      0.2061
      2  C2        -0.7450    8.9780   13.1530 C.ar  264  PO1264      0.1749
      3  O2         2.5890    9.4290   12.6310 O.3   264  PO1264     -0.0428
      4  S1         2.1890   10.2280   11.5220 S.3   264  PO1264      0.1233
      5  O1         2.6440    9.9240   10.2120 O.3   264  PO1264     -0.0428
      6  N1         2.5120   11.7420   11.8410 N.3   264  PO1264      0.0501
      7  O3         0.5830   10.0720   11.4240 O.3   264  PO1264     -0.3437
      8  C3        -1.3730    7.8210   13.6490 C.ar  264  PO1264      0.0356
      9  C4        -1.3520    6.5550   12.9750 C.ar  264  PO1264     -0.0232
     10  C5        -0.6500    6.4970   11.7250 C.ar  264  PO1264     -0.0228
     11  C6        -0.0110    7.6490   11.2080 C.ar  264  PO1264      0.0384
     12  O4        -0.8580   10.1200   13.9220 O.3   264  PO1264     -0.4683
     13  C7        -0.1290   10.2340   15.1330 C.3   264  PO1264      0.2526
     14  C8        -2.0400    5.3220   13.5740 C.3   264  PO1264      0.0221
     15  C9        -2.4130    4.2730   12.4590 C.3   264  PO1264      0.0044
     16  C10       -1.1590    3.9480   11.6180 C.3   264  PO1264      0.0050
     17  C11       -0.5640    5.1970   10.9220 C.3   264  PO1264      0.0261
     18  C12       -3.2820    5.7030   14.4500 C.3   264  PO1264      0.0044
     19  C13       -3.9730    4.4550   15.0820 C.3   264  PO1264      0.0027
     20  C14       -4.3470    3.4060   14.0390 C.3   264  PO1264      0.0274
     21  C15       -3.0710    3.0720   13.1900 C.3   264  PO1264      0.0027
     22  C16       -5.5810    3.9170   13.2430 C.3   264  PO1264      0.0025
     23  C17       -4.5510    1.9600   14.5510 C.3   264  PO1264      0.1445
     24  C18       -4.5030    1.1010   13.2950 C.3   264  PO1264      0.0320
     25  C19       -3.5290    1.8400   12.3610 C.3   264  PO1264      0.0027
     26  O5        -5.8300    1.8250   15.2350 O.3   264  PO1264     -0.2300
     27  S2        -5.8960    0.9570   16.5670 S.3   264  PO1264      0.0827
     28  O6        -7.2760    0.9830   16.9230 O.3   264  PO1264     -0.0529
     29  O7        -4.9520    1.5590   17.4760 O.3   264  PO1264     -0.0529
     30  N2        -5.4350   -0.4940   16.1730 N.3   264  PO1264      0.0391
@<TRIPOS>BOND
     1     5     4    1
     2    17    16    1
     3    17    10    1
     4    11    10   ar
     5    11     1   ar
     6     7     4    1
     7     7     1    1
     8     4     6    1
     9     4     3    1
    10    16    15    1
    11    10     9   ar
    12     1     2   ar
    13    25    21    1
    14    25    24    1
    15    15    21    1
    16    15    14    1
    17     9    14    1
    18     9     8   ar
    19     2     8   ar
    20     2    12    1
    21    21    20    1
    22    22    20    1
    23    24    23    1
    24    14    18    1
    25    12    13    1
    26    20    23    1
    27    20    19    1
    28    18    19    1
    29    23    26    1
    30    26    27    1
    31    30    27    1
    32    27    28    1
    33    27    29    1
