@<TRIPOS>MOLECULE
2gdd_5AM_A_1.pdb
 42 45 0 0 0
SMALL
GASTEIGER

@<TRIPOS>ATOM
      1  C1        17.4410   53.3290   71.5540 C.3   999  5AM999      0.2368
      2  C3        18.1540   55.5600   70.4930 C.2   999  5AM999      0.4215
      3  C7        16.5570   58.3950   69.3210 C.1   999  5AM999      0.1356
      4  C8        16.1830   53.7220   72.2710 C.ar  999  5AM999      0.0213
      5  C9        14.8690   53.3090   71.7660 C.ar  999  5AM999     -0.0007
      6  C10       13.6540   53.6870   72.4720 C.ar  999  5AM999     -0.0002
      7  C11       13.7370   54.4800   73.6890 C.ar  999  5AM999     -0.0000
      8  C12       15.0170   54.8940   74.1980 C.ar  999  5AM999     -0.0002
      9  C13       16.2350   54.5210   73.5010 C.ar  999  5AM999     -0.0007
     10  C15       20.0010   57.3520   67.7900 C.3   999  5AM999      0.0256
     11  C16       21.2470   56.5570   68.2530 C.3   999  5AM999      0.0034
     12  C22       14.8070   57.9950   70.5590 C.2   999  5AM999      0.3095
     13  N23       15.5590   57.4570   69.5330 N.2   999  5AM999     -0.3130
     14  N26       12.2890   57.7450   70.7000 N.3   999  5AM999     -0.2608
     15  C27       11.2790   56.8360   71.3930 C.3   999  5AM999      0.0943
     16  N29        9.5370   58.5770   71.0330 N.am  999  5AM999     -0.2767
     17  C30       10.5340   59.5500   70.4310 C.3   999  5AM999      0.1107
     18  C31       11.9650   59.2100   70.9780 C.3   999  5AM999      0.0943
     19  C32        8.3480   59.0110   71.7510 C.2   999  5AM999      0.2257
     20  C33        7.4630   60.1260   71.3770 C.3   999  5AM999      0.0856
     21  C35        6.6030   59.7280   70.1590 C.3   999  5AM999      0.0142
     22  O2        17.7950   54.2680   70.5080 O.3   999  5AM999     -0.4285
     23  N4        18.4530   56.0680   69.1750 N.am  999  5AM999     -0.1667
     24  C5        18.8680   57.4340   68.8580 C.3   999  5AM999      0.1445
     25  O14       18.2340   56.3050   71.4780 O.2   999  5AM999     -0.2246
     26  C17       22.5260   56.9710   67.5120 C.3   999  5AM999      0.0206
     27  C18       23.7460   56.1710   67.9790 C.3   999  5AM999      0.1093
     28  N19       24.8550   56.3890   67.0570 N.3   999  5AM999     -0.1314
     29  N20       16.3710   59.4210   70.1850 N.2   999  5AM999     -0.0091
     30  O21       15.3220   59.1890   70.9330 O.2   999  5AM999     -0.3143
     31  O24       18.0390   59.5770   67.8900 O.3   999  5AM999     -0.2037
     32  C25       13.6350   57.3340   71.1570 C.3   999  5AM999      0.1762
     33  C28        9.8490   57.1150   70.8060 C.3   999  5AM999      0.1107
     34  O34        7.9660   58.4130   72.7830 O.2   999  5AM999     -0.2749
     35  C36        6.1500   60.9390   69.3360 C.3   999  5AM999      0.0269
     36  C37        5.0180   60.6150   68.4380 C.ar  999  5AM999     -0.0222
     37  C38        5.2350   59.8790   67.2250 C.ar  999  5AM999     -0.0043
     38  C39        3.6830   61.0380   68.7670 C.ar  999  5AM999     -0.0043
     39  C40        4.1480   59.5710   66.3580 C.ar  999  5AM999     -0.0003
     40  C41        2.5930   60.7310   67.8980 C.ar  999  5AM999     -0.0003
     41  C42        2.8310   59.9990   66.6920 C.ar  999  5AM999     -0.0000
     42  C6        17.6300   58.2600   68.3310 C.3   999  5AM999      0.2700
@<TRIPOS>BOND
     1    39    41   ar
     2    39    37   ar
     3    41    40   ar
     4    28    27    1
     5    37    36   ar
     6    26    27    1
     7    26    11    1
     8    10    11    1
     9    10    24    1
    10    31    42    1
    11    40    38   ar
    12    42    24    1
    13    42     3    1
    14    36    38   ar
    15    36    35    1
    16    24    23    1
    17    23     2   am
    18     3    13    2
    19     3    29    2
    20    35    21    1
    21    13    12    2
    22    21    20    1
    23    29    30    1
    24    17    18    1
    25    17    16    1
    26     2    22    1
    27     2    25    2
    28    22     1    1
    29    12    30    1
    30    12    32    1
    31    14    18    1
    32    14    32    1
    33    14    15    1
    34    33    16    1
    35    33    15    1
    36    16    19   am
    37    20    19    1
    38     1     4    1
    39    19    34    2
    40     5     4   ar
    41     5     6   ar
    42     4     9   ar
    43     6     7   ar
    44     9     8   ar
    45     7     8   ar
