@<TRIPOS>MOLECULE
2gde_SN3_H_1.pdb
 44 46 0 0 0
SMALL
GASTEIGER

@<TRIPOS>ATOM
      1  C1        20.6550  -15.2220   18.4460 C.3   401  SN3401      0.1822
      2  C2        21.1760  -14.0950   19.3760 C.3   401  SN3401      0.0373
      3  C3        20.2190  -13.5570   20.4370 C.3   401  SN3401      0.0231
      4  C4        19.1840  -14.5650   20.9690 C.3   401  SN3401      0.0785
      5  C5        18.6110  -15.5450   19.9140 C.3   401  SN3401      0.0553
      6  C6        19.7530  -16.2550   19.1810 C.3   401  SN3401      0.1838
      7  O7        20.4820  -17.0490   20.1390 O.3   401  SN3401     -0.2204
      8  N8        18.1550  -13.6680   21.5580 N.am  401  SN3401     -0.2731
      9  C9        18.1900  -12.3790   20.8640 C.3   401  SN3401      0.1535
     10  C10       19.3180  -12.4730   19.8170 C.3   401  SN3401      0.0310
     11  C11       16.8780  -12.1300   20.1530 C.2   401  SN3401      0.2594
     12  N12       16.3650  -10.8720   20.1540 N.am  401  SN3401     -0.2040
     13  C13       15.0980  -10.6020   19.4490 C.3   401  SN3401      0.1153
     14  C14       14.2810   -9.6110   20.2700 C.3   401  SN3401      0.0268
     15  C15       13.5580  -10.3830   21.3480 C.3   401  SN3401      0.0424
     16  C16       12.9610   -9.7310   22.5500 C.3   401  SN3401      0.1679
     17  N17       12.2090  -10.7550   23.2710 N.pl3 401  SN3401     -0.1885
     18  C18       12.6070  -12.0340   22.6700 C.3   401  SN3401      0.1679
     19  C19       13.3880  -11.6830   21.4220 C.3   401  SN3401      0.0438
     20  C20       11.3470  -10.5390   24.2380 C.cat 401  SN3401      0.4954
     21  N21       10.6640  -11.5920   24.8210 N.pl3 401  SN3401      0.1298
     22  N22       11.0860   -9.2630   24.6530 N.pl3 401  SN3401      0.1298
     23  O23       16.3050  -13.0560   19.5820 O.2   401  SN3401     -0.2716
     24  C24       17.3320  -13.9710   22.5800 C.2   401  SN3401      0.2470
     25  O25       16.5600  -13.1120   22.9460 O.2   401  SN3401     -0.2730
     26  C26       17.3660  -15.3270   23.2710 C.3   401  SN3401      0.1861
     27  C27       17.7450  -15.1150   24.7500 C.3   401  SN3401      0.1086
     28  C28       17.7410  -16.4080   25.5710 C.3   401  SN3401      0.0173
     29  C29       18.6580  -17.5010   24.9920 C.3   401  SN3401      0.0013
     30  C30       18.1580  -16.0490   26.9950 C.3   401  SN3401      0.0013
     31 CL31       19.3340  -14.2690   24.8190 Cl    401  SN3401     -0.1127
     32  N32       16.0430  -15.9480   23.2410 N.am  401  SN3401     -0.1944
     33  C33       15.7690  -17.0330   22.4770 C.2   401  SN3401      0.2716
     34  C34       14.3890  -17.6150   22.5220 C.3   401  SN3401      0.2247
     35  O35       13.4510  -16.6030   22.9250 O.3   401  SN3401     -0.3420
     36  C36       12.9280  -15.8390   21.8240 C.3   401  SN3401      0.1748
     37  C37       14.4110  -18.8270   23.4710 C.3   401  SN3401      0.2113
     38  O38       14.4860  -18.4670   24.8620 O.3   401  SN3401     -0.2380
     39  S39       15.0530  -19.5630   25.7960 S.3   401  SN3401     -0.0001
     40  O40       15.2210  -19.0100   27.0920 O.3   401  SN3401     -0.2682
     41  O41       13.9750  -20.6200   26.0320 O.2   401  SN3401     -0.3452
     42  O42       16.1130  -20.1720   25.0540 O.2   401  SN3401     -0.3452
     43  O43       16.6010  -17.5480   21.7500 O.2   401  SN3401     -0.2706
     44  O46       19.9940  -14.6320   17.3100 O.3   401  SN3401     -0.2204
@<TRIPOS>BOND
     1    44     1    1
     2     1     6    1
     3     1     2    1
     4     6     5    1
     5     6     7    1
     6     2     3    1
     7    13    12    1
     8    13    14    1
     9    23    11    2
    10    10     3    1
    11    10     9    1
    12     5     4    1
    13    11    12   am
    14    11     9    1
    15    14    15    1
    16     3     4    1
    17     9     8    1
    18     4     8    1
    19    15    19    1
    20    15    16    1
    21    19    18    1
    22     8    24   am
    23    43    33    2
    24    36    35    1
    25    33    34    1
    26    33    32   am
    27    34    35    1
    28    34    37    1
    29    16    17    1
    30    24    25    2
    31    24    26    1
    32    18    17    1
    33    32    26    1
    34    17    20    1
    35    26    27    1
    36    37    38    1
    37    20    22    2
    38    20    21    1
    39    27    31    1
    40    27    28    1
    41    38    39    1
    42    29    28    1
    43    42    39    2
    44    28    30    1
    45    39    41    2
    46    39    40    1
