@<TRIPOS>MOLECULE
2gdj_ANP_A_1.pdb
 31 33 0 0 0
SMALL
GASTEIGER

@<TRIPOS>ATOM
      1  PG        17.8430   46.6820   -9.8700 P.3   401  ANP401      0.4884
      2  O1G       19.2300   46.8940   -9.5840 O.3   401  ANP401     -0.1240
      3  O2G       17.1110   46.4130   -8.5780 O.3   401  ANP401     -0.1240
      4  O3G       17.2800   47.8510  -10.5150 O.2   401  ANP401     -0.2331
      5  PB        18.0200   43.9230  -10.4780 P.3   401  ANP401      0.4669
      6  O1B       17.3210   43.5730   -9.2040 O.3   401  ANP401     -0.1253
      7  O2B       19.4600   43.8190  -10.2580 O.2   401  ANP401     -0.2351
      8  N3B       17.6540   45.3890  -10.9060 N.3   401  ANP401     -0.0163
      9  PA        16.1420   42.1880  -11.6910 P.3   401  ANP401      0.2220
     10  O1A       16.1950   41.0010  -10.7120 O.3   401  ANP401     -0.4370
     11  O2A       15.0630   43.1150  -11.2690 O.2   401  ANP401     -0.5170
     12  O3A       17.5890   42.9350  -11.6760 O.3   401  ANP401     -0.2360
     13  O5'       15.8310   41.6010  -13.2360 O.3   401  ANP401     -0.3111
     14  C5'       15.6990   42.5020  -14.4830 C.3   401  ANP401      0.1813
     15  C4'       15.6930   41.7270  -15.5960 C.3   401  ANP401      0.1821
     16  O4'       14.8490   40.5550  -15.3630 O.3   401  ANP401     -0.3135
     17  C3'       14.9500   42.4140  -16.7950 C.3   401  ANP401      0.2184
     18  O3'       15.5560   43.5470  -17.3130 O.3   401  ANP401     -0.2174
     19  C2'       14.4150   41.2170  -17.6490 C.3   401  ANP401      0.2570
     20  O2'       15.4470   40.8600  -18.7470 O.3   401  ANP401     -0.2130
     21  C1'       14.3620   40.0700  -16.6430 C.3   401  ANP401      0.3186
     22  N9        13.0860   39.6390  -16.5330 N.pl3 401  ANP401     -0.1439
     23  C8        12.1680   39.9670  -15.5270 C.3   401  ANP401      0.3377
     24  N7        11.0460   39.3720  -15.7540 N.2   401  ANP401     -0.2095
     25  C5        11.1580   38.6430  -16.8840 C.2   401  ANP401      0.2526
     26  C6        10.2880   37.8250  -17.5860 C.2   401  ANP401      0.4393
     27  N6         9.0080   37.6360  -17.1400 N.pl3 401  ANP401      0.2180
     28  N1        10.7490   37.1900  -18.7720 N.2   401  ANP401      0.0021
     29  C2        12.0850   37.3890  -19.2360 C.3   401  ANP401      0.5254
     30  N3        12.9550   38.1890  -18.5680 N.2   401  ANP401     -0.0055
     31  C4        12.4400   38.8010  -17.3830 C.2   401  ANP401      0.3518
@<TRIPOS>BOND
     1    29    28    1
     2    29    30    1
     3    28    26    2
     4    20    19    1
     5    30    31    2
     6    19    17    1
     7    19    21    1
     8    26    27    1
     9    26    25    1
    10    31    25    1
    11    31    22    1
    12    18    17    1
    13    25    24    2
    14    17    15    1
    15    21    22    1
    16    21    16    1
    17    22    23    1
    18    24    23    1
    19    15    16    1
    20    15    14    1
    21    14    13    1
    22    13     9    1
    23     9    12    1
    24     9    11    2
    25     9    10    1
    26    12     5    1
    27     8     5    1
    28     8     1    1
    29     4     1    2
    30     5     7    2
    31     5     6    1
    32     1     2    1
    33     1     3    1
