@<TRIPOS>MOLECULE
2gdm_HEM_A_1.pdb
 43 50 0 0 0
SMALL
GASTEIGER

@<TRIPOS>ATOM
      1 FE         37.7430  -29.4750   28.0500 Fe    154  HEM154      0.0000
      2  CHA       36.1760  -27.6510   25.7590 C.2   154  HEM154      0.0000
      3  CHB       39.4540  -26.8040   29.2950 C.2   154  HEM154      0.0000
      4  CHC       38.7680  -31.4250   30.7020 C.2   154  HEM154      0.0000
      5  CHD       36.5580  -32.4320   26.4730 C.2   154  HEM154      0.0000
      6  NA        37.7470  -27.6610   27.6510 N.2   154  HEM154      0.0000
      7  C1A       37.0380  -27.0130   26.6420 C.2   154  HEM154      0.0000
      8  C2A       37.4370  -25.6380   26.6280 C.2   154  HEM154      0.0000
      9  C3A       38.3290  -25.4250   27.5780 C.2   154  HEM154      0.0000
     10  C4A       38.5030  -26.6990   28.2810 C.2   154  HEM154      0.0000
     11  CMA       39.1280  -24.1710   27.9780 C.3   154  HEM154      0.0000
     12  CAA       36.9590  -24.5470   25.6300 C.3   154  HEM154      0.0000
     13  CBA       35.8720  -23.6270   26.1840 C.3   154  HEM154      0.0000
     14  CGA       35.4730  -22.6380   25.0890 C.2   154  HEM154      0.0000
     15  O1A       34.2380  -22.6890   24.7850 O.co2 154  HEM154      0.0000
     16  O2A       36.4780  -22.0330   24.5800 O.co2 154  HEM154      0.0000
     17  NB        38.9490  -29.2300   29.6480 N.ar  154  HEM154      0.0000
     18  C1B       39.4790  -28.0030   30.0090 C.ar  154  HEM154      0.0000
     19  C2B       40.2250  -28.1780   31.2540 C.ar  154  HEM154      0.0000
     20  C3B       39.9900  -29.4230   31.7000 C.ar  154  HEM154      0.0000
     21  C4B       39.1890  -30.0830   30.6720 C.ar  154  HEM154      0.0000
     22  CMB       41.0500  -27.0180   31.8550 C.3   154  HEM154      0.0000
     23  CAB       40.6030  -30.1350   32.9210 C.3   154  HEM154      0.0000
     24  CBB       41.1350  -29.4660   34.0100 C.3   154  HEM154      0.0000
     25  NC        37.7290  -31.5360   28.5130 N.2   154  HEM154      0.0000
     26  C1C       38.1720  -32.1470   29.6700 C.2   154  HEM154      0.0000
     27  C2C       37.9830  -33.5760   29.6140 C.2   154  HEM154      0.0000
     28  C3C       37.3820  -33.8410   28.4220 C.2   154  HEM154      0.0000
     29  C4C       37.1800  -32.5710   27.7180 C.2   154  HEM154      0.0000
     30  CMC       38.2460  -34.5350   30.7410 C.3   154  HEM154      0.0000
     31  CAC       36.9000  -35.1800   27.7940 C.2   154  HEM154      0.0000
     32  CBC       37.7820  -36.1150   27.4640 C.2   154  HEM154      0.0000
     33  ND        36.5800  -29.9850   26.3930 N.ar  154  HEM154      0.0000
     34  C1D       36.1480  -31.2210   25.9050 C.ar  154  HEM154      0.0000
     35  C2D       35.3770  -31.0080   24.6840 C.ar  154  HEM154      0.0000
     36  C3D       35.3070  -29.6840   24.4930 C.ar  154  HEM154      0.0000
     37  C4D       35.9950  -29.0160   25.5850 C.ar  154  HEM154      0.0000
     38  CMD       34.7470  -32.1470   23.8530 C.3   154  HEM154      0.0000
     39  CAD       34.5400  -28.8820   23.3730 C.3   154  HEM154      0.0000
     40  CBD       35.4330  -28.5200   22.1930 C.3   154  HEM154      0.0000
     41  CGD       34.7440  -28.6390   20.8450 C.2   154  HEM154      0.0000
     42  O1D       33.5500  -28.2240   20.8400 O.co2 154  HEM154      0.0000
     43  O2D       35.4200  -29.1600   19.9080 O.co2 154  HEM154      0.0000
@<TRIPOS>BOND
     1    43    41   ar
     2    42    41   ar
     3    41    40    1
     4    40    39    1
     5    39    36    1
     6    38    35    1
     7    36    35   ar
     8    36    37   ar
     9    16    14   ar
    10    35    34   ar
    11    15    14   ar
    12    14    13    1
    13    37     2    2
    14    37    33   ar
    15    12    13    1
    16    12     8    1
    17     2     7    1
    18    34    33   ar
    19    34     5    2
    20    33     1    1
    21     5    29    1
    22     8     7    1
    23     8     9    2
    24     7     6    2
    25    32    31    2
    26     9    11    1
    27     9    10    1
    28     6     1    1
    29     6    10    1
    30    29    28    1
    31    29    25    2
    32    31    28    1
    33     1    25    1
    34     1    17    1
    35    10     3    2
    36    28    27    2
    37    25    26    1
    38     3    18    1
    39    27    26    1
    40    27    30    1
    41    17    18   ar
    42    17    21   ar
    43    26     4    2
    44    18    19   ar
    45    21     4    1
    46    21    20   ar
    47    19    20   ar
    48    19    22    1
    49    20    23    1
    50    23    24    1
