@<TRIPOS>MOLECULE
2gdo_12C_A_1.pdb
 30 35 0 0 0
SMALL
GASTEIGER

@<TRIPOS>ATOM
      1  C1         4.9190   -1.4740   46.0170 C.3   298  12C298      0.1148
      2  C2         5.7240   -2.3230   45.2280 C.2   298  12C298     -0.0022
      3  C3         7.0500   -2.0020   44.9310 C.2   298  12C298      0.0543
      4 CL          7.9820   -3.0800   43.9710 Cl    298  12C298     -0.0826
      5  C4         7.6190   -0.8190   45.4080 C.2   298  12C298      0.0134
      6  C5         6.8460    0.0470   46.2000 C.2   298  12C298      0.0301
      7  C6         5.5110   -0.2840   46.4980 C.2   298  12C298      0.1311
      8  N1         4.7610    0.5870   47.3010 N.2   298  12C298     -0.3360
      9  C7         3.4510    0.3510   47.6640 C.1   298  12C298      0.2170
     10  O1         2.8410    1.1550   48.3750 O.2   298  12C298     -0.2085
     11  C8         2.8010   -0.9050   47.1480 C.2   298  12C298      0.1910
     12  C9         1.4280   -1.2210   47.4900 C.1   298  12C298      0.1514
     13  C10        3.5020   -1.7810   46.3620 C.2   298  12C298      0.0768
     14  N2         2.8960   -2.9400   45.8680 N.pl3 298  12C298     -0.2400
     15  C11        2.8120   -3.5020   44.5280 C.3   298  12C298      0.1081
     16  N3         0.6910   -2.2720   47.1330 N.2   298  12C298     -0.3366
     17  C12       -0.5410   -2.0940   47.7090 C.ar  298  12C298      0.1741
     18  C13       -0.5810   -0.9050   48.4350 C.ar  298  12C298      0.1741
     19  N4         0.6740   -0.3690   48.2810 N.2   298  12C298     -0.3366
     20  C14       -1.6910   -2.9130   47.6500 C.ar  298  12C298      0.0357
     21  C15       -2.8470   -2.5020   48.3340 C.ar  298  12C298      0.0028
     22  C16       -2.8590   -1.3000   49.0600 C.ar  298  12C298      0.0028
     23  C17       -1.7210   -0.4710   49.1290 C.ar  298  12C298      0.0357
     24  C18        1.4170   -3.1860   43.9150 C.3   298  12C298      0.0939
     25  N5         0.7180   -4.4950   43.5420 N.3   298  12C298     -0.2712
     26  C19        1.5400   -5.2440   42.5060 C.3   298  12C298      0.0722
     27  C20        2.9130   -5.5700   43.1130 C.3   298  12C298      0.0191
     28  C21        0.5150   -5.3690   44.7760 C.3   298  12C298      0.0722
     29  C22        1.8830   -5.6980   45.3820 C.3   298  12C298      0.0191
     30  C23        3.0100   -5.0400   44.5640 C.3   298  12C298      0.0241
@<TRIPOS>BOND
     1    26    27    1
     2    26    25    1
     3    27    30    1
     4    25    24    1
     5    25    28    1
     6    24    15    1
     7     4     3    1
     8    15    30    1
     9    15    14    1
    10    30    29    1
    11    28    29    1
    12     3     2    2
    13     3     5    1
    14     2     1    1
    15     5     6    2
    16    14    13    1
    17     1    13    1
    18     1     7    1
    19     6     7    1
    20    13    11    2
    21     7     8    2
    22    16    12    2
    23    16    17    2
    24    11    12    1
    25    11     9    1
    26     8     9    2
    27    12    19    2
    28    20    17   ar
    29    20    21   ar
    30     9    10    2
    31    17    18   ar
    32    19    18    2
    33    21    22   ar
    34    18    23   ar
    35    22    23   ar
