@<TRIPOS>MOLECULE
2gdr_GSH_A_1.pdb
 20 19 0 0 0
SMALL
GASTEIGER

@<TRIPOS>ATOM
      1  N1       -17.9280  -18.0940    6.1150 N.3   224  GSH224     -0.1208
      2  CA1      -17.7310  -18.6560    7.4590 C.3   224  GSH224      0.1948
      3  C1       -19.0500  -18.6550    8.2040 C.2   224  GSH224      0.3819
      4  O11      -19.9630  -17.6990    7.9570 O.co2 224  GSH224     -0.2441
      5  O12      -19.2800  -19.5200    9.0310 O.co2 224  GSH224     -0.2441
      6  CB1      -16.6940  -17.8160    8.2180 C.3   224  GSH224      0.0402
      7  CG1      -16.2290  -18.5440    9.4940 C.3   224  GSH224      0.0889
      8  CD1      -15.1310  -17.7780   10.2290 C.2   224  GSH224      0.2418
      9  OE1      -14.6840  -16.7270    9.7900 O.2   224  GSH224     -0.2733
     10  N2       -14.6420  -18.3010   11.3790 N.am  224  GSH224     -0.1968
     11  CA2      -13.5630  -17.6600   12.1500 C.3   224  GSH224      0.1843
     12  C2       -12.3730  -18.5900   12.1290 C.2   224  GSH224      0.2627
     13  O2       -12.3880  -19.6050   12.8020 O.2   224  GSH224     -0.2714
     14  CB2      -14.0380  -17.4160   13.5920 C.3   224  GSH224      0.0997
     15  SG2      -15.1140  -15.9580   13.6240 S.3   224  GSH224     -0.0797
     16  N3       -11.3250  -18.3190   11.3150 N.am  224  GSH224     -0.1917
     17  CA3      -10.1810  -19.2360   11.2060 C.3   224  GSH224      0.2285
     18  C3        -9.0150  -18.6910   11.9880 C.2   224  GSH224      0.3865
     19  O31       -7.9900  -19.3330   12.0620 O.co2 224  GSH224     -0.2437
     20  O32       -9.1150  -17.4930   12.6040 O.co2 224  GSH224     -0.2437
@<TRIPOS>BOND
     1     1     2    1
     2     2     3    1
     3     2     6    1
     4     4     3   ar
     5     3     5   ar
     6     6     7    1
     7     7     8    1
     8     9     8    2
     9     8    10   am
    10    17    16    1
    11    17    18    1
    12    16    12   am
    13    10    11    1
    14    18    19   ar
    15    18    20   ar
    16    12    11    1
    17    12    13    2
    18    11    14    1
    19    14    15    1
