@<TRIPOS>MOLECULE
2gdu_SUC_A_1.pdb
 23 24 0 0 0
SMALL
GASTEIGER

@<TRIPOS>ATOM
      1  C1        42.2400   70.7440    2.3600 C.3   2064  SUC2064     0.2713
      2  C2        42.3560   72.3430    2.5680 C.3   2064  SUC2064     0.2406
      3  C3        41.9090   73.0690    1.1900 C.3   2064  SUC2064     0.2198
      4  C4        42.9420   72.6400    0.0920 C.3   2064  SUC2064     0.2144
      5  C5        43.0360   71.0880   -0.1050 C.3   2064  SUC2064     0.1835
      6  C6        44.2690   70.6480   -0.9440 C.3   2064  SUC2064     0.2142
      7  O1        40.8560   70.3610    2.1300 O.3   2064  SUC2064    -0.3033
      8  O2        41.5780   72.6610    3.6650 O.3   2064  SUC2064    -0.2149
      9  O3        41.9730   74.4630    1.3640 O.3   2064  SUC2064    -0.2174
     10  O4        42.5610   73.2080   -1.1790 O.3   2064  SUC2064    -0.2176
     11  O5        43.1790   70.3990    1.2040 O.3   2064  SUC2064    -0.3256
     12  O6        45.5070   71.0240   -0.1270 O.3   2064  SUC2064    -0.2176
     13  C1'       41.0370   67.8210    1.7610 C.3   2064  SUC2064     0.2406
     14  C2'       40.2950   69.1770    1.4550 C.3   2064  SUC2064     0.2516
     15  C3'       38.6840   69.2410    1.8030 C.3   2064  SUC2064     0.2381
     16  C4'       38.0260   69.1270    0.4060 C.3   2064  SUC2064     0.2167
     17  C5'       39.0480   69.8460   -0.5320 C.3   2064  SUC2064     0.1835
     18  C6'       38.9350   71.3740   -0.7370 C.3   2064  SUC2064     0.2142
     19  O1'       41.0960   67.6050    3.1660 O.3   2064  SUC2064    -0.2149
     20  O2'       40.3470   69.4790    0.0290 O.3   2064  SUC2064    -0.3272
     21  O3'       38.2810   70.3790    2.4520 O.3   2064  SUC2064    -0.2150
     22  O4'       37.8770   67.7010    0.0830 O.3   2064  SUC2064    -0.2175
     23  O6'       37.6890   71.7910   -1.2610 O.3   2064  SUC2064    -0.2176
@<TRIPOS>BOND
     1    23    18    1
     2    10     4    1
     3     6    12    1
     4     6     5    1
     5    18    17    1
     6    17    20    1
     7    17    16    1
     8     5     4    1
     9     5    11    1
    10    20    14    1
    11    22    16    1
    12     4     3    1
    13    16    15    1
    14     3     9    1
    15     3     2    1
    16    11     1    1
    17    14    13    1
    18    14    15    1
    19    14     7    1
    20    13    19    1
    21    15    21    1
    22     7     1    1
    23     1     2    1
    24     2     8    1
