@<TRIPOS>MOLECULE
2gdv_BGC_A_1.pdb
 11 11 0 0 0
SMALL
GASTEIGER

@<TRIPOS>ATOM
      1  C2        27.3660   59.5400  -39.0610 C.3   700  BGC700      0.2141
      2  C3        28.0630   59.2190  -37.6970 C.3   700  BGC700      0.2173
      3  C4        27.1840   59.6030  -36.5100 C.3   700  BGC700      0.2142
      4  C5        25.8410   58.8500  -36.5530 C.3   700  BGC700      0.1810
      5  C6        24.7290   59.6190  -35.8540 C.3   700  BGC700      0.2141
      6  C1        25.8100   59.2700  -39.0700 C.3   700  BGC700      0.1777
      7  O2        28.0050   58.7610  -40.0500 O.3   700  BGC700     -0.2176
      8  O3        29.3030   59.9310  -37.5970 O.3   700  BGC700     -0.2175
      9  O4        27.8580   59.2930  -35.3030 O.3   700  BGC700     -0.2176
     10  O5        25.3640   58.4730  -37.9190 O.3   700  BGC700     -0.3481
     11  O6        24.6360   60.9760  -36.2590 O.3   700  BGC700     -0.2176
@<TRIPOS>BOND
     1     7     1    1
     2     6     1    1
     3     6    10    1
     4     1     2    1
     5    10     4    1
     6     2     8    1
     7     2     3    1
     8     4     3    1
     9     4     5    1
    10     3     9    1
    11    11     5    1
