@<TRIPOS>MOLECULE
2gdz_NAD_A_1.pdb
 44 48 0 0 0
SMALL
GASTEIGER

@<TRIPOS>ATOM
      1  PA        31.8000   17.2480   80.9670 P.3   300  NAD300      0.2189
      2  O1A       32.9820   17.3770   81.8820 O.3   300  NAD300     -0.4371
      3  O2A       32.0390   16.3240   79.8340 O.2   300  NAD300     -0.5170
      4  O5B       31.2120   18.6250   80.4110 O.3   300  NAD300     -0.3112
      5  C5B       31.0550   19.7110   81.2970 C.3   300  NAD300      0.1813
      6  C4B       31.2960   21.0050   80.5060 C.3   300  NAD300      0.1821
      7  O4B       31.0650   22.0800   81.4250 O.3   300  NAD300     -0.3135
      8  C3B       32.7380   21.1370   79.9680 C.3   300  NAD300      0.2184
      9  O3B       32.7190   21.5910   78.6250 O.3   300  NAD300     -0.2174
     10  C2B       33.3660   22.1620   80.9130 C.3   300  NAD300      0.2570
     11  O2B       34.4220   22.9540   80.3710 O.3   300  NAD300     -0.2130
     12  C1B       32.1300   22.9990   81.3400 C.3   300  NAD300      0.3186
     13  N9A       32.3420   23.7080   82.6180 N.pl3 300  NAD300     -0.1439
     14  C8A       32.7100   23.1600   83.8300 C.3   300  NAD300      0.3377
     15  N7A       32.8260   24.1670   84.7270 N.2   300  NAD300     -0.2095
     16  C5A       32.4850   25.3240   84.0990 C.2   300  NAD300      0.2526
     17  C6A       32.4270   26.6520   84.5040 C.2   300  NAD300      0.4393
     18  N6A       32.7350   26.9780   85.7620 N.pl3 300  NAD300      0.2180
     19  N1A       32.0770   27.6200   83.5900 N.2   300  NAD300      0.0021
     20  C2A       31.7740   27.3360   82.2640 C.3   300  NAD300      0.5254
     21  N3A       31.8510   26.0320   81.8510 N.2   300  NAD300     -0.0055
     22  C4A       32.1840   25.0400   82.7640 C.2   300  NAD300      0.3518
     23  O3        30.6580   16.6340   81.9100 O.3   300  NAD300     -0.2703
     24  PN        29.1460   16.2940   81.5530 P.3   300  NAD300      0.2189
     25  O1N       28.7700   16.5510   80.1520 O.2   300  NAD300     -0.5170
     26  O2N       28.9420   14.9120   82.0160 O.3   300  NAD300     -0.4371
     27  O5D       28.4160   17.3330   82.5620 O.3   300  NAD300     -0.3112
     28  C5D       27.3350   18.2110   82.1960 C.3   300  NAD300      0.1813
     29  C4D       26.2630   18.1090   83.3260 C.3   300  NAD300      0.1799
     30  O4D       25.6690   16.7660   83.4130 O.3   300  NAD300     -0.3327
     31  C3D       26.8860   18.4080   84.7060 C.3   300  NAD300      0.2158
     32  O3D       26.0700   19.3060   85.4390 O.3   300  NAD300     -0.2175
     33  C2D       26.8940   17.0250   85.3590 C.3   300  NAD300      0.2309
     34  O2D       26.9150   17.1110   86.7820 O.3   300  NAD300     -0.2158
     35  C1D       25.6040   16.4370   84.7880 C.3   300  NAD300      0.2263
     36  N1N       25.4880   14.9580   84.9350 N.pl3 300  NAD300     -0.2787
     37  C2N       26.4220   14.1390   84.3380 C.3   300  NAD300      0.1244
     38  C3N       26.3100   12.7540   84.4700 C.2   300  NAD300      0.0544
     39  C7N       27.3680   11.8790   83.8430 C.2   300  NAD300      0.2818
     40  O7N       27.3770   10.5790   84.2130 O.2   300  NAD300     -0.2670
     41  N7N       28.2360   12.3510   82.9380 N.am  300  NAD300     -0.0839
     42  C4N       25.2190   12.1840   85.1320 C.2   300  NAD300      0.0033
     43  C5N       24.2610   13.0530   85.6980 C.2   300  NAD300      0.0157
     44  C6N       24.3880   14.4400   85.5650 C.2   300  NAD300      0.0633
@<TRIPOS>BOND
     1     9     8    1
     2     3     1    2
     3     8     6    1
     4     8    10    1
     5    25    24    2
     6    11    10    1
     7     4     1    1
     8     4     5    1
     9     6     5    1
    10     6     7    1
    11    10    12    1
    12     1     2    1
    13     1    23    1
    14    12     7    1
    15    12    13    1
    16    24    23    1
    17    24    26    1
    18    24    27    1
    19    21    20    1
    20    21    22    2
    21    28    27    1
    22    28    29    1
    23    20    19    1
    24    13    22    1
    25    13    14    1
    26    22    16    1
    27    41    39   am
    28    29    30    1
    29    29    31    1
    30    30    35    1
    31    19    17    2
    32    14    15    1
    33    39    40    2
    34    39    38    1
    35    16    17    1
    36    16    15    2
    37    37    38    1
    38    37    36    1
    39    38    42    2
    40    17    18    1
    41    31    33    1
    42    31    32    1
    43    35    36    1
    44    35    33    1
    45    36    44    1
    46    42    43    1
    47    33    34    1
    48    44    43    2
