@<TRIPOS>MOLECULE
2gej_GDD_A_1.pdb
 39 42 0 0 0
SMALL
GASTEIGER

@<TRIPOS>ATOM
      1  N2         3.8970   50.7450   29.0900 N.pl3 2567  GDD2567    -0.0226
      2  C2         2.7850   50.2180   29.5620 C.1   2567  GDD2567     0.2531
      3  N1         2.1080   50.9870   30.4790 N.2   2567  GDD2567    -0.2485
      4  N3         2.3400   49.0060   29.1880 N.2   2567  GDD2567    -0.3074
      5  C4         1.1770   48.5670   29.6750 C.2   2567  GDD2567     0.2300
      6  C5         0.4210   49.3130   30.5890 C.2   2567  GDD2567     0.2182
      7  C6         0.8950   50.5660   31.0030 C.1   2567  GDD2567     0.2372
      8  O6         0.2980   51.3090   31.8090 O.2   2567  GDD2567    -0.2069
      9  N7        -0.6790   48.5960   30.9040 N.2   2567  GDD2567    -0.2322
     10  C8        -0.6290   47.4460   30.2110 C.3   2567  GDD2567     0.2246
     11  N9         0.5100   47.4330   29.4740 N.pl3 2567  GDD2567    -0.2354
     12  C1'        0.9030   46.3890   28.5600 C.3   2567  GDD2567     0.2293
     13  C2'        1.1970   45.1680   29.3470 C.3   2567  GDD2567     0.2310
     14  O2'        2.5580   45.2820   29.7140 O.3   2567  GDD2567    -0.2158
     15  C3'        0.9410   44.1010   28.2610 C.3   2567  GDD2567     0.2158
     16  O3'        2.0160   43.9440   27.3050 O.3   2567  GDD2567    -0.2175
     17  C4'       -0.2680   44.7010   27.4790 C.3   2567  GDD2567     0.1799
     18  O4'       -0.3730   46.0720   27.9330 O.3   2567  GDD2567    -0.3326
     19  C5'       -1.5400   43.9270   27.8040 C.3   2567  GDD2567     0.1813
     20  O5'       -1.6910   43.7040   29.1710 O.3   2567  GDD2567    -0.3112
     21  PA        -3.0770   44.0560   29.8520 P.3   2567  GDD2567     0.2189
     22  O1A       -3.1420   43.4550   31.2510 O.3   2567  GDD2567    -0.4371
     23  O2A       -3.3660   45.5330   29.8420 O.2   2567  GDD2567    -0.5170
     24  O3A       -4.0670   43.0490   29.0530 O.3   2567  GDD2567    -0.2703
     25  PB        -5.3360   43.5260   28.2250 P.3   2567  GDD2567     0.2208
     26  O2B       -6.3190   44.1200   29.4230 O.3   2567  GDD2567    -0.4371
     27  O3B       -4.9920   44.5010   27.1840 O.2   2567  GDD2567    -0.5170
     28  O1B       -5.9630   42.1740   27.6880 O.3   2567  GDD2567    -0.2857
     29  C11       -5.3770   41.4960   26.5960 C.3   2567  GDD2567     0.2742
     30  O51       -4.0130   41.1410   27.0330 O.3   2567  GDD2567    -0.3254
     31  C51       -3.9440   40.0680   28.0260 C.3   2567  GDD2567     0.1835
     32  C61       -2.4510   39.9310   28.0760 C.3   2567  GDD2567     0.2142
     33  O6A       -2.1020   38.7740   27.3930 O.3   2567  GDD2567    -0.2176
     34  C21       -6.3110   40.3110   26.2860 C.3   2567  GDD2567     0.2409
     35  O21       -5.8500   39.6130   25.1620 O.3   2567  GDD2567    -0.2149
     36  C31       -6.2710   39.2660   27.3780 C.3   2567  GDD2567     0.2198
     37  O31       -7.1340   38.1450   27.0260 O.3   2567  GDD2567    -0.2174
     38  C41       -4.7770   38.8280   27.6260 C.3   2567  GDD2567     0.2144
     39  O41       -4.7000   37.8280   28.6650 O.3   2567  GDD2567    -0.2176
@<TRIPOS>BOND
     1    35    34    1
     2    34    29    1
     3    34    36    1
     4    29    30    1
     5    29    28    1
     6    37    36    1
     7    30    31    1
     8    27    25    2
     9    16    15    1
    10    36    38    1
    11    33    32    1
    12    17    19    1
    13    17    18    1
    14    17    15    1
    15    38    31    1
    16    38    39    1
    17    28    25    1
    18    19    20    1
    19    18    12    1
    20    31    32    1
    21    25    24    1
    22    25    26    1
    23    15    13    1
    24    12    13    1
    25    12    11    1
    26    24    21    1
    27     1     2    1
    28    20    21    1
    29     4     2    2
    30     4     5    2
    31    13    14    1
    32    11     5    1
    33    11    10    1
    34     2     3    2
    35     5     6    1
    36    23    21    2
    37    21    22    1
    38    10     9    1
    39     3     7    2
    40     6     9    2
    41     6     7    1
    42     7     8    2
