@<TRIPOS>MOLECULE
2gek_GDP_A_1.pdb
 28 30 0 0 0
SMALL
GASTEIGER

@<TRIPOS>ATOM
      1  PB        -5.1640   43.9720   28.8040 P.3   2567  GDP2567     0.5373
      2  O1B       -5.1780   45.4160   29.2620 O.3   2567  GDP2567    -0.1143
      3  O2B       -6.3980   43.5090   29.5760 O.3   2567  GDP2567    -0.1143
      4  O3B       -5.1520   43.8490   27.2730 O.2   2567  GDP2567    -0.2221
      5  O3A       -3.9550   42.9370   29.2700 O.3   2567  GDP2567    -0.2261
      6  PA        -2.6910   43.5720   30.0080 P.3   2567  GDP2567     0.2231
      7  O1A       -2.8890   45.0290   29.7160 O.2   2567  GDP2567    -0.5169
      8  O2A       -2.6490   43.5600   31.5330 O.3   2567  GDP2567    -0.4370
      9  O5'       -1.3680   43.1960   29.1710 O.3   2567  GDP2567    -0.3111
     10  C5'       -1.1930   43.9140   27.9680 C.3   2567  GDP2567     0.1813
     11  C4'        0.2110   44.3660   27.5740 C.3   2567  GDP2567     0.1799
     12  O4'        0.3200   45.7700   27.7630 O.3   2567  GDP2567    -0.3326
     13  C3'        1.3850   43.7680   28.2910 C.3   2567  GDP2567     0.2158
     14  O3'        2.3590   43.7700   27.2680 O.3   2567  GDP2567    -0.2175
     15  C2'        1.6970   44.7990   29.3480 C.3   2567  GDP2567     0.2310
     16  O2'        3.0730   44.8520   29.7150 O.3   2567  GDP2567    -0.2158
     17  C1'        1.3650   46.1010   28.6530 C.3   2567  GDP2567     0.2293
     18  N9         0.8580   47.1010   29.6280 N.pl3 2567  GDP2567    -0.2354
     19  C8        -0.2620   47.0360   30.4070 C.3   2567  GDP2567     0.2246
     20  N7        -0.3370   48.1810   31.1140 N.2   2567  GDP2567    -0.2322
     21  C5         0.7220   48.9530   30.8000 C.2   2567  GDP2567     0.2182
     22  C6         1.2550   50.2800   31.1840 C.1   2567  GDP2567     0.2372
     23  O6         0.6030   50.9290   32.0640 O.2   2567  GDP2567    -0.2069
     24  N1         2.4160   50.7240   30.5910 N.2   2567  GDP2567    -0.2485
     25  C2         3.0610   49.9970   29.6700 C.1   2567  GDP2567     0.2531
     26  N2         4.2030   50.4300   29.0810 N.pl3 2567  GDP2567    -0.0226
     27  N3         2.6170   48.7720   29.3060 N.2   2567  GDP2567    -0.3074
     28  C4         1.4970   48.2370   29.8210 C.2   2567  GDP2567     0.2300
@<TRIPOS>BOND
     1    14    13    1
     2     4     1    2
     3    11    12    1
     4    11    10    1
     5    11    13    1
     6    12    17    1
     7    10     9    1
     8    13    15    1
     9    17    15    1
    10    17    18    1
    11     1     2    1
    12     1     5    1
    13     1     3    1
    14    26    25    1
    15     9     6    1
    16     5     6    1
    17    27    25    2
    18    27    28    2
    19    15    16    1
    20    18    28    1
    21    18    19    1
    22    25    24    2
    23     7     6    2
    24    28    21    1
    25     6     8    1
    26    19    20    1
    27    24    22    2
    28    21    20    2
    29    21    22    1
    30    22    23    2
