@<TRIPOS>MOLECULE
2gf0_GDP_A_1.pdb
 28 30 0 0 0
SMALL
GASTEIGER

@<TRIPOS>ATOM
      1  PB        20.6580   26.4460   -5.8220 P.3   801  GDP801      0.5373
      2  O1B       20.4510   26.0180   -4.3700 O.3   801  GDP801     -0.1143
      3  O2B       19.6350   27.4920   -6.2270 O.3   801  GDP801     -0.1143
      4  O3B       20.8020   25.3260   -6.8230 O.2   801  GDP801     -0.2221
      5  O3A       22.0520   27.2830   -5.6580 O.3   801  GDP801     -0.2261
      6  PA        23.1730   27.5270   -6.7790 P.3   801  GDP801      0.2231
      7  O1A       22.5520   27.8810   -8.1200 O.2   801  GDP801     -0.5169
      8  O2A       24.0870   26.3390   -6.8370 O.3   801  GDP801     -0.4370
      9  O5'       24.0280   28.7320   -6.1660 O.3   801  GDP801     -0.3111
     10  C5'       23.3510   29.9540   -5.9390 C.3   801  GDP801      0.1813
     11  C4'       24.3590   31.0760   -5.8340 C.3   801  GDP801      0.1799
     12  O4'       25.1600   30.8660   -4.6660 O.3   801  GDP801     -0.3326
     13  C3'       25.2810   31.1480   -7.0350 C.3   801  GDP801      0.2158
     14  O3'       25.6490   32.5120   -7.2260 O.3   801  GDP801     -0.2175
     15  C2'       26.4880   30.3890   -6.5770 C.3   801  GDP801      0.2310
     16  O2'       27.6580   30.8220   -7.2600 O.3   801  GDP801     -0.2158
     17  C1'       26.5010   30.7560   -5.0900 C.3   801  GDP801      0.2293
     18  N9        27.1720   29.7270   -4.3000 N.pl3 801  GDP801     -0.2354
     19  C8        26.9680   28.3980   -4.4020 C.3   801  GDP801      0.2246
     20  N7        27.7520   27.7310   -3.5400 N.2   801  GDP801     -0.2322
     21  C5        28.4910   28.6670   -2.8820 C.2   801  GDP801      0.2182
     22  C6        29.5100   28.6650   -1.8100 C.1   801  GDP801      0.2372
     23  O6        29.9270   27.6210   -1.2800 O.2   801  GDP801     -0.2069
     24  N1        29.9960   29.8460   -1.4200 N.2   801  GDP801     -0.2485
     25  C2        29.5930   31.0240   -1.9310 C.1   801  GDP801      0.2531
     26  N2        30.1650   32.1490   -1.4360 N.pl3 801  GDP801     -0.0226
     27  N3        28.6570   31.1300   -2.8960 N.2   801  GDP801     -0.3074
     28  C4        28.0910   29.9830   -3.3910 C.2   801  GDP801      0.2300
@<TRIPOS>BOND
     1     7     6    2
     2    16    15    1
     3    14    13    1
     4    13    15    1
     5    13    11    1
     6     8     6    1
     7     4     1    2
     8     6     9    1
     9     6     5    1
    10    15    17    1
    11     3     1    1
    12     9    10    1
    13    10    11    1
    14    11    12    1
    15     1     5    1
    16     1     2    1
    17    17    12    1
    18    17    18    1
    19    19    18    1
    20    19    20    1
    21    18    28    1
    22    20    21    2
    23    28    27    2
    24    28    21    1
    25    27    25    2
    26    21    22    1
    27    25    26    1
    28    25    24    2
    29    22    24    2
    30    22    23    2
