@<TRIPOS>MOLECULE
2gf6_COA_A_1.pdb
 48 50 0 0 0
SMALL
GASTEIGER

@<TRIPOS>ATOM
      1  N1A       -6.7210   14.9520   25.6060 N.2   500  COA500      0.0021
      2  C2A       -7.6030   13.9740   25.1620 C.3   500  COA500      0.5254
      3  N3A       -7.2450   12.6390   25.2290 N.2   500  COA500     -0.0055
      4  C4A       -6.0280   12.3190   25.7290 C.2   500  COA500      0.3518
      5  C5A       -5.1410   13.2930   26.1740 C.2   500  COA500      0.2526
      6  C6A       -5.4890   14.6210   26.1190 C.2   500  COA500      0.4393
      7  N6A       -4.5430   15.5410   26.3420 N.pl3 500  COA500      0.2180
      8  N7A       -4.0270   12.6750   26.6230 N.2   500  COA500     -0.2095
      9  C8A       -4.1920   11.3330   26.4890 C.3   500  COA500      0.3377
     10  N9A       -5.4200   11.1170   25.9200 N.pl3 500  COA500     -0.1439
     11  C1B       -5.9970    9.8670   25.4290 C.3   500  COA500      0.3185
     12  C2B       -5.1570    9.1280   24.4220 C.3   500  COA500      0.2543
     13  O2B       -5.3430    9.6070   23.1210 O.3   500  COA500     -0.2131
     14  C3B       -5.7190    7.7390   24.5460 C.3   500  COA500      0.1928
     15  O3B       -6.8650    7.6820   23.7050 O.3   500  COA500     -0.2673
     16  P3B       -7.4780    6.3210   23.0850 P.3   500  COA500      0.5327
     17  O7A       -8.7790    6.0380   23.8180 O.3   500  COA500     -0.1145
     18  O8A       -6.5580    5.1250   23.2150 O.3   500  COA500     -0.1145
     19  O9A       -7.8060    6.6030   21.6420 O.2   500  COA500     -0.2224
     20  C4B       -6.1210    7.6350   26.0130 C.3   500  COA500      0.1795
     21  O4B       -6.1460    8.9670   26.4920 O.3   500  COA500     -0.3136
     22  C5B       -5.1470    6.8460   26.8510 C.3   500  COA500      0.1812
     23  O5B       -3.9130    7.4980   26.7950 O.3   500  COA500     -0.3112
     24  P1A       -2.5370    6.7140   26.5440 P.3   500  COA500      0.2189
     25  O1A       -1.5390    7.5400   25.7960 O.2   500  COA500     -0.5170
     26  O2A       -2.7780    5.3800   25.9120 O.3   500  COA500     -0.4371
     27  O3A       -1.9920    6.6320   28.0510 O.3   500  COA500     -0.2703
     28  P2A       -1.7100    5.3630   28.9780 P.3   500  COA500      0.2188
     29  O4A       -0.4390    4.6200   28.6980 O.2   500  COA500     -0.5170
     30  O5A       -2.8600    4.4070   29.1410 O.3   500  COA500     -0.4371
     31  O6A       -1.5000    6.1510   30.3430 O.3   500  COA500     -0.3138
     32  CBP       -1.0020    7.9220   31.6940 C.3   500  COA500      0.0645
     33  CCP       -1.8540    7.5090   30.5120 C.3   500  COA500      0.1519
     34  CDP        0.3610    7.2310   31.5460 C.3   500  COA500      0.0056
     35  CEP       -1.7200    7.4390   32.9460 C.3   500  COA500      0.0056
     36  CAP       -0.7840    9.4240   31.6880 C.3   500  COA500      0.2312
     37  OAP       -0.0800    9.8420   30.5370 O.3   500  COA500     -0.2131
     38  C9P       -0.0010    9.9130   32.8590 C.2   500  COA500      0.2719
     39  O9P        0.4690    9.0870   33.8980 O.2   500  COA500     -0.2706
     40  N8P        0.2070   11.2000   32.8400 N.am  500  COA500     -0.2028
     41  C7P        0.7230   11.8180   34.0350 C.3   500  COA500      0.1248
     42  C6P       -0.3700   12.6790   34.6020 C.3   500  COA500      0.1102
     43  C5P        0.1420   13.5020   35.7400 C.2   500  COA500      0.2432
     44  O5P        1.2290   13.2920   36.3210 O.2   500  COA500     -0.2733
     45  N4P       -0.7010   14.4690   36.0200 N.am  500  COA500     -0.2044
     46  C3P       -0.2450   15.5900   36.7890 C.3   500  COA500      0.1276
     47  C2P       -1.3020   16.6550   36.8030 C.3   500  COA500      0.0920
     48  S1P       -0.7240   17.9520   37.8300 S.3   500  COA500     -0.0802
@<TRIPOS>BOND
     1    19    16    2
     2    16    18    1
     3    16    15    1
     4    16    17    1
     5    13    12    1
     6    15    14    1
     7    12    14    1
     8    12    11    1
     9    14    20    1
    10     2     3    1
    11     2     1    1
    12     3     4    2
    13    11    10    1
    14    11    21    1
    15     1     6    2
    16     4    10    1
    17     4     5    1
    18    25    24    2
    19    26    24    1
    20    10     9    1
    21    20    21    1
    22    20    22    1
    23     6     5    1
    24     6     7    1
    25     5     8    2
    26     9     8    1
    27    24    23    1
    28    24    27    1
    29    23    22    1
    30    27    28    1
    31    29    28    2
    32    28    30    1
    33    28    31    1
    34    31    33    1
    35    33    32    1
    36    37    36    1
    37    34    32    1
    38    36    32    1
    39    36    38    1
    40    32    35    1
    41    40    38   am
    42    40    41    1
    43    38    39    2
    44    41    42    1
    45    42    43    1
    46    43    45   am
    47    43    44    2
    48    45    46    1
    49    46    47    1
    50    47    48    1
