@<TRIPOS>MOLECULE
2gf9_GDP_A_1.pdb
 28 30 0 0 0
SMALL
GASTEIGER

@<TRIPOS>ATOM
      1  PB         1.0720   13.1970   11.1860 P.3   501  GDP501      0.5373
      2  O1B        1.1970   12.3820   12.4640 O.3   501  GDP501     -0.1143
      3  O2B       -0.3450   13.6570   10.8660 O.2   501  GDP501     -0.2221
      4  O3B        2.0950   14.3240   11.0760 O.3   501  GDP501     -0.1143
      5  O3A        1.5040   12.1810    9.9730 O.3   501  GDP501     -0.2261
      6  PA         1.4550   10.5810    9.9550 P.3   501  GDP501      0.2231
      7  O1A        2.6640    9.9980   10.6060 O.3   501  GDP501     -0.4370
      8  O2A        0.1170   10.0830   10.4070 O.2   501  GDP501     -0.5169
      9  O5'        1.6880   10.3430    8.3830 O.3   501  GDP501     -0.3111
     10  C5'        0.7820   10.9230    7.4190 C.3   501  GDP501      0.1813
     11  C4'        0.8250   10.1410    6.1160 C.3   501  GDP501      0.1799
     12  O4'        2.1270   10.3210    5.5490 O.3   501  GDP501     -0.3326
     13  C3'        0.6280    8.6400    6.2930 C.3   501  GDP501      0.2158
     14  O3'       -0.0410    8.1190    5.1210 O.3   501  GDP501     -0.2175
     15  C2'        2.0380    8.1170    6.3750 C.3   501  GDP501      0.2310
     16  O2'        2.1970    6.7530    5.9970 O.3   501  GDP501     -0.2158
     17  C1'        2.7440    9.0380    5.4050 C.3   501  GDP501      0.2293
     18  N9         4.1640    9.1690    5.6780 N.pl3 501  GDP501     -0.2354
     19  C8         4.7690    9.4000    6.8920 C.3   501  GDP501      0.2246
     20  N7         6.1100    9.4960    6.7460 N.2   501  GDP501     -0.2322
     21  C5         6.3560    9.3130    5.4200 C.2   501  GDP501      0.2182
     22  C6         7.5440    9.2830    4.5840 C.1   501  GDP501      0.2372
     23  O6         8.7110    9.4480    5.0610 O.2   501  GDP501     -0.2069
     24  N1         7.3600    9.0820    3.2630 N.2   501  GDP501     -0.2485
     25  C2         6.1420    8.9100    2.6800 C.1   501  GDP501      0.2531
     26  N2         6.0720    8.7190    1.3580 N.pl3 501  GDP501     -0.0226
     27  N3         5.0010    8.9040    3.4130 N.2   501  GDP501     -0.3074
     28  C4         5.0740    9.1080    4.7400 C.2   501  GDP501      0.2300
@<TRIPOS>BOND
     1    26    25    1
     2    25    24    2
     3    25    27    2
     4    24    22    2
     5    27    28    2
     6    22    23    2
     7    22    21    1
     8    28    21    1
     9    28    18    1
    10    14    13    1
    11    17    12    1
    12    17    18    1
    13    17    15    1
    14    21    20    2
    15    12    11    1
    16    18    19    1
    17    16    15    1
    18    11    13    1
    19    11    10    1
    20    13    15    1
    21    20    19    1
    22    10     9    1
    23     9     6    1
    24     6     5    1
    25     6     8    2
    26     6     7    1
    27     5     1    1
    28     3     1    2
    29     4     1    1
    30     1     2    1
