@<TRIPOS>MOLECULE
2gfd_RDA_A_1.pdb
 28 29 0 0 0
SMALL
GASTEIGER

@<TRIPOS>ATOM
      1  C7      -118.6280  -41.6200   54.6740 C.3   1001  RDA1001     0.2560
      2  O4      -118.5140  -40.2690   54.2170 O.3   1001  RDA1001    -0.4413
      3  C6      -119.6170  -39.9090   53.5060 C.2   1001  RDA1001     0.3442
      4  O3      -120.0490  -40.6550   52.6290 O.2   1001  RDA1001    -0.2448
      5  C5      -120.3100  -38.5730   53.7910 C.ar  1001  RDA1001     0.1115
      6  C4      -120.7200  -37.8030   52.7060 C.ar  1001  RDA1001     0.2048
      7  O2      -120.4820  -38.2280   51.4370 O.3   1001  RDA1001    -0.2862
      8  C3      -121.3760  -36.5940   52.9100 C.ar  1001  RDA1001     0.0851
      9  C2      -121.6180  -36.1670   54.2110 C.ar  1001  RDA1001     0.2090
     10  O1      -122.2270  -34.9700   54.4230 O.3   1001  RDA1001    -0.2856
     11  C1      -121.2090  -36.9500   55.2870 C.ar  1001  RDA1001     0.0929
     12 CL       -121.6060  -36.4140   56.8840 Cl    1001  RDA1001    -0.0792
     13  C8      -120.5420  -38.1610   55.1020 C.ar  1001  RDA1001     0.0014
     14  C9      -120.0600  -38.9960   56.2930 C.3   1001  RDA1001     0.0373
     15  C10     -118.6730  -38.5490   56.7640 C.3   1001  RDA1001     0.0919
     16  C11     -117.9960  -39.6180   57.6260 C.2   1001  RDA1001     0.2460
     17  O5      -116.8920  -40.0690   57.3230 O.2   1001  RDA1001    -0.2730
     18  N1      -118.6940  -40.0290   58.6810 N.am  1001  RDA1001    -0.1758
     19  C12     -118.7380  -39.3410   59.8200 C.2   1001  RDA1001     0.1155
     20  C18     -119.5180  -38.1920   59.9110 C.2   1001  RDA1001     0.0650
     21  C17     -119.6320  -37.5170   61.1220 C.2   1001  RDA1001     0.2308
     22  O8      -120.3040  -36.4900   61.1880 O.2   1001  RDA1001    -0.2833
     23  C15     -118.9710  -37.9890   62.2520 C.2   1001  RDA1001     0.1807
     24  O7      -119.1550  -37.3410   63.4350 O.2   1001  RDA1001    -0.4681
     25  C16     -118.5020  -37.7820   64.6300 C.3   1001  RDA1001     0.2526
     26  C14     -118.1810  -39.1320   62.1590 C.2   1001  RDA1001     0.0836
     27  C13     -118.0640  -39.8060   60.9460 C.2   1001  RDA1001     0.2141
     28  O6      -117.3610  -40.8120   60.8740 O.2   1001  RDA1001    -0.2851
@<TRIPOS>BOND
     1     7     6    1
     2     4     3    2
     3     6     8   ar
     4     6     5   ar
     5     8     9   ar
     6     3     5    1
     7     3     2    1
     8     5    13   ar
     9     9    10    1
    10     9    11   ar
    11     2     1    1
    12    13    11   ar
    13    13    14    1
    14    11    12    1
    15    14    15    1
    16    15    16    1
    17    17    16    2
    18    16    18   am
    19    18    19    1
    20    19    20    2
    21    19    27    1
    22    20    21    1
    23    28    27    2
    24    27    26    1
    25    21    22    2
    26    21    23    1
    27    26    23    2
    28    23    24    1
    29    24    25    1
