@<TRIPOS>MOLECULE
2gfe_GLU_A_1.pdb
 10 9 0 0 0
SMALL
GASTEIGER

@<TRIPOS>ATOM
      1  N         75.5360   27.2410   43.2170 N.3   997  GLU997     -0.1208
      2  CA        76.5620   26.1830   43.4530 C.3   997  GLU997      0.1949
      3  C         76.7150   25.8890   44.9400 C.2   997  GLU997      0.3819
      4  O         77.5640   25.0410   45.2820 O.co2 997  GLU997     -0.2441
      5  CB        77.9140   26.6150   42.8680 C.3   997  GLU997      0.0424
      6  CG        77.9890   26.5250   41.3440 C.3   997  GLU997      0.1161
      7  CD        78.0400   25.0890   40.8300 C.2   997  GLU997      0.3649
      8  OE1       77.8360   24.8890   39.6130 O.co2 997  GLU997     -0.2457
      9  OE2       78.2940   24.1620   41.6330 O.co2 997  GLU997     -0.2457
     10  OXT       75.9780   26.5080   45.7400 O.co2 997  GLU997     -0.2441
@<TRIPOS>BOND
     1     8     7   ar
     2     7     6    1
     3     7     9   ar
     4     6     5    1
     5     5     2    1
     6     1     2    1
     7     2     3    1
     8     3     4   ar
     9     3    10   ar
