@<TRIPOS>MOLECULE
2gfj_VI_A_1.pdb
 23 25 0 0 0
SMALL
GASTEIGER

@<TRIPOS>ATOM
      1  O23       12.4780   31.0510   35.1110 O.co2 1410  VI1410     -0.2388
      2  C18       12.0640   29.8830   34.8820 C.2   1410  VI1410      0.4054
      3  O22       11.9440   29.0270   35.7790 O.co2 1410  VI1410     -0.2388
      4  C4        11.7850   29.4230   33.5030 C.ar  1410  VI1410      0.1701
      5  N5        10.9860   28.4660   33.0280 N.ar  1410  VI1410     -0.2230
      6  C6        10.0670   27.8010   33.7410 C.ar  1410  VI1410      0.0830
      7  C11        9.0650   28.5850   34.3690 C.ar  1410  VI1410      0.0192
      8  C10        8.0160   28.0850   35.1210 C.ar  1410  VI1410      0.0015
      9  C9         7.8970   26.7000   35.2070 C.ar  1410  VI1410      0.0001
     10  C8         8.8330   25.8650   34.5680 C.ar  1410  VI1410      0.0015
     11  C7         9.9080   26.4030   33.8350 C.ar  1410  VI1410      0.0192
     12  N1        10.9780   28.3080   31.6470 N.ar  1410  VI1410     -0.1647
     13  C3        12.4890   29.8980   32.2890 C.ar  1410  VI1410      0.1232
     14  C19       13.4750   31.0020   32.2290 C.2   1410  VI1410      0.3910
     15  O21       13.0210   32.1840   31.9380 O.co2 1410  VI1410     -0.2404
     16  O20       14.6540   30.8140   32.5000 O.co2 1410  VI1410     -0.2404
     17  C2        11.8950   29.1460   31.1380 C.ar  1410  VI1410      0.1093
     18  C12       12.1690   29.2540   29.6870 C.ar  1410  VI1410      0.0196
     19  C17       11.2880   28.5760   28.8260 C.ar  1410  VI1410      0.0016
     20  C16       11.4740   28.6660   27.4410 C.ar  1410  VI1410      0.0000
     21  C15       12.5130   29.4400   26.9410 C.ar  1410  VI1410      0.0000
     22  C14       13.3880   30.1140   27.8060 C.ar  1410  VI1410      0.0000
     23  C13       13.2090   30.0240   29.1850 C.ar  1410  VI1410      0.0016
@<TRIPOS>BOND
     1    21    20   ar
     2    21    22   ar
     3    20    19   ar
     4    22    23   ar
     5    19    18   ar
     6    23    18   ar
     7    18    17    1
     8    17    12   ar
     9    17    13   ar
    10    12     5   ar
    11    15    14   ar
    12    14    13    1
    13    14    16   ar
    14    13     4   ar
    15     5     4   ar
    16     5     6    1
    17     4     2    1
    18     6    11   ar
    19     6     7   ar
    20    11    10   ar
    21     7     8   ar
    22    10     9   ar
    23     2     1   ar
    24     2     3   ar
    25     8     9   ar
