@<TRIPOS>MOLECULE
2gfk_VII_A_1.pdb
 23 25 0 0 0
SMALL
GASTEIGER

@<TRIPOS>ATOM
      1  C17       11.2400   28.2760   28.7780 C.ar  1410  VII1410     0.0030
      2  C16       11.4360   28.2790   27.4010 C.ar  1410  VII1410     0.0001
      3  C15       12.4160   29.0900   26.8580 C.ar  1410  VII1410     0.0000
      4  C14       13.2170   29.8900   27.6780 C.ar  1410  VII1410     0.0001
      5  C13       13.0310   29.8870   29.0550 C.ar  1410  VII1410     0.0030
      6  C12       12.0460   29.0760   29.6060 C.ar  1410  VII1410     0.0348
      7  C10       11.7550   29.0400   31.0550 C.ar  1410  VII1410     0.1518
      8  O11       10.7840   28.2380   31.5790 O.2   1410  VII1410    -0.4531
      9  C9        12.3190   29.7960   32.2030 C.ar  1410  VII1410     0.1235
     10  C18       13.3380   30.8710   32.1430 C.2   1410  VII1410     0.3910
     11  O22       14.5280   30.6640   32.4130 O.co2 1410  VII1410    -0.2404
     12  O23       12.9020   32.0130   31.8010 O.co2 1410  VII1410    -0.2404
     13  C8        11.5530   29.3710   33.3940 C.ar  1410  VII1410     0.1235
     14  C19       11.7760   29.8550   34.7750 C.2   1410  VII1410     0.3910
     15  O20       11.5900   29.0900   35.7560 O.co2 1410  VII1410    -0.2404
     16  O21       12.1760   31.0290   34.8890 O.co2 1410  VII1410    -0.2404
     17  C7        10.6220   28.3330   32.9250 C.ar  1410  VII1410     0.1518
     18  C1         9.5780   27.5350   33.6010 C.ar  1410  VII1410     0.0348
     19  C6         8.7430   28.1630   34.5270 C.ar  1410  VII1410     0.0030
     20  C5         7.7250   27.4190   35.1230 C.ar  1410  VII1410     0.0001
     21  C4         7.5430   26.0920   34.7420 C.ar  1410  VII1410     0.0000
     22  C3         8.3650   25.4720   33.7980 C.ar  1410  VII1410     0.0001
     23  C2         9.3860   26.2100   33.1970 C.ar  1410  VII1410     0.0030
@<TRIPOS>BOND
     1     3     2   ar
     2     3     4   ar
     3     2     1   ar
     4     4     5   ar
     5     1     6   ar
     6     5     6   ar
     7     6     7    1
     8     7     8   ar
     9     7     9   ar
    10     8    17   ar
    11    12    10   ar
    12    10     9    1
    13    10    11   ar
    14     9    13   ar
    15    17    13   ar
    16    17    18    1
    17    23    18   ar
    18    23    22   ar
    19    13    14    1
    20    18    19   ar
    21    22    21   ar
    22    19    20   ar
    23    21    20   ar
    24    14    16   ar
    25    14    15   ar
