@<TRIPOS>MOLECULE
2gfs_PQB_A_1.pdb
 27 29 0 0 0
SMALL
GASTEIGER

@<TRIPOS>ATOM
      1  N1        19.8940    9.3090   30.8900 N.pl3 361  PQB361     -0.1070
      2  C2        20.5990   10.4490   31.1270 C.ar  361  PQB361      0.1756
      3  C3        21.9790   10.4980   31.2180 C.ar  361  PQB361      0.0946
      4  C4        22.2960   11.8420   31.4630 C.ar  361  PQB361      0.1266
      5  N5        21.1400   12.5810   31.5100 N.ar  361  PQB361     -0.1621
      6  N6        20.1010   11.6670   31.2890 N.ar  361  PQB361     -0.2128
      7  C7        18.8050   12.0180   31.2720 C.ar  361  PQB361      0.0844
      8  C8        17.8810   11.5120   32.1930 C.ar  361  PQB361      0.0215
      9  C9        16.5340   11.8780   32.1970 C.ar  361  PQB361      0.0312
     10  C10       16.0590   12.7870   31.2580 C.ar  361  PQB361      0.1402
     11  F11       14.7570   13.1470   31.2450 F     361  PQB361     -0.2042
     12  C12       16.9490   13.3080   30.3290 C.ar  361  PQB361      0.0312
     13  C13       18.2920   12.9330   30.3450 C.ar  361  PQB361      0.0215
     14  C14       22.8390    9.2830   31.0760 C.2   361  PQB361      0.2000
     15  O15       22.3420    8.1870   30.8720 O.2   361  PQB361     -0.2864
     16  C16       24.3390    9.3690   31.1760 C.ar  361  PQB361      0.0421
     17  C17       25.0490   10.3510   30.4840 C.ar  361  PQB361      0.0034
     18  C18       26.4390   10.4060   30.5830 C.ar  361  PQB361      0.0032
     19  C19       27.1160    9.4720   31.3630 C.ar  361  PQB361      0.0369
     20  C20       26.4120    8.4810   32.0430 C.ar  361  PQB361      0.1388
     21  O21       27.0850    7.5590   32.8100 O.3   361  PQB361     -0.4726
     22  C22       26.5580    7.1420   34.0750 C.3   361  PQB361      0.2408
     23  C23       27.6440    6.4440   34.8830 C.3   361  PQB361      0.2280
     24  O25       28.4770    7.4260   35.5090 O.3   361  PQB361     -0.2163
     25  C26       27.0000    5.5450   35.9310 C.3   361  PQB361      0.2187
     26  O27       26.6540    4.2920   35.3260 O.3   361  PQB361     -0.2174
     27  C28       25.0220    8.4310   31.9450 C.ar  361  PQB361      0.0401
@<TRIPOS>BOND
     1    12    13   ar
     2    12    10   ar
     3    13     7   ar
     4    17    18   ar
     5    17    16   ar
     6    18    19   ar
     7    15    14    2
     8     1     2    1
     9    14    16    1
    10    14     3    1
    11     2     3   ar
    12     2     6   ar
    13    16    27   ar
    14     3     4   ar
    15    11    10    1
    16    10     9   ar
    17     7     6    1
    18     7     8   ar
    19     6     5   ar
    20    19    20   ar
    21     4     5   ar
    22    27    20   ar
    23    20    21    1
    24     8     9   ar
    25    21    22    1
    26    22    23    1
    27    23    24    1
    28    23    25    1
    29    26    25    1
