@<TRIPOS>MOLECULE
2gft_GAL_A_1.pdb
 12 12 0 0 0
SMALL
GASTEIGER

@<TRIPOS>ATOM
      1  C1        16.8030   -4.8610   37.9120 C.3   803  GAL803      0.3024
      2  C2        16.2930   -6.2220   38.4410 C.3   803  GAL803      0.2434
      3  C3        16.3100   -6.2380   39.9810 C.3   803  GAL803      0.2199
      4  C4        17.6700   -5.8000   40.5270 C.3   803  GAL803      0.2144
      5  C5        18.0130   -4.4250   39.9250 C.3   803  GAL803      0.1836
      6  C6        19.3680   -3.8890   40.4000 C.3   803  GAL803      0.2142
      7  O1        16.9980   -4.8290   36.5080 O.3   803  GAL803     -0.1869
      8  O2        14.9940   -6.5640   37.9730 O.3   803  GAL803     -0.2148
      9  O3        16.0120   -7.5410   40.4490 O.3   803  GAL803     -0.2174
     10  O4        18.6480   -6.7560   40.1370 O.3   803  GAL803     -0.2176
     11  O5        18.0450   -4.5360   38.5120 O.3   803  GAL803     -0.3236
     12  O6        19.7080   -2.6880   39.7440 O.3   803  GAL803     -0.2176
@<TRIPOS>BOND
     1     7     1    1
     2     1     2    1
     3     1    11    1
     4     8     2    1
     5     2     3    1
     6    11     5    1
     7    12     6    1
     8     5     6    1
     9     5     4    1
    10     3     9    1
    11     3     4    1
    12    10     4    1
