@<TRIPOS>MOLECULE
2gfx_PMN_A_1.pdb
 32 36 0 0 0
SMALL
GASTEIGER

@<TRIPOS>ATOM
      1  O16       24.1250   28.3820   54.5470 O.3   1001  PMN1001    -0.3610
      2  O19       20.4730   28.8990   49.7860 O.2   1001  PMN1001    -0.2914
      3  O20       18.2830   26.8910   52.8500 O.2   1001  PMN1001    -0.2730
      4  O30       18.9760   24.0760   56.1760 O.3   1001  PMN1001    -0.2851
      5  O31       17.3750   28.4860   55.5000 O.3   1001  PMN1001    -0.2848
      6  O32       15.2100   29.1180   56.9520 O.co2 1001  PMN1001    -0.2404
      7  O33       14.0870   27.4500   58.0170 O.co2 1001  PMN1001    -0.2404
      8  N28       19.2370   26.6440   54.8890 N.am  1001  PMN1001    -0.1727
      9  C1        19.2660   26.9170   53.5430 C.2   1001  PMN1001     0.2458
     10  C2        20.5280   27.2740   52.8250 C.3   1001  PMN1001     0.0876
     11  C3        20.4630   28.7710   52.9060 C.3   1001  PMN1001     0.0170
     12  C4        21.4660   29.5040   52.0400 C.3   1001  PMN1001     0.0585
     13  C5        21.4430   29.0790   50.5160 C.2   1001  PMN1001     0.1721
     14  C6        22.6940   28.8930   49.8910 C.2   1001  PMN1001     0.0328
     15  C7        23.8460   29.0400   50.4800 C.2   1001  PMN1001    -0.0237
     16  C8        24.0580   29.3940   51.8640 C.3   1001  PMN1001     0.0237
     17  C9        22.7770   29.0010   52.6570 C.3   1001  PMN1001     0.0379
     18  C10       22.9760   29.2170   54.1420 C.3   1001  PMN1001     0.1157
     19  C11       23.5240   30.6230   54.4510 C.3   1001  PMN1001     0.0319
     20  C12       24.8900   30.5470   53.6980 C.3   1001  PMN1001     0.0277
     21  C13       24.5800   30.8360   52.1600 C.3   1001  PMN1001     0.0066
     22  C14       25.2170   28.5030   52.4250 C.3   1001  PMN1001     0.0313
     23  C15       25.2790   29.0290   53.8730 C.3   1001  PMN1001     0.0930
     24  C17       26.5200   28.7030   54.6600 C.3   1001  PMN1001     0.0296
     25  C18       21.3170   31.0770   52.0590 C.3   1001  PMN1001     0.0078
     26  C21       15.0890   27.9610   57.3510 C.2   1001  PMN1001     0.3909
     27  C22       16.1410   26.9080   57.0270 C.ar  1001  PMN1001     0.1201
     28  C23       17.2020   27.2480   56.1240 C.ar  1001  PMN1001     0.2203
     29  C24       18.1600   26.2550   55.8280 C.ar  1001  PMN1001     0.1511
     30  C25       18.0490   24.9990   56.4460 C.ar  1001  PMN1001     0.2140
     31  C26       16.9940   24.6630   57.3390 C.ar  1001  PMN1001     0.0438
     32  C27       16.0460   25.6090   57.6090 C.ar  1001  PMN1001     0.0132
@<TRIPOS>BOND
     1     2    13    2
     2    14    15    2
     3    14    13    1
     4    15    16    1
     5    13    12    1
     6    16    21    1
     7    16    22    1
     8    16    17    1
     9    12    25    1
    10    12    17    1
    11    12    11    1
    12    21    20    1
    13    22    23    1
    14    17    18    1
    15    10    11    1
    16    10     9    1
    17     3     9    2
    18     9     8   am
    19    20    23    1
    20    20    19    1
    21    23     1    1
    22    23    24    1
    23    18    19    1
    24    18     1    1
    25     8    29    1
    26     5    28    1
    27    29    28   ar
    28    29    30   ar
    29    28    27   ar
    30     4    30    1
    31    30    31   ar
    32     6    26   ar
    33    27    26    1
    34    27    32   ar
    35    31    32   ar
    36    26     7   ar
