@<TRIPOS>MOLECULE
2gfy_DAO_A_1.pdb
 13 12 0 0 0
SMALL
GASTEIGER

@<TRIPOS>ATOM
      1  O1        -6.4100   65.2730   61.5750 O.2   1001  DAO1001    -0.2883
      2  C1        -5.7870   64.2250   61.8620 C.2   1001  DAO1001     0.2074
      3  C2        -4.2950   64.2500   61.8190 C.3   1001  DAO1001     0.0722
      4  C3        -3.6930   64.8670   60.5630 C.3   1001  DAO1001     0.0082
      5  C4        -4.3010   64.1770   59.3240 C.3   1001  DAO1001     0.0005
      6  C5        -3.3010   64.4860   58.1900 C.3   1001  DAO1001     0.0000
      7  C6        -3.2550   63.3850   57.0650 C.3   1001  DAO1001     0.0000
      8  C7        -2.2930   62.3140   57.5860 C.3   1001  DAO1001     0.0000
      9  C8        -0.8450   62.8170   57.9740 C.3   1001  DAO1001     0.0000
     10  C9         0.0320   62.8830   56.7700 C.3   1001  DAO1001     0.0000
     11  C10        1.2630   63.1730   57.5880 C.3   1001  DAO1001     0.0000
     12  C11        2.2880   64.1130   56.8750 C.3   1001  DAO1001     0.0000
     13  C12        1.8370   64.4570   55.4640 C.3   1001  DAO1001     0.0000
@<TRIPOS>BOND
     1    13    12    1
     2    10    11    1
     3    10     9    1
     4    12    11    1
     5     7     8    1
     6     7     6    1
     7     8     9    1
     8     6     5    1
     9     5     4    1
    10     4     3    1
    11     1     2    2
    12     3     2    1
