@<TRIPOS>MOLECULE
2gg0_U11_A_1.pdb
 27 27 0 0 0
SMALL
GASTEIGER

@<TRIPOS>ATOM
      1  F29       17.9570    1.0670   14.5680 F     601  U11601     -0.1659
      2  C9        17.3680   -0.0520   15.0030 C.3   601  U11601      0.4186
      3  F30       17.8250   -0.3020   16.2160 F     601  U11601     -0.1659
      4  F31       17.7040   -1.0660   14.2040 F     601  U11601     -0.1659
      5  C5        15.8930    0.2680   15.0750 C.ar  601  U11601      0.0714
      6  C2        15.0860    0.1570   13.9510 C.ar  601  U11601      0.0036
      7  C4        13.7290    0.5010   14.0140 C.ar  601  U11601     -0.0028
      8  C6        15.3490    0.7200   16.2690 C.ar  601  U11601      0.0036
      9  C3        13.9980    1.0450   16.3330 C.ar  601  U11601     -0.0028
     10  C7        13.1680    0.9600   15.2090 C.ar  601  U11601     -0.0020
     11  C11       11.7080    1.3130   15.2860 C.3   601  U11601      0.1533
     12  N24       11.2610    2.2340   14.2430 N.3   601  U11601     -0.1249
     13  C23       10.8500    0.0480   15.4090 C.3   601  U11601      0.2504
     14  O27        9.4540    0.3710   15.3780 O.3   601  U11601     -0.2112
     15  C25       11.1520   -0.5240   16.7680 C.2   601  U11601      0.2741
     16  O31       10.6750    0.0200   17.7670 O.2   601  U11601     -0.2705
     17  N32       11.9500   -1.5850   16.7860 N.am  601  U11601     -0.1956
     18  C33       12.3690   -2.1890   18.0300 C.3   601  U11601      0.1729
     19  C37       11.2750   -3.1070   18.5300 C.3   601  U11601      0.0334
     20  C36       13.5940   -3.0050   17.7800 C.2   601  U11601      0.2617
     21  O41       13.7950   -3.5910   16.7350 O.2   601  U11601     -0.2715
     22  N42       14.4790   -3.0930   18.7750 N.am  601  U11601     -0.1919
     23  C43       15.7100   -3.8630   18.7810 C.3   601  U11601      0.2240
     24  C47       15.2470   -5.2310   19.2350 C.2   601  U11601      0.3395
     25  O60       14.1250   -5.4080   19.7050 O.2   601  U11601     -0.2481
     26  O61       16.1250   -6.3820   19.1110 O.3   601  U11601     -0.4432
     27  C62       16.0620   -7.4270   20.0890 C.3   601  U11601      0.2557
@<TRIPOS>BOND
     1     6     7   ar
     2     6     5   ar
     3     7    10   ar
     4     4     2    1
     5    12    11    1
     6     1     2    1
     7     2     5    1
     8     2     3    1
     9     5     8   ar
    10    10    11    1
    11    10     9   ar
    12    11    13    1
    13    14    13    1
    14    13    15    1
    15     8     9   ar
    16    21    20    2
    17    15    17   am
    18    15    16    2
    19    17    18    1
    20    20    18    1
    21    20    22   am
    22    18    19    1
    23    22    23    1
    24    23    24    1
    25    26    24    1
    26    26    27    1
    27    24    25    2
