@<TRIPOS>MOLECULE
2gg2_U12_A_1.pdb
 19 20 0 0 0
SMALL
GASTEIGER

@<TRIPOS>ATOM
      1  F3        -6.4070   -2.8570    7.1340 F     801  U12801     -0.1659
      2  C10       -7.2510   -2.4110    8.0440 C.3   801  U12801      0.4186
      3  F1        -7.6470   -3.4240    8.7940 F     801  U12801     -0.1659
      4  F2        -8.3010   -1.8940    7.4320 F     801  U12801     -0.1659
      5  C8        -6.6140   -1.3590    8.9080 C.ar  801  U12801      0.0730
      6  C5        -7.4200   -0.6510    9.7950 C.ar  801  U12801      0.0040
      7  C9        -6.8760    0.3330   10.6130 C.ar  801  U12801      0.0015
      8  C6        -5.5190    0.6120   10.5460 C.ar  801  U12801      0.0209
      9  C7        -5.2480   -1.0780    8.8420 C.ar  801  U12801      0.0247
     10  C4        -4.7060   -0.0930    9.6660 C.ar  801  U12801      0.1025
     11  N6        -3.3880    0.2340    9.6560 N.2   801  U12801     -0.1516
     12  N3        -2.4860   -0.4600    9.1550 N.2   801  U12801     -0.1503
     13  C1        -1.2090    0.0330    9.2390 C.3   801  U12801      0.3597
     14  C3        -0.6970    0.9030   10.1800 C.2   801  U12801      0.4786
     15  N5        -1.3500    1.4440   11.2480 N.pl3 801  U12801      0.2188
     16  N4         0.6070    1.1750    9.9220 N.2   801  U12801      0.1998
     17  N1         1.0380    0.4640    8.7890 N.2   801  U12801      0.1998
     18  C2        -0.0690   -0.2110    8.3390 C.2   801  U12801      0.4786
     19  N2        -0.1390   -1.0300    7.2500 N.pl3 801  U12801      0.2188
@<TRIPOS>BOND
     1     1     2    1
     2    19    18    1
     3     4     2    1
     4     2     3    1
     5     2     5    1
     6    18    17    2
     7    18    13    1
     8    17    16    1
     9     9     5   ar
    10     9    10   ar
    11     5     6   ar
    12    12    13    1
    13    12    11    2
    14    13    14    1
    15    11    10    1
    16    10     8   ar
    17     6     7   ar
    18    16    14    2
    19    14    15    1
    20     8     7   ar
