@<TRIPOS>MOLECULE
2gg3_U13_A_1.pdb
 16 17 0 0 0
SMALL
GASTEIGER

@<TRIPOS>ATOM
      1  F7        -8.4270   -1.7810    7.6520 F     501  U13501     -0.2042
      2  C3        -7.1880   -1.4290    8.0680 C.ar  501  U13501      0.1402
      3  C6        -6.0540   -2.0670    7.5690 C.ar  501  U13501      0.0310
      4  C2        -4.7900   -1.6780    8.0160 C.ar  501  U13501      0.0206
      5  C5        -4.6830   -0.6810    8.9910 C.ar  501  U13501      0.0916
      6  C4        -5.8130   -0.0250    9.4630 C.ar  501  U13501      0.0206
      7  C1        -7.0660   -0.4170    9.0120 C.ar  501  U13501      0.0310
      8  N9        -3.4480   -0.2000    9.4460 N.pl3 501  U13501     -0.1167
      9  N13       -2.4850   -0.4760    8.7240 N.2   501  U13501     -0.1428
     10  C14       -1.2090   -0.0390    8.9890 C.2   501  U13501      0.2896
     11  C19       -0.6660    0.8020   10.0640 C.2   501  U13501      0.4921
     12  N16       -1.3420    1.3480   11.1300 N.pl3 501  U13501      0.2233
     13  N20        0.6700    0.9860    9.8930 N.2   501  U13501      0.2042
     14  N17        1.0850    0.3020    8.7360 N.2   501  U13501      0.2042
     15  C15       -0.0100   -0.2930    8.1920 C.2   501  U13501      0.4921
     16  N18        0.0010   -1.0490    7.0650 N.pl3 501  U13501      0.2233
@<TRIPOS>BOND
     1    16    15    1
     2     3     4   ar
     3     3     2   ar
     4     1     2    1
     5     4     5   ar
     6     2     7   ar
     7    15    14    2
     8    15    10    1
     9     9    10    2
    10     9     8    1
    11    14    13    1
    12    10    11    1
    13     5     8    1
    14     5     6   ar
    15     7     6   ar
    16    13    11    2
    17    11    12    1
