@<TRIPOS>MOLECULE
2gg5_U19_A_1.pdb
 19 20 0 0 0
SMALL
GASTEIGER

@<TRIPOS>ATOM
      1  F3        16.3300    0.6290   14.1890 F     501  U19501     -0.1658
      2  C7        16.8770    1.0150   15.3270 C.3   501  U19501      0.4198
      3  F1        18.0400    1.6160   15.0960 F     501  U19501     -0.1658
      4  F2        16.0970    1.9650   15.8210 F     501  U19501     -0.1658
      5  C3        17.0230   -0.0690   16.3960 C.ar  501  U19501      0.0883
      6  C6        18.2730   -0.5620   16.7800 C.ar  501  U19501      0.0052
      7  C2        18.3820   -1.5370   17.7690 C.ar  501  U19501      0.0000
      8  C1        15.8850   -0.5830   17.0300 C.ar  501  U19501      0.0953
      9  C4        15.9800   -1.5690   18.0280 C.ar  501  U19501      0.0182
     10  C5        17.2420   -2.0430   18.3850 C.ar  501  U19501      0.0014
     11  N1        14.6570   -0.1130   16.6610 N.pl3 501  U19501     -0.1168
     12  N2        13.6660   -0.5680   17.2390 N.2   501  U19501     -0.1428
     13  C8        12.3930   -0.1830   16.9580 C.2   501  U19501      0.2896
     14  C10       11.8940    0.7920   15.9920 C.2   501  U19501      0.4921
     15  N5        12.6790    1.5150   15.1470 N.pl3 501  U19501      0.2233
     16  N6        10.5550    0.8580   16.0620 N.2   501  U19501      0.2042
     17  N3        10.0810   -0.0350   17.0470 N.2   501  U19501      0.2042
     18  C9        11.1660   -0.6580   17.5920 C.2   501  U19501      0.4921
     19  N4        11.1760   -1.6070   18.5710 N.pl3 501  U19501      0.2233
@<TRIPOS>BOND
     1     1     2    1
     2     3     2    1
     3    15    14    1
     4     2     4    1
     5     2     5    1
     6    14    16    2
     7    14    13    1
     8    16    17    1
     9     5     6   ar
    10     5     8   ar
    11    11     8    1
    12    11    12    1
    13     6     7   ar
    14    13    12    2
    15    13    18    1
    16     8     9   ar
    17    17    18    2
    18    18    19    1
    19     7    10   ar
    20     9    10   ar
