@<TRIPOS>MOLECULE
2gg6_S3P_A_1.pdb
 16 16 0 0 0
SMALL
GASTEIGER

@<TRIPOS>ATOM
      1  C1      -127.5790   32.2060  127.0680 C.2   601  S3P601      0.0583
      2  C2      -127.3040   32.5860  125.7190 C.3   601  S3P601      0.0657
      3  C3      -128.4040   32.4830  124.6410 C.3   601  S3P601      0.1639
      4  C4      -129.8140   32.5140  125.2590 C.3   601  S3P601      0.2140
      5  C5      -129.9360   31.4760  126.3800 C.3   601  S3P601      0.2065
      6  C6      -128.8870   31.7730  127.4670 C.2   601  S3P601      0.0111
      7  C7      -126.4350   32.2340  128.0860 C.2   601  S3P601      0.3837
      8  O1      -128.1930   31.2150  123.7820 O.3   601  S3P601     -0.2697
      9  O2      -130.7810   32.2790  124.2170 O.3   601  S3P601     -0.2174
     10  O3      -131.2720   31.5180  126.9470 O.3   601  S3P601     -0.2155
     11  O4      -125.2700   32.0820  127.6420 O.co2 601  S3P601     -0.2409
     12  O5      -126.7120   32.3660  129.2970 O.co2 601  S3P601     -0.2409
     13  P1      -127.2990   31.1220  122.4000 P.3   601  S3P601      0.5326
     14  O6      -125.8350   31.1720  122.7470 O.3   601  S3P601     -0.1145
     15  O7      -127.6680   32.2860  121.5480 O.2   601  S3P601     -0.2224
     16  O8      -127.5860   29.8260  121.6940 O.3   601  S3P601     -0.1145
@<TRIPOS>BOND
     1    15    13    2
     2    16    13    1
     3    13    14    1
     4    13     8    1
     5     8     3    1
     6     9     4    1
     7     3     4    1
     8     3     2    1
     9     4     5    1
    10     2     1    1
    11     5    10    1
    12     5     6    1
    13     1     6    2
    14     1     7    1
    15    11     7   ar
    16     7    12   ar
