@<TRIPOS>MOLECULE
2gg7_U14_A_1.pdb
 18 19 0 0 0
SMALL
GASTEIGER

@<TRIPOS>ATOM
      1  O2        -6.2780   -3.0690    6.8550 O.co2 701  U14701     -0.2406
      2  C4        -7.0660   -2.4340    7.5870 C.2   701  U14701      0.3878
      3  O1        -8.3110   -2.5900    7.5440 O.co2 701  U14701     -0.2406
      4  C9        -6.4940   -1.4300    8.5350 C.ar  701  U14701      0.0811
      5  C6        -7.3770   -0.6730    9.2980 C.ar  701  U14701      0.0067
      6  C10       -6.9030    0.2760   10.1910 C.ar  701  U14701      0.0016
      7  C7        -5.5350    0.4550   10.3110 C.ar  701  U14701      0.0183
      8  C8        -5.1070   -1.2490    8.6430 C.ar  701  U14701      0.0248
      9  C5        -4.6440   -0.3060    9.5580 C.ar  701  U14701      0.0917
     10  N6        -3.2980    0.0090    9.7360 N.pl3 701  U14701     -0.1167
     11  N5        -2.3990   -0.5220    8.9790 N.2   701  U14701     -0.1428
     12  C2        -1.1270   -0.0610    9.1740 C.2   701  U14701      0.2896
     13  C3        -0.0670   -0.2660    8.3120 C.2   701  U14701      0.4921
     14  N4        -0.0660   -1.0480    7.2000 N.pl3 701  U14701      0.2233
     15  N2         1.0240    0.3870    8.7540 N.2   701  U14701      0.2042
     16  C1        -0.6550    0.8130   10.1400 C.2   701  U14701      0.4921
     17  N3         0.6210    1.0770    9.9000 N.2   701  U14701      0.2042
     18  N1        -1.2960    1.3410   11.2180 N.pl3 701  U14701      0.2233
@<TRIPOS>BOND
     1     1     2   ar
     2    14    13    1
     3     3     2   ar
     4     2     4    1
     5    13    15    2
     6    13    12    1
     7     4     8   ar
     8     4     5   ar
     9     8     9   ar
    10    15    17    1
    11    11    12    2
    12    11    10    1
    13    12    16    1
    14     5     6   ar
    15     9    10    1
    16     9     7   ar
    17    17    16    2
    18    16    18    1
    19     6     7   ar
