@<TRIPOS>MOLECULE
2gg8_U15_A_1.pdb
 28 28 0 0 0
SMALL
GASTEIGER

@<TRIPOS>ATOM
      1  O42       -5.1170   -6.4560    6.1520 O.2   501  U15501     -0.2482
      2  C41       -4.3440   -5.6440    5.6570 C.2   501  U15501      0.3371
      3  O43       -3.2140   -6.3070    5.0140 O.3   501  U15501     -0.4432
      4  C44       -3.3390   -7.7360    4.9190 C.3   501  U15501      0.2557
      5  C37       -4.5550   -4.1400    5.7200 C.3   501  U15501      0.1935
      6  C39       -5.4910   -3.7020    6.8390 C.3   501  U15501      0.0331
      7  C48       -6.5400   -2.6540    6.4330 C.3   501  U15501      0.0023
      8  C53       -6.0620   -1.2400    6.7200 C.3   501  U15501      0.0001
      9  C51       -7.8660   -2.8200    7.1580 C.3   501  U15501      0.0001
     10  N36       -3.2950   -3.4130    5.8690 N.am  501  U15501     -0.1943
     11  C27       -2.5900   -3.2890    6.9930 C.2   501  U15501      0.2617
     12  O35       -2.8700   -3.7810    8.0800 O.2   501  U15501     -0.2715
     13  C24       -1.3100   -2.5010    6.9140 C.3   501  U15501      0.1729
     14  C28       -0.1770   -3.4410    6.4710 C.3   501  U15501      0.0334
     15  N23       -1.0270   -1.9100    8.2230 N.am  501  U15501     -0.1956
     16  C20       -0.2910   -0.8300    8.2560 C.2   501  U15501      0.2741
     17  O22        0.1560   -0.2580    7.2640 O.2   501  U15501     -0.2705
     18  C14        0.0280   -0.2030    9.5970 C.3   501  U15501      0.2504
     19  O19        1.4540    0.1220    9.4950 O.3   501  U15501     -0.2112
     20  C7        -0.7240    1.1260    9.5910 C.3   501  U15501      0.1533
     21  N15       -0.3570    2.1110   10.6230 N.3   501  U15501     -0.1249
     22  C3        -2.1910    0.8480    9.7060 C.ar  501  U15501     -0.0020
     23  C6        -2.7510    0.3990   10.9100 C.ar  501  U15501     -0.0031
     24  C2        -4.1210    0.1110   11.0150 C.ar  501  U15501     -0.0045
     25  C5        -4.9740    0.2640    9.9290 C.ar  501  U15501     -0.0219
     26  C9        -6.4200   -0.0360   10.0530 C.3   501  U15501      0.0310
     27  C4        -4.4410    0.7000    8.7120 C.ar  501  U15501     -0.0045
     28  C1        -3.0670    0.9870    8.6190 C.ar  501  U15501     -0.0031
@<TRIPOS>BOND
     1     4     3    1
     2     3     2    1
     3     2     5    1
     4     2     1    2
     5     5    10    1
     6     5     6    1
     7    10    11   am
     8     7     8    1
     9     7     6    1
    10     7     9    1
    11    14    13    1
    12    13    11    1
    13    13    15    1
    14    11    12    2
    15    17    16    2
    16    15    16   am
    17    16    18    1
    18    28    27   ar
    19    28    22   ar
    20    27    25   ar
    21    19    18    1
    22    20    18    1
    23    20    22    1
    24    20    21    1
    25    22    23   ar
    26    25    26    1
    27    25    24   ar
    28    23    24   ar
