@<TRIPOS>MOLECULE
2gg9_U16_A_1.pdb
 30 30 0 0 0
SMALL
GASTEIGER

@<TRIPOS>ATOM
      1  O31       -0.0060    0.0110    6.9890 O.2   801  U16801     -0.2705
      2  C25       -0.4730   -0.5270    7.9850 C.2   801  U16801      0.2741
      3  C23       -0.1860    0.0890    9.3230 C.3   801  U16801      0.2504
      4  C11       -1.0730    1.3530    9.4450 C.3   801  U16801      0.1533
      5  C7        -2.5090    0.9430    9.5660 C.ar  801  U16801     -0.0020
      6  C3        -2.9930    0.4230   10.7620 C.ar  801  U16801     -0.0031
      7  C6        -4.3170    0.0270   10.8610 C.ar  801  U16801     -0.0046
      8  C5        -5.1570    0.1200    9.7620 C.ar  801  U16801     -0.0225
      9  C9        -6.5700   -0.2780    9.8410 C.3   801  U16801      0.0224
     10  C14       -7.4110    0.9820    9.8930 C.3   801  U16801      0.0047
     11  C15       -6.8710   -1.0930   11.0650 C.3   801  U16801      0.0047
     12  C2        -4.7070    0.6200    8.5550 C.ar  801  U16801     -0.0046
     13  C4        -3.3750    1.0120    8.4560 C.ar  801  U16801     -0.0031
     14  N24       -0.5350    2.2320   10.5000 N.3   801  U16801     -0.1249
     15  O27        1.2180    0.4400    9.3290 O.3   801  U16801     -0.2112
     16  N32       -1.2480   -1.6000    7.9580 N.am  801  U16801     -0.1956
     17  C33       -1.6310   -2.2510    6.7100 C.3   801  U16801      0.1729
     18  C37       -0.5400   -3.2000    6.2370 C.3   801  U16801      0.0334
     19  C36       -2.8930   -3.0310    6.8870 C.2   801  U16801      0.2617
     20  O41       -3.1450   -3.6000    7.9260 O.2   801  U16801     -0.2715
     21  N42       -3.7050   -3.0980    5.8420 N.am  801  U16801     -0.1943
     22  C43       -4.9110   -3.8740    5.8500 C.3   801  U16801      0.1935
     23  C45       -6.0690   -3.4850    6.7520 C.3   801  U16801      0.0331
     24  C49       -6.9650   -2.3860    6.1820 C.3   801  U16801      0.0023
     25  C52       -8.4440   -2.7550    6.2780 C.3   801  U16801      0.0001
     26  C53       -6.6260   -1.9710    4.7520 C.3   801  U16801      0.0001
     27  C47       -4.6380   -5.2650    5.3830 C.2   801  U16801      0.3371
     28  O60       -3.5320   -5.5510    4.9300 O.2   801  U16801     -0.2482
     29  O61       -5.6630   -6.2860    5.4620 O.3   801  U16801     -0.4432
     30  C62       -5.6450   -7.3930    4.5610 C.3   801  U16801      0.2557
@<TRIPOS>BOND
     1    30    29    1
     2    26    24    1
     3    28    27    2
     4    27    29    1
     5    27    22    1
     6    21    22    1
     7    21    19   am
     8    22    23    1
     9    24    25    1
    10    24    23    1
    11    18    17    1
    12    17    19    1
    13    17    16    1
    14    19    20    2
    15     1     2    2
    16    16     2   am
    17     2     3    1
    18    13    12   ar
    19    13     5   ar
    20    12     8   ar
    21     3    15    1
    22     3     4    1
    23     4     5    1
    24     4    14    1
    25     5     6   ar
    26     8     9    1
    27     8     7   ar
    28     9    10    1
    29     9    11    1
    30     6     7   ar
