@<TRIPOS>MOLECULE
2gga_S3P_A_1.pdb
 16 16 0 0 0
SMALL
GASTEIGER

@<TRIPOS>ATOM
      1  C1      -127.5570   32.4440  127.0660 C.2   601  S3P601      0.0583
      2  C2      -127.4010   32.7400  125.6790 C.2   601  S3P601      0.0084
      3  C3      -128.6020   32.6370  124.7310 C.3   601  S3P601      0.1809
      4  C4      -129.9470   32.7210  125.4880 C.3   601  S3P601      0.2140
      5  C5      -129.9800   31.7300  126.6830 C.3   601  S3P601      0.1895
      6  C6      -128.8390   32.0750  127.6230 C.3   601  S3P601      0.0684
      7  C7      -126.3530   32.5150  127.9660 C.2   601  S3P601      0.3837
      8  O1      -128.5070   31.3980  123.8950 O.3   601  S3P601     -0.2655
      9  O2      -130.9900   32.4790  124.5470 O.3   601  S3P601     -0.2174
     10  O3      -131.2200   31.8260  127.3950 O.3   601  S3P601     -0.2200
     11  O4      -125.2160   32.3510  127.4530 O.co2 601  S3P601     -0.2409
     12  O5      -126.5530   32.7230  129.1910 O.co2 601  S3P601     -0.2409
     13  P1      -127.6150   31.2310  122.4910 P.3   601  S3P601      0.5329
     14  O6      -126.1580   31.3190  122.8060 O.3   601  S3P601     -0.1145
     15  O7      -128.0220   32.3270  121.5810 O.2   601  S3P601     -0.2224
     16  O8      -127.9090   29.9110  121.8940 O.3   601  S3P601     -0.1145
@<TRIPOS>BOND
     1    15    13    2
     2    16    13    1
     3    13    14    1
     4    13     8    1
     5     8     3    1
     6     9     4    1
     7     3     4    1
     8     3     2    1
     9     4     5    1
    10     2     1    2
    11     5    10    1
    12     5     6    1
    13     1     6    1
    14     1     7    1
    15    11     7   ar
    16     7    12   ar
