@<TRIPOS>MOLECULE
2gga_GPJ_A_1.pdb
 10 9 0 0 0
SMALL
GASTEIGER

@<TRIPOS>ATOM
      1  P1      -131.4480   27.4770  127.2180 P.3   701  GPJ701      0.1347
      2  O1      -130.6550   27.6690  125.9880 O.2   701  GPJ701     -0.4587
      3  O2      -132.1240   26.1080  127.2850 O.3   701  GPJ701     -0.3562
      4  O3      -130.6490   27.7220  128.4470 O.3   701  GPJ701     -0.3562
      5  O4      -134.3110   31.1200  128.0890 O.co2 701  GPJ701     -0.2440
      6  O5      -135.5440   31.7650  126.3870 O.co2 701  GPJ701     -0.2440
      7  C1      -132.7870   28.5250  127.1440 C.3   701  GPJ701      0.1476
      8  C2      -133.7360   30.4830  125.8170 C.3   701  GPJ701      0.2033
      9  C3      -134.5860   31.1760  126.8520 C.2   701  GPJ701      0.3823
     10  N1      -132.5840   29.6600  126.1970 N.3   701  GPJ701     -0.1988
@<TRIPOS>BOND
     1     8    10    1
     2     8     9    1
     3     2     1    2
     4    10     7    1
     5     6     9   ar
     6     9     5   ar
     7     7     1    1
     8     1     3    1
     9     1     4    1
