@<TRIPOS>MOLECULE
2ggb_U17_A_1.pdb
 26 25 0 0 0
SMALL
GASTEIGER

@<TRIPOS>ATOM
      1  O2        11.7200    0.1630   18.2710 O.2   304  U17304     -0.2705
      2  C10       11.8330   -0.5760   17.3440 C.2   304  U17304      0.2738
      3  C9        11.3310    0.0510   16.0890 C.3   304  U17304      0.2473
      4  C7        12.1140    1.3370   15.8870 C.3   304  U17304      0.1440
      5  C3        13.6030    1.1350   16.1440 C.3   304  U17304      0.0981
      6  C6        14.6520    0.8930   15.4580 C.1   304  U17304     -0.0894
      7  C2        15.8260    0.8810   15.1350 C.1   304  U17304     -0.0899
      8  C5        17.0790    1.0250   15.0260 C.3   304  U17304      0.0900
      9  N1        11.5590    2.2330   14.8480 N.3   304  U17304     -0.1286
     10  O1         9.9660    0.3670   16.3480 O.3   304  U17304     -0.2116
     11  N2        12.3270   -1.8050   17.4010 N.am  304  U17304     -0.1928
     12  C11       12.6730   -2.5020   18.6490 C.3   304  U17304      0.2055
     13  C13       11.5530   -3.4290   19.2040 C.3   304  U17304      0.2130
     14  O6        11.9070   -4.6400   19.9070 O.3   304  U17304     -0.2179
     15  C12       13.9840   -3.1920   18.3740 C.2   304  U17304      0.2643
     16  O3        13.9350   -3.8170   17.3340 O.2   304  U17304     -0.2714
     17  N3        15.0520   -3.0880   19.1930 N.am  304  U17304     -0.1942
     18  C14       16.2600   -3.9270   19.2180 C.3   304  U17304      0.1935
     19  C15       17.4030   -3.0110   19.6870 C.3   304  U17304      0.0331
     20  C17       18.7160   -2.9570   18.8890 C.3   304  U17304      0.0023
     21  C18       18.9710   -1.4930   18.5410 C.3   304  U17304      0.0001
     22  C19       19.9340   -3.5930   19.5860 C.3   304  U17304      0.0001
     23  C16       16.1670   -5.1550   20.1320 C.2   304  U17304      0.3371
     24  O4        15.7340   -5.0330   21.2750 O.2   304  U17304     -0.2482
     25  O5        16.5750   -6.5220   19.7510 O.3   304  U17304     -0.4432
     26  C20       16.4580   -7.6700   20.6100 C.3   304  U17304      0.2557
@<TRIPOS>BOND
     1     9     4    1
     2     8     7    1
     3     7     6    3
     4     6     5    1
     5     4     3    1
     6     4     5    1
     7     3    10    1
     8     3     2    1
     9    16    15    2
    10     2    11   am
    11     2     1    2
    12    11    12    1
    13    15    12    1
    14    15    17   am
    15    21    20    1
    16    12    13    1
    17    20    22    1
    18    20    19    1
    19    17    18    1
    20    13    14    1
    21    18    19    1
    22    18    23    1
    23    25    23    1
    24    25    26    1
    25    23    24    2
