@<TRIPOS>MOLECULE
2ggd_GPJ_A_1.pdb
 10 9 0 0 0
SMALL
GASTEIGER

@<TRIPOS>ATOM
      1  P1      -130.2710   27.3180  126.5450 P.3   601  GPJ601      0.1347
      2  O1      -129.7830   27.9450  127.7940 O.3   601  GPJ601     -0.3562
      3  O2      -129.2150   26.9300  125.6130 O.2   601  GPJ601     -0.4587
      4  O3      -131.2390   26.1710  126.8280 O.3   601  GPJ601     -0.3562
      5  O4      -133.5020   31.0980  127.9580 O.co2 601  GPJ601     -0.2440
      6  O5      -134.5540   31.9150  126.2030 O.co2 601  GPJ601     -0.2440
      7  C1      -131.2080   28.4840  125.6420 C.3   601  GPJ601      0.1476
      8  C2      -132.9200   30.3070  125.7970 C.3   601  GPJ601      0.2033
      9  C3      -133.7100   31.1740  126.7310 C.2   601  GPJ601      0.3823
     10  N1      -132.0020   29.3620  126.4970 N.3   601  GPJ601     -0.1988
@<TRIPOS>BOND
     1     3     1    2
     2     7    10    1
     3     7     1    1
     4     8    10    1
     5     8     9    1
     6     6     9   ar
     7     1     4    1
     8     1     2    1
     9     9     5   ar
