@<TRIPOS>MOLECULE
2ggd_S3P_A_1.pdb
 16 16 0 0 0
SMALL
GASTEIGER

@<TRIPOS>ATOM
      1  C1      -126.6520   32.2650  126.7610 C.2   501  S3P501      0.0583
      2  C2      -126.4550   32.4570  125.3790 C.2   501  S3P501      0.0084
      3  C3      -127.6130   32.3090  124.4080 C.3   501  S3P501      0.1809
      4  C4      -129.0150   32.3910  125.1150 C.3   501  S3P501      0.2140
      5  C5      -129.0570   31.5050  126.3750 C.3   501  S3P501      0.1895
      6  C6      -127.9520   31.9750  127.3120 C.3   501  S3P501      0.0684
      7  C7      -125.4600   32.3480  127.6770 C.2   501  S3P501      0.3837
      8  O1      -127.4060   31.0830  123.6120 O.3   501  S3P501     -0.2655
      9  O2      -130.0360   32.0530  124.1550 O.3   501  S3P501     -0.2174
     10  O3      -130.3420   31.6160  127.0450 O.3   501  S3P501     -0.2200
     11  O4      -124.3160   32.1400  127.1720 O.co2 501  S3P501     -0.2409
     12  O5      -125.6800   32.5480  128.8960 O.co2 501  S3P501     -0.2409
     13  P1      -126.4470   30.9700  122.2190 P.3   501  S3P501      0.5329
     14  O6      -124.9710   31.0580  122.5480 O.3   501  S3P501     -0.1145
     15  O7      -126.8290   32.0770  121.3340 O.2   501  S3P501     -0.2224
     16  O8      -126.7010   29.6460  121.5970 O.3   501  S3P501     -0.1145
@<TRIPOS>BOND
     1    15    13    2
     2    16    13    1
     3    13    14    1
     4    13     8    1
     5     8     3    1
     6     9     4    1
     7     3     4    1
     8     3     2    1
     9     4     5    1
    10     2     1    2
    11     5    10    1
    12     5     6    1
    13     1     6    1
    14     1     7    1
    15    11     7   ar
    16     7    12   ar
