@<TRIPOS>MOLECULE
2ggh_NLQ_C_1.pdb
 13 12 0 0 0
SMALL
GASTEIGER

@<TRIPOS>ATOM
      1  OXT       58.9060   26.3580   32.8410 O.co2 1376  NLQ1376    -0.2441
      2  C         59.0800   25.3690   32.0960 C.2   1376  NLQ1376     0.3803
      3  O         58.8960   25.4290   30.8590 O.co2 1376  NLQ1376    -0.2441
      4  CA        59.5100   24.0830   32.7630 C.3   1376  NLQ1376     0.1781
      5  N         58.8490   22.8790   32.2470 N.3   1376  NLQ1376    -0.1792
      6  C6        58.7510   22.4960   30.8460 C.3   1376  NLQ1376     0.2262
      7  O4        57.7020   23.1950   30.1790 O.3   1376  NLQ1376    -0.2036
      8  C7        58.4840   20.9950   30.7610 C.3   1376  NLQ1376     0.0555
      9  CB        61.0460   23.9650   32.8550 C.3   1376  NLQ1376     0.0332
     10  CG        61.5520   23.1380   34.0490 C.3   1376  NLQ1376     0.0548
     11  CD        63.0560   23.2980   34.3250 C.3   1376  NLQ1376     0.2419
     12  NE2       63.2910   23.5270   35.7370 N.3   1376  NLQ1376    -0.0968
     13  OE1       63.7890   22.1420   33.9440 O.3   1376  NLQ1376    -0.2022
@<TRIPOS>BOND
     1     7     6    1
     2     8     6    1
     3     6     5    1
     4     3     2   ar
     5     2     4    1
     6     2     1   ar
     7     5     4    1
     8     4     9    1
     9     9    10    1
    10    13    11    1
    11    10    11    1
    12    11    12    1
