@<TRIPOS>MOLECULE
2ggn_HEM_X_1.pdb
 43 50 0 0 0
SMALL
GASTEIGER

@<TRIPOS>ATOM
      1  CHA       13.7410   57.4180   20.4780 C.2   251  HEM251      0.0000
      2  CHB       12.8850   54.8340   16.4720 C.2   251  HEM251      0.0000
      3  CHC       16.3030   51.7050   17.7720 C.2   251  HEM251      0.0000
      4  CHD       17.1120   54.1970   21.7950 C.2   251  HEM251      0.0000
      5  C1A       13.2300   57.0010   19.2760 C.ar  251  HEM251      0.0000
      6  C2A       12.1790   57.6660   18.5450 C.ar  251  HEM251      0.0000
      7  C3A       11.9350   56.9490   17.4410 C.ar  251  HEM251      0.0000
      8  C4A       12.8290   55.8090   17.4500 C.ar  251  HEM251      0.0000
      9  CMA       10.9010   57.2440   16.3240 C.3   251  HEM251      0.0000
     10  CAA       11.4810   58.9670   18.9800 C.3   251  HEM251      0.0000
     11  CBA       12.3140   60.2080   18.6690 C.3   251  HEM251      0.0000
     12  CGA       11.5830   61.4180   19.1780 C.2   251  HEM251      0.0000
     13  O1A       10.4840   61.7330   18.6540 O.co2 251  HEM251      0.0000
     14  O2A       12.0840   62.0580   20.1280 O.co2 251  HEM251      0.0000
     15  C1B       13.6510   53.6960   16.5370 C.2   251  HEM251      0.0000
     16  C2B       13.4860   52.5160   15.7250 C.2   251  HEM251      0.0000
     17  C3B       14.4260   51.6390   16.0930 C.2   251  HEM251      0.0000
     18  C4B       15.2150   52.2510   17.1480 C.2   251  HEM251      0.0000
     19  CMB       12.4030   52.3120   14.6500 C.3   251  HEM251      0.0000
     20  CAB       14.6300   50.2100   15.5430 C.2   251  HEM251      0.0000
     21  CBB       14.6100   49.1920   16.4190 C.2   251  HEM251      0.0000
     22  C1C       16.8690   52.1450   18.9370 C.ar  251  HEM251      0.0000
     23  C2C       17.9890   51.5280   19.6120 C.ar  251  HEM251      0.0000
     24  C3C       18.2030   52.2140   20.7360 C.ar  251  HEM251      0.0000
     25  C4C       17.2330   53.2800   20.7910 C.ar  251  HEM251      0.0000
     26  CMC       18.7580   50.2950   19.0860 C.3   251  HEM251      0.0000
     27  CAC       19.2540   51.9920   21.8340 C.2   251  HEM251      0.0000
     28  CBC       19.5800   50.7570   22.2260 C.2   251  HEM251      0.0000
     29  C1D       16.2130   55.2220   21.8440 C.2   251  HEM251      0.0000
     30  C2D       15.9600   56.0000   23.0160 C.2   251  HEM251      0.0000
     31  C3D       14.9250   57.0160   22.6270 C.2   251  HEM251      0.0000
     32  C4D       14.6400   56.7310   21.2460 C.2   251  HEM251      0.0000
     33  CMD       16.6050   55.8350   24.3900 C.3   251  HEM251      0.0000
     34  CAD       14.2920   58.0900   23.5140 C.3   251  HEM251      0.0000
     35  CBD       14.9200   59.4460   23.2120 C.3   251  HEM251      0.0000
     36  CGD       14.4030   60.5280   24.1320 C.2   251  HEM251      0.0000
     37  O1D       14.5810   61.7160   23.7720 O.co2 251  HEM251      0.0000
     38  O2D       13.8320   60.2240   25.2110 O.co2 251  HEM251      0.0000
     39  NA        13.6130   55.8730   18.5920 N.ar  251  HEM251      0.0000
     40  NB        14.7080   53.5030   17.4000 N.2   251  HEM251      0.0000
     41  NC        16.4290   53.2250   19.6730 N.ar  251  HEM251      0.0000
     42  ND        15.4070   55.6620   20.8150 N.2   251  HEM251      0.0000
     43 FE         15.0330   54.5450   19.1370 Fe    251  HEM251      0.0000
@<TRIPOS>BOND
     1    19    16    1
     2    20    17    1
     3    20    21    2
     4    16    17    2
     5    16    15    1
     6    17    18    1
     7     9     7    1
     8     2    15    1
     9     2     8    2
    10    15    40    2
    11    18    40    1
    12    18     3    2
    13    40    43    1
    14     7     8   ar
    15     7     6   ar
    16     8    39   ar
    17     3    22    1
    18     6    10    1
    19     6     5   ar
    20    39    43    1
    21    39     5   ar
    22    13    12   ar
    23    11    10    1
    24    11    12    1
    25    22    23   ar
    26    22    41   ar
    27    26    23    1
    28    43    41    1
    29    43    42    1
    30    12    14   ar
    31     5     1    2
    32    23    24   ar
    33    41    25   ar
    34     1    32    1
    35    24    25   ar
    36    24    27    1
    37    25     4    1
    38    42    32    2
    39    42    29    1
    40    32    31    1
    41     4    29    2
    42    27    28    2
    43    29    30    1
    44    31    30    2
    45    31    34    1
    46    30    33    1
    47    35    34    1
    48    35    36    1
    49    37    36   ar
    50    36    38   ar
