@<TRIPOS>MOLECULE
2ggq_TTP_A_1.pdb
 29 30 0 0 0
SMALL
GASTEIGER

@<TRIPOS>ATOM
      1  PA        -1.6360   39.4610   11.1270 P.3   500  TTP500      0.2189
      2  O1A       -3.0160   39.4440   11.7810 O.3   500  TTP500     -0.4371
      3  O2A       -1.7280   40.0090    9.7000 O.2   500  TTP500     -0.5170
      4  O3A       -1.0160   37.9330   11.0550 O.3   500  TTP500     -0.2700
      5  PB         0.4580   37.6340   11.6380 P.3   500  TTP500      0.2277
      6  O1B        1.3750   36.7620   10.8420 O.2   500  TTP500     -0.5168
      7  O2B        1.2310   38.9240   11.7590 O.3   500  TTP500     -0.4368
      8  O3B        0.1880   37.1950   13.1500 O.3   500  TTP500     -0.2258
      9  PG        -0.0600   35.7450   13.7450 P.3   500  TTP500      0.5373
     10  O1G       -0.1440   34.7250   12.6170 O.2   500  TTP500     -0.2221
     11  O2G        1.0390   35.3830   14.7170 O.3   500  TTP500     -0.1143
     12  O3G       -1.3440   35.9100   14.5270 O.3   500  TTP500     -0.1143
     13  O5'       -0.6260   40.2920   12.1040 O.3   500  TTP500     -0.3112
     14  C5'       -0.6950   40.1050   13.5390 C.3   500  TTP500      0.1812
     15  C4'        0.5830   40.2900   14.3870 C.3   500  TTP500      0.1773
     16  O4'        1.8120   40.6500   13.7190 O.3   500  TTP500     -0.3339
     17  C3'        0.3490   41.4670   15.2960 C.3   500  TTP500      0.1857
     18  O3'        1.0850   41.2170   16.5070 O.3   500  TTP500     -0.2203
     19  C2'        0.9330   42.6710   14.5410 C.3   500  TTP500      0.0874
     20  C1'        2.1840   42.0470   13.9410 C.3   500  TTP500      0.2090
     21  N1         2.7860   42.6550   12.7140 N.am  500  TTP500     -0.1794
     22  C2         4.0370   43.3690   12.8030 C.1   500  TTP500      0.2844
     23  O2         4.6310   43.5610   13.8950 O.2   500  TTP500     -0.1918
     24  N3         4.6320   43.8680   11.7140 N.2   500  TTP500     -0.2455
     25  C4         4.0820   43.7100   10.5110 C.1   500  TTP500      0.2134
     26  O4         4.6790   44.1810    9.5270 O.2   500  TTP500     -0.2088
     27  C5         2.8020   42.9890   10.3650 C.2   500  TTP500      0.0891
     28  C5M        2.1660   42.8040    9.0060 C.3   500  TTP500      0.0462
     29  C6         2.1990   42.4780   11.5160 C.2   500  TTP500      0.0877
@<TRIPOS>BOND
     1    28    27    1
     2    26    25    2
     3     3     1    2
     4    27    25    1
     5    27    29    2
     6    25    24    2
     7     6     5    2
     8     4     1    1
     9     4     5    1
    10     1     2    1
    11     1    13    1
    12    29    21    1
    13     5     7    1
    14     5     8    1
    15    24    22    2
    16    13    14    1
    17    10     9    2
    18    21    22   am
    19    21    20    1
    20    22    23    2
    21     8     9    1
    22    14    15    1
    23    16    20    1
    24    16    15    1
    25     9    12    1
    26     9    11    1
    27    20    19    1
    28    15    17    1
    29    19    17    1
    30    17    18    1
