@<TRIPOS>MOLECULE
2ggs_NDP_A_1.pdb
 48 52 0 0 0
SMALL
GASTEIGER

@<TRIPOS>ATOM
      1  PA        -9.8710   32.8900   31.8990 P.3   900  NDP900      0.2189
      2  O1A       -8.8750   32.0340   32.5630 O.2   900  NDP900     -0.5170
      3  O2A      -11.1420   33.0310   32.6490 O.3   900  NDP900     -0.4371
      4  O5B      -10.2130   32.3780   30.4440 O.3   900  NDP900     -0.3112
      5  C5B       -9.2160   31.7800   29.6350 C.3   900  NDP900      0.1813
      6  C4B       -9.8960   31.4690   28.3270 C.3   900  NDP900      0.1820
      7  O4B       -8.8900   30.9990   27.4260 O.3   900  NDP900     -0.3136
      8  C3B      -10.9980   30.4290   28.4500 C.3   900  NDP900      0.2157
      9  O3B      -12.0730   30.8220   27.6400 O.3   900  NDP900     -0.2175
     10  C2B      -10.3130   29.1890   27.8610 C.3   900  NDP900      0.2314
     11  O2B      -11.2900   28.3730   27.2890 O.3   900  NDP900     -0.2630
     12  C1B       -9.4410   29.8490   26.8020 C.3   900  NDP900      0.3158
     13  N9A       -8.3540   28.9600   26.3800 N.pl3 900  NDP900     -0.1439
     14  C8A       -7.2680   28.5820   27.1100 C.3   900  NDP900      0.3377
     15  N7A       -6.5200   27.7290   26.3530 N.2   900  NDP900     -0.2095
     16  C5A       -7.1400   27.5800   25.1700 C.2   900  NDP900      0.2526
     17  C6A       -6.8380   26.8220   24.0320 C.2   900  NDP900      0.4393
     18  N6A       -5.7800   25.9640   24.0390 N.pl3 900  NDP900      0.2180
     19  N1A       -7.7250   26.8860   22.9920 N.2   900  NDP900      0.0021
     20  C2A       -8.8750   27.6660   23.0030 C.3   900  NDP900      0.5254
     21  N3A       -9.1700   28.3930   24.1310 N.2   900  NDP900     -0.0055
     22  C4A       -8.3160   28.3340   25.1790 C.2   900  NDP900      0.3518
     23  O3        -9.0580   34.2690   31.6370 O.3   900  NDP900     -0.2703
     24  PN        -9.6330   35.7800   31.7680 P.3   900  NDP900      0.2189
     25  O1N      -10.9370   35.9690   31.1730 O.2   900  NDP900     -0.5170
     26  O2N       -9.3840   36.0920   33.1940 O.3   900  NDP900     -0.4371
     27  O5D       -8.5010   36.5500   30.9400 O.3   900  NDP900     -0.3112
     28  C5D       -8.7970   37.1060   29.6630 C.3   900  NDP900      0.1813
     29  C4D       -7.5610   37.7260   29.0240 C.3   900  NDP900      0.1799
     30  O4D       -7.0930   38.7490   29.8720 O.3   900  NDP900     -0.3327
     31  C3D       -6.3940   36.7620   28.8290 C.3   900  NDP900      0.2158
     32  O3D       -5.7580   37.2200   27.6660 O.3   900  NDP900     -0.2175
     33  C2D       -5.5140   37.0060   30.0300 C.3   900  NDP900      0.2309
     34  O2D       -4.1750   36.6350   29.7500 O.3   900  NDP900     -0.2158
     35  C1D       -5.7140   38.5340   30.1820 C.3   900  NDP900      0.2263
     36  N1N       -5.4180   38.9630   31.5540 N.pl3 900  NDP900     -0.2787
     37  C2N       -5.9960   38.2650   32.5800 C.3   900  NDP900      0.1244
     38  C3N       -5.9290   38.7120   33.8920 C.2   900  NDP900      0.0544
     39  C7N       -6.5850   37.9060   34.9660 C.2   900  NDP900      0.2818
     40  O7N       -6.3200   38.2270   36.3120 O.2   900  NDP900     -0.2670
     41  N7N       -7.3900   36.8970   34.6400 N.am  900  NDP900     -0.0839
     42  C4N       -5.1920   39.9940   34.2340 C.2   900  NDP900      0.0033
     43  C5N       -4.5570   40.6770   33.0460 C.2   900  NDP900      0.0157
     44  C6N       -4.7150   40.1320   31.7660 C.2   900  NDP900      0.0633
     45  P2B      -11.8290   26.9910   28.0330 P.3   900  NDP900      0.5328
     46  O1X      -13.1000   26.7460   27.3250 O.2   900  NDP900     -0.2224
     47  O2X      -11.9830   27.2540   29.4930 O.3   900  NDP900     -0.1145
     48  O3X      -10.7970   25.8500   27.8400 O.3   900  NDP900     -0.1145
@<TRIPOS>BOND
     1    19    20    1
     2    19    17    2
     3    20    21    1
     4    17    18    1
     5    17    16    1
     6    21    22    2
     7    16    22    1
     8    16    15    2
     9    22    13    1
    10    15    14    1
    11    13    12    1
    12    13    14    1
    13    12     7    1
    14    12    10    1
    15    11    10    1
    16    11    45    1
    17    46    45    2
    18     7     6    1
    19     9     8    1
    20    32    31    1
    21    48    45    1
    22    10     8    1
    23    45    47    1
    24     6     8    1
    25     6     5    1
    26    31    29    1
    27    31    33    1
    28    29    28    1
    29    29    30    1
    30     5     4    1
    31    28    27    1
    32    34    33    1
    33    30    35    1
    34    33    35    1
    35    35    36    1
    36     4     1    1
    37    27    24    1
    38    25    24    2
    39    36    44    1
    40    36    37    1
    41    23    24    1
    42    23     1    1
    43    44    43    2
    44    24    26    1
    45     1     2    2
    46     1     3    1
    47    37    38    1
    48    43    42    1
    49    38    42    2
    50    38    39    1
    51    41    39   am
    52    39    40    2
