@<TRIPOS>MOLECULE
2ggu_MLR_A_1.pdb
 34 36 0 0 0
SMALL
GASTEIGER

@<TRIPOS>ATOM
      1  C1A       23.4760   -7.2680    4.5870 C.3   3505  MLR3505     0.3023
      2  C2A       23.1650   -8.6380    3.9260 C.3   3505  MLR3505     0.2433
      3  C3A       23.7880   -9.7760    4.7400 C.3   3505  MLR3505     0.2168
      4  C4A       25.3390   -9.5310    4.7250 C.3   3505  MLR3505     0.1804
      5  C5A       25.6400   -8.1210    5.4410 C.3   3505  MLR3505     0.1804
      6  C6A       27.1320   -7.7310    5.4880 C.3   3505  MLR3505     0.2141
      7  O1X       22.8650   -6.0030    3.7810 O.3   3505  MLR3505    -0.1869
      8  O2A       21.7310   -8.7390    3.8510 O.3   3505  MLR3505    -0.2148
      9  O3A       23.4690  -11.0270    4.0920 O.3   3505  MLR3505    -0.2175
     10  O4A       25.9640  -10.5560    5.4690 O.3   3505  MLR3505    -0.3257
     11  O5A       24.9400   -7.0770    4.7150 O.3   3505  MLR3505    -0.3237
     12  O6A       27.8630   -7.5290    4.1990 O.3   3505  MLR3505    -0.2176
     13  C1B       27.1170  -11.2950    4.7190 C.3   3505  MLR3505     0.2695
     14  C2B       26.9470  -12.8310    4.9250 C.3   3505  MLR3505     0.2404
     15  C3B       27.0300  -13.1650    6.4550 C.3   3505  MLR3505     0.2167
     16  C4B       28.4080  -12.7270    6.9900 C.3   3505  MLR3505     0.1804
     17  C5B       28.5840  -11.1570    6.7800 C.3   3505  MLR3505     0.1803
     18  C6B       29.9680  -10.6760    7.2900 C.3   3505  MLR3505     0.2141
     19  O2B       25.6810  -13.2150    4.3830 O.3   3505  MLR3505    -0.2149
     20  O3B       26.8740  -14.5970    6.6360 O.3   3505  MLR3505    -0.2175
     21  O4B       28.4960  -13.0450    8.4210 O.3   3505  MLR3505    -0.3257
     22  O5B       28.4630  -10.8620    5.3160 O.3   3505  MLR3505    -0.3257
     23  O6B       30.2060   -9.2720    7.1300 O.3   3505  MLR3505    -0.2176
     24  C1C       29.0870  -14.2090    8.9550 C.3   3505  MLR3505     0.2695
     25  C2C       28.1550  -14.7710   10.1100 C.3   3505  MLR3505     0.2406
     26  C3C       28.0600  -13.6920   11.2700 C.3   3505  MLR3505     0.2198
     27  C4C       29.5020  -13.4630   11.8140 C.3   3505  MLR3505     0.2144
     28  C5C       30.4230  -12.9240   10.6630 C.3   3505  MLR3505     0.1835
     29  C6C       31.8530  -12.7060   11.1400 C.3   3505  MLR3505     0.2142
     30  O2C       26.8770  -15.0360    9.5640 O.3   3505  MLR3505    -0.2149
     31  O3C       27.2350  -14.1960   12.3110 O.3   3505  MLR3505    -0.2174
     32  O4C       29.4730  -12.4970   12.8690 O.3   3505  MLR3505    -0.2176
     33  O5C       30.4420  -13.9080    9.5290 O.3   3505  MLR3505    -0.3256
     34  O6C       32.6270  -12.2230   10.0540 O.3   3505  MLR3505    -0.2176
@<TRIPOS>BOND
     1     7     1    1
     2     8     2    1
     3     2     1    1
     4     2     3    1
     5     9     3    1
     6    12     6    1
     7    19    14    1
     8     1    11    1
     9    11     5    1
    10    13    14    1
    11    13    22    1
    12    13    10    1
    13     4     3    1
    14     4     5    1
    15     4    10    1
    16    14    15    1
    17    22    17    1
    18     5     6    1
    19    15    20    1
    20    15    16    1
    21    17    16    1
    22    17    18    1
    23    16    21    1
    24    23    18    1
    25    21    24    1
    26    24    33    1
    27    24    25    1
    28    33    28    1
    29    30    25    1
    30    34    29    1
    31    25    26    1
    32    28    29    1
    33    28    27    1
    34    26    27    1
    35    26    31    1
    36    27    32    1
