@<TRIPOS>MOLECULE
2ggx_NPJ_A_1.pdb
 32 34 0 0 0
SMALL
GASTEIGER

@<TRIPOS>ATOM
      1  C1A       36.9130   53.9980    1.4270 C.3   700  NPJ700      0.2695
      2  C2A       38.1000   54.6440    0.6670 C.3   700  NPJ700      0.2406
      3  C3A       39.2360   53.5790    0.5300 C.3   700  NPJ700      0.2198
      4  C4A       39.6890   53.1750    1.9480 C.3   700  NPJ700      0.2144
      5  C5A       38.4590   52.5670    2.6910 C.3   700  NPJ700      0.1835
      6  C6A       38.8710   52.1710    4.1100 C.3   700  NPJ700      0.2142
      7  O1A       36.4610   52.8670    0.6530 O.3   700  NPJ700     -0.3257
      8  O2A       37.6500   55.0420   -0.6330 O.3   700  NPJ700     -0.2149
      9  O3A       40.3550   54.1430   -0.1670 O.3   700  NPJ700     -0.2174
     10  O4A       40.7430   52.1890    1.8420 O.3   700  NPJ700     -0.2176
     11  O5A       37.3720   53.5690    2.7720 O.3   700  NPJ700     -0.3256
     12  O6A       37.7220   51.6630    4.8010 O.3   700  NPJ700     -0.2176
     13  C1B       32.5130   51.6670   -0.5720 C.3   700  NPJ700      0.3218
     14  C2B       32.8660   53.1590   -0.6730 C.3   700  NPJ700      0.2540
     15  C3B       34.3920   53.3130   -0.6680 C.3   700  NPJ700      0.2180
     16  C4B       34.9400   52.7000    0.6420 C.3   700  NPJ700      0.1805
     17  C5B       34.5240   51.2090    0.6770 C.3   700  NPJ700      0.1814
     18  C6B       35.0510   50.5760    1.9660 C.3   700  NPJ700      0.2141
     19  O1B       32.9920   50.9400   -1.7130 O.3   700  NPJ700     -0.4505
     20  O2B       32.3270   53.7030   -1.8830 O.3   700  NPJ700     -0.2135
     21  O3B       34.7360   54.7050   -0.7490 O.3   700  NPJ700     -0.2175
     22  O5B       33.0700   51.0930    0.6540 O.3   700  NPJ700     -0.3158
     23  O6B       34.6790   49.1950    2.0080 O.3   700  NPJ700     -0.2176
     24  C1C       32.1040   47.2350   -3.6410 C.ar  700  NPJ700      0.1431
     25  C2C       31.7580   47.4590   -2.2620 C.ar  700  NPJ700      0.0272
     26  C3C       32.0580   48.6660   -1.6590 C.ar  700  NPJ700      0.0387
     27  C4C       32.7080   49.6960   -2.3900 C.ar  700  NPJ700      0.1415
     28  C5C       33.0620   49.5020   -3.7510 C.ar  700  NPJ700      0.0387
     29  C6C       32.7680   48.2900   -4.3770 C.ar  700  NPJ700      0.0272
     30  N1C       31.8020   46.0430   -4.2280 N.pl3 700  NPJ700      0.0577
     31  O2C       32.0850   45.8300   -5.3970 O.2   700  NPJ700     -0.1261
     32  O3C       31.2400   45.1670   -3.5870 O.2   700  NPJ700     -0.1261
@<TRIPOS>BOND
     1    31    30    2
     2    29    28   ar
     3    29    24   ar
     4    30    24    1
     5    30    32    2
     6    28    27   ar
     7    24    25   ar
     8    27    19    1
     9    27    26   ar
    10    25    26   ar
    11    20    14    1
    12    19    13    1
    13    21    15    1
    14    14    15    1
    15    14    13    1
    16    15    16    1
    17     8     2    1
    18    13    22    1
    19     9     3    1
    20     3     2    1
    21     3     4    1
    22    16     7    1
    23    16    17    1
    24     7     1    1
    25    22    17    1
    26     2     1    1
    27    17    18    1
    28     1    11    1
    29    10     4    1
    30     4     5    1
    31    18    23    1
    32     5    11    1
    33     5     6    1
    34     6    12    1
