@<TRIPOS>MOLECULE
2gh4_RAM_A_1.pdb
 11 11 0 0 0
SMALL
GASTEIGER

@<TRIPOS>ATOM
      1  C1        18.9390   29.8920   -4.0340 C.3   1001  RAM1001     0.3023
      2  C2        18.3880   30.3480   -2.6910 C.3   1001  RAM1001     0.2434
      3  C3        19.4230   31.2520   -2.0200 C.3   1001  RAM1001     0.2198
      4  C4        19.7980   32.3930   -2.9660 C.3   1001  RAM1001     0.2118
      5  C5        20.3370   31.8040   -4.2710 C.3   1001  RAM1001     0.1509
      6  C6        20.7190   32.9400   -5.2230 C.3   1001  RAM1001     0.0350
      7  O1        20.0690   29.0420   -3.8260 O.3   1001  RAM1001    -0.1869
      8  O2        17.1800   31.0990   -2.8880 O.3   1001  RAM1001    -0.2148
      9  O3        18.8950   31.7750   -0.8000 O.3   1001  RAM1001    -0.2174
     10  O4        20.7930   33.2130   -2.3480 O.3   1001  RAM1001    -0.2177
     11  O5        19.3160   30.9950   -4.8760 O.3   1001  RAM1001    -0.3264
@<TRIPOS>BOND
     1     6     5    1
     2    11     5    1
     3    11     1    1
     4     5     4    1
     5     1     7    1
     6     1     2    1
     7     4    10    1
     8     4     3    1
     9     8     2    1
    10     2     3    1
    11     3     9    1
