@<TRIPOS>MOLECULE
2gh4_GAD_A_1.pdb
 11 11 0 0 0
SMALL
GASTEIGER

@<TRIPOS>ATOM
      1  C1        16.1170   30.1690   -3.1340 C.3   1002  GAD1002     0.2413
      2  C2        14.8560   30.8600   -3.6560 C.3   1002  GAD1002     0.2297
      3  O2        15.1210   31.5470   -4.8810 O.3   1002  GAD1002    -0.2160
      4  C3        14.3050   31.8470   -2.6280 C.3   1002  GAD1002     0.2111
      5  O3        12.9630   32.1930   -2.9820 O.3   1002  GAD1002    -0.2153
      6  C4        14.3180   31.1850   -1.2490 C.2   1002  GAD1002     0.0526
      7  C5        15.0580   30.0340   -0.9990 C.2   1002  GAD1002     0.2164
      8  C6        15.0000   29.4240    0.4040 C.2   1002  GAD1002     0.4208
      9  O6A       14.1110   29.8350    1.1820 O.co2 1002  GAD1002    -0.2371
     10  O6B       15.8220   28.5280    0.6910 O.co2 1002  GAD1002    -0.2371
     11  O5        15.8060   29.4110   -1.9520 O.2   1002  GAD1002    -0.4664
@<TRIPOS>BOND
     1     3     2    1
     2     2     1    1
     3     2     4    1
     4     1    11    1
     5     5     4    1
     6     4     6    1
     7    11     7    1
     8     6     7    2
     9     7     8    1
    10     8    10   ar
    11     8     9   ar
