@<TRIPOS>MOLECULE
2gh5_ELI_A_1.pdb
 21 22 0 0 0
SMALL
GASTEIGER

@<TRIPOS>ATOM
      1  C1        80.2780   14.6530   56.6180 C.ar  958  ELI958      0.0001
      2  C2        80.9410   15.4230   55.5030 C.ar  958  ELI958      0.0033
      3  C3        82.2900   16.0360   55.7080 C.ar  958  ELI958      0.0417
      4  C4        83.0080   15.8550   57.1260 C.ar  958  ELI958      0.0417
      5  C5        82.3120   15.0760   58.2160 C.ar  958  ELI958      0.0033
      6  C6        80.9620   14.4810   57.9650 C.ar  958  ELI958      0.0001
      7  O7        82.4560   16.9990   53.4220 O.2   958  ELI958     -0.2869
      8  C10       83.0170   16.8500   54.5560 C.2   958  ELI958      0.1915
      9  C11       84.4500   16.4870   57.4000 C.2   958  ELI958      0.1915
     10  C14       85.1770   17.3250   56.2110 C.2   958  ELI958      0.0162
     11  C15       84.4920   17.4840   54.8860 C.2   958  ELI958      0.0159
     12  O16       85.0010   16.3370   58.5100 O.2   958  ELI958     -0.2869
     13  C17       86.5600   17.8860   56.6240 C.3   958  ELI958      0.0342
     14  C18       85.0930   18.2530   53.7350 C.3   958  ELI958      0.0294
     15  C19       84.3860   19.6830   53.9420 C.3   958  ELI958      0.0048
     16  C20       84.1970   21.1080   54.0370 C.3   958  ELI958      0.0009
     17  C23       82.8020   21.0240   53.9090 C.3   958  ELI958      0.0118
     18  C26       82.4870   22.3710   54.4960 C.3   958  ELI958      0.1141
     19  C43       81.1900   23.0220   54.4100 C.2   958  ELI958      0.3649
     20  O44       80.2090   22.7110   54.0370 O.co2 958  ELI958     -0.2457
     21  O45       81.3160   24.2440   54.9060 O.co2 958  ELI958     -0.2457
@<TRIPOS>BOND
     1     7     8    2
     2    14    15    1
     3    14    11    1
     4    17    16    1
     5    17    18    1
     6    15    16    1
     7    20    19   ar
     8    19    18    1
     9    19    21   ar
    10     8    11    1
    11     8     3    1
    12    11    10    2
    13     2     3   ar
    14     2     1   ar
    15     3     4   ar
    16    10    13    1
    17    10     9    1
    18     1     6   ar
    19     4     9    1
    20     4     5   ar
    21     9    12    2
    22     6     5   ar
