@<TRIPOS>MOLECULE
2gh6_CF3_A_1.pdb
 21 21 0 0 0
SMALL
GASTEIGER

@<TRIPOS>ATOM
      1  C4       -12.5170   13.4370   45.7870 C.ar  9452  CF39452     0.0166
      2  C2       -13.7240   13.7190   46.4410 C.ar  9452  CF39452     0.0013
      3  C1       -14.2230   15.0270   46.4180 C.ar  9452  CF39452     0.0001
      4  C3       -13.5100   16.0310   45.7400 C.ar  9452  CF39452     0.0013
      5  C5       -12.3040   15.7400   45.0860 C.ar  9452  CF39452     0.0166
      6  C14      -11.7830   14.4340   45.1020 C.ar  9452  CF39452     0.0734
      7  N1       -10.6030   14.1650   44.4560 N.am  9452  CF39452    -0.1792
      8  C12       -9.6230   13.3520   44.9270 C.2   9452  CF39452     0.2456
      9  O1        -9.6860   12.7510   45.9990 O.2   9452  CF39452    -0.2730
     10  C10       -8.3460   13.1550   44.0610 C.3   9452  CF39452     0.0872
     11  C8        -8.3740   11.7850   43.3510 C.3   9452  CF39452     0.0096
     12  C6        -7.0860   10.9750   43.4520 C.3   9452  CF39452     0.0005
     13  C7        -6.8920   10.2530   42.1110 C.3   9452  CF39452     0.0005
     14  C9        -6.2070    8.8860   42.2440 C.3   9452  CF39452     0.0081
     15  C11       -6.0660    8.3650   40.8190 C.3   9452  CF39452     0.0734
     16  C13       -4.9840    7.2870   40.5680 C.2   9452  CF39452     0.2440
     17  O2        -4.0070    7.1300   41.2920 O.2   9452  CF39452    -0.2873
     18  C15       -5.1270    6.4860   39.2780 C.3   9452  CF39452     0.4513
     19  F3        -6.3670    6.1790   38.9160 F     9452  CF39452    -0.1633
     20  F1        -4.6170    7.3310   38.3960 F     9452  CF39452    -0.1633
     21  F2        -4.3660    5.4280   39.1950 F     9452  CF39452    -0.1633
@<TRIPOS>BOND
     1    20    18    1
     2    19    18    1
     3    21    18    1
     4    18    16    1
     5    16    15    1
     6    16    17    2
     7    15    14    1
     8    13    14    1
     9    13    12    1
    10    11    12    1
    11    11    10    1
    12    10     8    1
    13     7     8   am
    14     7     6    1
    15     8     9    2
    16     5     6   ar
    17     5     4   ar
    18     6     1   ar
    19     4     3   ar
    20     1     2   ar
    21     3     2   ar
