@<TRIPOS>MOLECULE
2gh7_BTN_A_1.pdb
 16 17 0 0 0
SMALL
GASTEIGER

@<TRIPOS>ATOM
      1  C11       32.7730   18.1450   14.0450 C.2   5100  BTN5100     0.3649
      2  O11       33.7030   17.4480   13.5110 O.co2 5100  BTN5100    -0.2457
      3  O12       32.7260   19.4420   13.8670 O.co2 5100  BTN5100    -0.2457
      4  C10       31.7670   17.4900   14.9420 C.3   5100  BTN5100     0.1141
      5  C9        31.3330   16.1390   14.5830 C.3   5100  BTN5100     0.0118
      6  C8        30.5220   16.1550   13.2690 C.3   5100  BTN5100     0.0015
      7  C7        30.1950   14.7530   12.7960 C.3   5100  BTN5100     0.0129
      8  C2        29.1750   14.6230   11.7500 C.3   5100  BTN5100     0.0729
      9  S1        27.6110   15.2170   11.7390 S.3   5100  BTN5100    -0.1369
     10  C6        27.1720   14.6510   10.1750 C.3   5100  BTN5100     0.0848
     11  C5        27.8700   13.2950   10.0980 C.3   5100  BTN5100     0.1509
     12  N1        26.9820   12.2340   10.5670 N.2   5100  BTN5100    -0.1859
     13  C3        27.5330   11.6360   11.6670 C.1   5100  BTN5100     0.2386
     14  O3        26.9870   10.6840   12.2560 O.2   5100  BTN5100    -0.2023
     15  N2        28.7110   12.1630   11.9770 N.2   5100  BTN5100    -0.1860
     16  C4        29.0700   13.2600   11.0340 C.3   5100  BTN5100     0.1500
@<TRIPOS>BOND
     1    11    10    1
     2    11    12    1
     3    11    16    1
     4    10     9    1
     5    12    13    2
     6    16     8    1
     7    16    15    1
     8    13    15    2
     9    13    14    2
    10     9     8    1
    11     8     7    1
    12     7     6    1
    13     6     5    1
    14     2     1   ar
    15     3     1   ar
    16     1     4    1
    17     5     4    1
