@<TRIPOS>MOLECULE
2gh9_MLR_A_1.pdb
 34 36 0 0 0
SMALL
GASTEIGER

@<TRIPOS>ATOM
      1  C1A       21.9180   19.4720   18.0840 C.3   2913  MLR2913     0.3023
      2  C2A       21.2150   18.1540   17.7640 C.3   2913  MLR2913     0.2433
      3  C3A       21.2260   17.2600   18.9880 C.3   2913  MLR2913     0.2168
      4  C4A       22.6760   17.0360   19.4450 C.3   2913  MLR2913     0.1804
      5  C5A       23.3740   18.3710   19.7510 C.3   2913  MLR2913     0.1804
      6  C6A       24.8750   18.1690   20.0360 C.3   2913  MLR2913     0.2141
      7  O1X       21.1070   20.2000   19.0030 O.3   2913  MLR2913    -0.1869
      8  O2A       19.8710   18.3910   17.2900 O.3   2913  MLR2913    -0.2148
      9  O3A       20.5720   16.0050   18.7380 O.3   2913  MLR2913    -0.2175
     10  O4A       22.6620   16.3380   20.6780 O.3   2913  MLR2913    -0.3257
     11  O5A       23.2210   19.2480   18.6370 O.3   2913  MLR2913    -0.3237
     12  O6A       25.5480   19.4220   20.2650 O.3   2913  MLR2913    -0.2176
     13  C1B       23.3230   15.0620   20.6720 C.3   2913  MLR2913     0.2695
     14  C2B       22.3730   14.0280   21.2470 C.3   2913  MLR2913     0.2404
     15  C3B       22.1350   14.3280   22.7440 C.3   2913  MLR2913     0.2167
     16  C4B       23.4260   14.4860   23.5320 C.3   2913  MLR2913     0.1804
     17  C5B       24.3540   15.4740   22.8300 C.3   2913  MLR2913     0.1803
     18  C6B       25.7230   15.5230   23.5190 C.3   2913  MLR2913     0.2141
     19  O2B       21.1210   14.0860   20.5580 O.3   2913  MLR2913    -0.2149
     20  O3B       21.3320   13.3200   23.3190 O.3   2913  MLR2913    -0.2175
     21  O4B       23.1320   14.9410   24.8680 O.3   2913  MLR2913    -0.3257
     22  O5B       24.5310   15.1080   21.4420 O.3   2913  MLR2913    -0.3257
     23  O6B       26.3730   16.7840   23.3370 O.3   2913  MLR2913    -0.2176
     24  C1C       23.4320   13.9780   25.8730 C.3   2913  MLR2913     0.2695
     25  C2C       22.2720   14.0270   26.8500 C.3   2913  MLR2913     0.2406
     26  C3C       22.2410   15.3660   27.5690 C.3   2913  MLR2913     0.2198
     27  C4C       23.6020   15.6270   28.2020 C.3   2913  MLR2913     0.2144
     28  C5C       24.7480   15.5290   27.1840 C.3   2913  MLR2913     0.1835
     29  C6C       26.1420   15.6580   27.8160 C.3   2913  MLR2913     0.2142
     30  O2C       21.0270   13.8050   26.1610 O.3   2913  MLR2913    -0.2149
     31  O3C       21.2270   15.3560   28.5690 O.3   2913  MLR2913    -0.2174
     32  O4C       23.5620   16.9230   28.7980 O.3   2913  MLR2913    -0.2176
     33  O5C       24.6880   14.2620   26.5230 O.3   2913  MLR2913    -0.3256
     34  O6C       27.0840   16.0240   26.8010 O.3   2913  MLR2913    -0.2176
@<TRIPOS>BOND
     1     8     2    1
     2     2     1    1
     3     2     3    1
     4     1    11    1
     5     1     7    1
     6    11     5    1
     7     9     3    1
     8     3     4    1
     9     4     5    1
    10     4    10    1
    11     5     6    1
    12     6    12    1
    13    19    14    1
    14    13    10    1
    15    13    14    1
    16    13    22    1
    17    14    15    1
    18    22    17    1
    19    15    20    1
    20    15    16    1
    21    17    18    1
    22    17    16    1
    23    23    18    1
    24    16    21    1
    25    21    24    1
    26    24    33    1
    27    24    25    1
    28    30    25    1
    29    33    28    1
    30    34    29    1
    31    25    26    1
    32    28    29    1
    33    28    27    1
    34    26    27    1
    35    26    31    1
    36    27    32    1
