@<TRIPOS>MOLECULE
2gha_MLR_A_1.pdb
 34 36 0 0 0
SMALL
GASTEIGER

@<TRIPOS>ATOM
      1  C1A       25.1680   43.8860   94.4510 C.3   2913  MLR2913     0.3023
      2  C2A       23.9010   43.2800   95.0350 C.3   2913  MLR2913     0.2433
      3  C3A       23.2190   42.3150   94.0860 C.3   2913  MLR2913     0.2168
      4  C4A       22.9230   43.0140   92.7830 C.3   2913  MLR2913     0.1804
      5  C5A       24.2410   43.5530   92.2200 C.3   2913  MLR2913     0.1804
      6  C6A       24.0310   44.3690   90.9510 C.3   2913  MLR2913     0.2141
      7  O1X       26.0920   42.8550   94.3100 O.3   2913  MLR2913    -0.1869
      8  O2A       24.1640   42.6070   96.2680 O.3   2913  MLR2913    -0.2148
      9  O3A       21.9900   41.8850   94.6970 O.3   2913  MLR2913    -0.2175
     10  O4A       22.3080   42.1090   91.8720 O.3   2913  MLR2913    -0.3257
     11  O5A       24.8350   44.4330   93.1830 O.3   2913  MLR2913    -0.3237
     12  O6A       25.2780   44.5740   90.2870 O.3   2913  MLR2913    -0.2176
     13  C1B       21.0630   42.4910   91.2950 C.3   2913  MLR2913     0.2695
     14  C2B       20.0120   41.4420   91.6590 C.3   2913  MLR2913     0.2404
     15  C3B       20.3220   40.1090   90.9820 C.3   2913  MLR2913     0.2167
     16  C4B       20.5530   40.3170   89.4920 C.3   2913  MLR2913     0.1804
     17  C5B       21.5970   41.3960   89.2280 C.3   2913  MLR2913     0.1803
     18  C6B       21.7250   41.6740   87.7350 C.3   2913  MLR2913     0.2141
     19  O2B       19.9900   41.2440   93.0640 O.3   2913  MLR2913    -0.2149
     20  O3B       19.3020   39.1250   91.2160 O.3   2913  MLR2913    -0.2175
     21  O4B       21.0210   39.0910   88.9420 O.3   2913  MLR2913    -0.3257
     22  O5B       21.2160   42.6070   89.8830 O.3   2913  MLR2913    -0.3257
     23  O6B       22.9670   42.3200   87.4520 O.3   2913  MLR2913    -0.2176
     24  C1C       20.1080   38.2960   88.1930 C.3   2913  MLR2913     0.2695
     25  C2C       20.2570   36.8420   88.6370 C.3   2913  MLR2913     0.2406
     26  C3C       21.6330   36.2820   88.2600 C.3   2913  MLR2913     0.2198
     27  C4C       21.8810   36.5040   86.7740 C.3   2913  MLR2913     0.2144
     28  C5C       21.7310   37.9810   86.3950 C.3   2913  MLR2913     0.1835
     29  C6C       21.9900   38.2280   84.9140 C.3   2913  MLR2913     0.2142
     30  O2C       20.0100   36.7400   90.0580 O.3   2913  MLR2913    -0.2149
     31  O3C       21.7660   34.8990   88.5970 O.3   2913  MLR2913    -0.2174
     32  O4C       23.2100   36.0530   86.4920 O.3   2913  MLR2913    -0.2176
     33  O5C       20.4270   38.4750   86.7890 O.3   2913  MLR2913    -0.3256
     34  O6C       22.0230   39.6240   84.6140 O.3   2913  MLR2913    -0.2176
@<TRIPOS>BOND
     1    34    29    1
     2    29    28    1
     3    28    27    1
     4    28    33    1
     5    32    27    1
     6    27    26    1
     7    33    24    1
     8    23    18    1
     9    18    17    1
    10    24    25    1
    11    24    21    1
    12    26    31    1
    13    26    25    1
    14    25    30    1
    15    21    16    1
    16    17    16    1
    17    17    22    1
    18    16    15    1
    19    22    13    1
    20    12     6    1
    21     6     5    1
    22    15    20    1
    23    15    14    1
    24    13    14    1
    25    13    10    1
    26    14    19    1
    27    10     4    1
    28     5     4    1
    29     5    11    1
    30     4     3    1
    31    11     1    1
    32     3     9    1
    33     3     2    1
    34     7     1    1
    35     1     2    1
    36     2     8    1
