@<TRIPOS>MOLECULE
2ghc_HEM_X_1.pdb
 43 50 0 0 0
SMALL
GASTEIGER

@<TRIPOS>ATOM
      1  CHA       13.5200   57.4790   20.3720 C.2   251  HEM251      0.0000
      2  CHB       12.6480   54.8940   16.3930 C.2   251  HEM251      0.0000
      3  CHC       15.9800   51.7280   17.7280 C.2   251  HEM251      0.0000
      4  CHD       16.9440   54.3000   21.6560 C.2   251  HEM251      0.0000
      5  C1A       13.0070   57.0790   19.1620 C.ar  251  HEM251      0.0000
      6  C2A       12.0070   57.7800   18.3950 C.ar  251  HEM251      0.0000
      7  C3A       11.7550   57.0650   17.2910 C.ar  251  HEM251      0.0000
      8  C4A       12.5980   55.8910   17.3360 C.ar  251  HEM251      0.0000
      9  CMA       10.7570   57.4060   16.1590 C.3   251  HEM251      0.0000
     10  CAA       11.3730   59.1110   18.8310 C.3   251  HEM251      0.0000
     11  CBA       12.2640   60.3010   18.4910 C.3   251  HEM251      0.0000
     12  CGA       11.5640   61.5520   18.9630 C.2   251  HEM251      0.0000
     13  O1A       10.4720   61.8790   18.4230 O.co2 251  HEM251      0.0000
     14  O2A       12.0830   62.2400   19.8820 O.co2 251  HEM251      0.0000
     15  C1B       13.3970   53.7520   16.4530 C.2   251  HEM251      0.0000
     16  C2B       13.2680   52.5980   15.5940 C.2   251  HEM251      0.0000
     17  C3B       14.1790   51.7020   15.9790 C.2   251  HEM251      0.0000
     18  C4B       14.9170   52.2810   17.0780 C.2   251  HEM251      0.0000
     19  CMB       12.2370   52.4440   14.4620 C.3   251  HEM251      0.0000
     20  CAB       14.4220   50.2990   15.3940 C.2   251  HEM251      0.0000
     21  CBB       14.4520   49.2360   16.2160 C.2   251  HEM251      0.0000
     22  C1C       16.6230   52.2080   18.8380 C.ar  251  HEM251      0.0000
     23  C2C       17.8340   51.6770   19.4200 C.ar  251  HEM251      0.0000
     24  C3C       18.0980   52.3950   20.5180 C.ar  251  HEM251      0.0000
     25  C4C       17.0630   53.3820   20.6540 C.ar  251  HEM251      0.0000
     26  CMC       18.6440   50.5080   18.8240 C.3   251  HEM251      0.0000
     27  CAC       19.2590   52.2430   21.5150 C.2   251  HEM251      0.0000
     28  CBC       19.5480   51.0410   22.0250 C.2   251  HEM251      0.0000
     29  C1D       16.0420   55.3260   21.7320 C.2   251  HEM251      0.0000
     30  C2D       15.8180   56.1510   22.8830 C.2   251  HEM251      0.0000
     31  C3D       14.7730   57.1470   22.4960 C.2   251  HEM251      0.0000
     32  C4D       14.4450   56.8170   21.1340 C.2   251  HEM251      0.0000
     33  CMD       16.5070   56.0530   24.2350 C.3   251  HEM251      0.0000
     34  CAD       14.1820   58.2460   23.3880 C.3   251  HEM251      0.0000
     35  CBD       14.8160   59.5800   23.0200 C.3   251  HEM251      0.0000
     36  CGD       14.3660   60.6950   23.9320 C.2   251  HEM251      0.0000
     37  O1D       14.6340   61.8630   23.5660 O.co2 251  HEM251      0.0000
     38  O2D       13.7650   60.4340   25.0050 O.co2 251  HEM251      0.0000
     39  NA        13.3450   55.9340   18.4940 N.ar  251  HEM251      0.0000
     40  NB        14.4040   53.5220   17.3530 N.2   251  HEM251      0.0000
     41  NC        16.1880   53.2520   19.6080 N.ar  251  HEM251      0.0000
     42  ND        15.1910   55.7250   20.7130 N.2   251  HEM251      0.0000
     43 FE         14.8030   54.6290   19.0260 Fe    251  HEM251      0.0000
@<TRIPOS>BOND
     1    19    16    1
     2    20    17    1
     3    20    21    2
     4    16    17    2
     5    16    15    1
     6    17    18    1
     7     9     7    1
     8     2    15    1
     9     2     8    2
    10    15    40    2
    11    18    40    1
    12    18     3    2
    13     7     8   ar
    14     7     6   ar
    15     8    39   ar
    16    40    43    1
    17     3    22    1
    18     6    10    1
    19     6     5   ar
    20    13    12   ar
    21    11    10    1
    22    11    12    1
    23    39    43    1
    24    39     5   ar
    25    26    23    1
    26    22    23   ar
    27    22    41   ar
    28    12    14   ar
    29    43    41    1
    30    43    42    1
    31     5     1    2
    32    23    24   ar
    33    41    25   ar
    34     1    32    1
    35    24    25   ar
    36    24    27    1
    37    25     4    1
    38    42    32    2
    39    42    29    1
    40    32    31    1
    41    27    28    2
    42     4    29    2
    43    29    30    1
    44    31    30    2
    45    31    34    1
    46    30    33    1
    47    35    34    1
    48    35    36    1
    49    37    36   ar
    50    36    38   ar
