@<TRIPOS>MOLECULE
2ghd_HEM_X_1.pdb
 43 50 0 0 0
SMALL
GASTEIGER

@<TRIPOS>ATOM
      1  CHA       13.6480   57.7520   20.5450 C.2   251  HEM251      0.0000
      2  CHB       12.6510   55.1210   16.5950 C.2   251  HEM251      0.0000
      3  CHC       16.1690   52.0230   17.7410 C.2   251  HEM251      0.0000
      4  CHD       17.1140   54.5530   21.7490 C.2   251  HEM251      0.0000
      5  C1A       13.1090   57.3330   19.3500 C.ar  251  HEM251      0.0000
      6  C2A       12.0690   58.0150   18.6160 C.ar  251  HEM251      0.0000
      7  C3A       11.7970   57.2970   17.5210 C.ar  251  HEM251      0.0000
      8  C4A       12.6400   56.1250   17.5370 C.ar  251  HEM251      0.0000
      9  CMA       10.7580   57.6090   16.4180 C.3   251  HEM251      0.0000
     10  CAA       11.4420   59.3590   19.0570 C.3   251  HEM251      0.0000
     11  CBA       12.3310   60.5570   18.7260 C.3   251  HEM251      0.0000
     12  CGA       11.6490   61.8160   19.2150 C.2   251  HEM251      0.0000
     13  O1A       10.5450   62.1510   18.6880 O.co2 251  HEM251      0.0000
     14  O2A       12.1820   62.4760   20.1500 O.co2 251  HEM251      0.0000
     15  C1B       13.4370   53.9900   16.6190 C.2   251  HEM251      0.0000
     16  C2B       13.2800   52.8130   15.8010 C.2   251  HEM251      0.0000
     17  C3B       14.2350   51.9370   16.1200 C.2   251  HEM251      0.0000
     18  C4B       15.0520   52.5480   17.1460 C.2   251  HEM251      0.0000
     19  CMB       12.1700   52.6130   14.7620 C.3   251  HEM251      0.0000
     20  CAB       14.4170   50.5270   15.5180 C.2   251  HEM251      0.0000
     21  CBB       14.4470   49.4910   16.3730 C.2   251  HEM251      0.0000
     22  C1C       16.7910   52.4970   18.8730 C.ar  251  HEM251      0.0000
     23  C2C       17.9890   51.9570   19.4720 C.ar  251  HEM251      0.0000
     24  C3C       18.2460   52.6540   20.5860 C.ar  251  HEM251      0.0000
     25  C4C       17.2250   53.6570   20.7300 C.ar  251  HEM251      0.0000
     26  CMC       18.7930   50.7810   18.8730 C.3   251  HEM251      0.0000
     27  CAC       19.3950   52.4760   21.5870 C.2   251  HEM251      0.0000
     28  CBC       19.7110   51.2730   22.0750 C.2   251  HEM251      0.0000
     29  C1D       16.2040   55.5770   21.8260 C.2   251  HEM251      0.0000
     30  C2D       16.0040   56.3800   22.9900 C.2   251  HEM251      0.0000
     31  C3D       14.9470   57.3830   22.6290 C.2   251  HEM251      0.0000
     32  C4D       14.5880   57.0770   21.2700 C.2   251  HEM251      0.0000
     33  CMD       16.7140   56.2570   24.3350 C.3   251  HEM251      0.0000
     34  CAD       14.3760   58.4730   23.5450 C.3   251  HEM251      0.0000
     35  CBD       14.9590   59.8440   23.2020 C.3   251  HEM251      0.0000
     36  CGD       14.5150   60.9360   24.1460 C.2   251  HEM251      0.0000
     37  O1D       14.7830   62.1090   23.7840 O.co2 251  HEM251      0.0000
     38  O2D       13.9220   60.6490   25.2170 O.co2 251  HEM251      0.0000
     39  NA        13.4220   56.1860   18.6710 N.ar  251  HEM251      0.0000
     40  NB        14.5250   53.7860   17.4290 N.2   251  HEM251      0.0000
     41  NC        16.3660   53.5310   19.6730 N.ar  251  HEM251      0.0000
     42  ND        15.3310   55.9940   20.8370 N.2   251  HEM251      0.0000
     43 FE         14.8640   54.8420   19.1970 Fe    251  HEM251      0.0000
@<TRIPOS>BOND
     1    19    16    1
     2    20    17    1
     3    20    21    2
     4    16    17    2
     5    16    15    1
     6    17    18    1
     7     9     7    1
     8     2    15    1
     9     2     8    2
    10    15    40    2
    11    18    40    1
    12    18     3    2
    13    40    43    1
    14     7     8   ar
    15     7     6   ar
    16     8    39   ar
    17     3    22    1
    18     6    10    1
    19     6     5   ar
    20    39    43    1
    21    39     5   ar
    22    13    12   ar
    23    11    10    1
    24    11    12    1
    25    26    23    1
    26    22    23   ar
    27    22    41   ar
    28    43    41    1
    29    43    42    1
    30    12    14   ar
    31     5     1    2
    32    23    24   ar
    33    41    25   ar
    34     1    32    1
    35    24    25   ar
    36    24    27    1
    37    25     4    1
    38    42    32    2
    39    42    29    1
    40    32    31    1
    41    27    28    2
    42     4    29    2
    43    29    30    1
    44    31    30    2
    45    31    34    1
    46    30    33    1
    47    35    34    1
    48    35    36    1
    49    37    36   ar
    50    36    38   ar
