@<TRIPOS>MOLECULE
2ghe_HEM_X_1.pdb
 43 50 0 0 0
SMALL
GASTEIGER

@<TRIPOS>ATOM
      1  CHA       13.3720   57.5810   20.3540 C.2   251  HEM251      0.0000
      2  CHB       12.4350   54.9380   16.3800 C.2   251  HEM251      0.0000
      3  CHC       15.8500   51.8180   17.7580 C.2   251  HEM251      0.0000
      4  CHD       16.8620   54.4350   21.6670 C.2   251  HEM251      0.0000
      5  C1A       12.8460   57.1550   19.1510 C.ar  251  HEM251      0.0000
      6  C2A       11.8870   57.8760   18.3500 C.ar  251  HEM251      0.0000
      7  C3A       11.6110   57.1490   17.2550 C.ar  251  HEM251      0.0000
      8  C4A       12.4110   55.9470   17.3180 C.ar  251  HEM251      0.0000
      9  CMA       10.6330   57.5300   16.1080 C.3   251  HEM251      0.0000
     10  CAA       11.2780   59.2410   18.7300 C.3   251  HEM251      0.0000
     11  CBA       12.2130   60.4170   18.4560 C.3   251  HEM251      0.0000
     12  CGA       11.4870   61.6260   19.0040 C.2   251  HEM251      0.0000
     13  O1A       10.3780   61.9350   18.4820 O.co2 251  HEM251      0.0000
     14  O2A       12.0030   62.2770   19.9640 O.co2 251  HEM251      0.0000
     15  C1B       13.2190   53.8160   16.4800 C.2   251  HEM251      0.0000
     16  C2B       13.0700   52.6190   15.6810 C.2   251  HEM251      0.0000
     17  C3B       14.0050   51.7460   16.0590 C.2   251  HEM251      0.0000
     18  C4B       14.7740   52.3670   17.1250 C.2   251  HEM251      0.0000
     19  CMB       12.0090   52.4120   14.5860 C.3   251  HEM251      0.0000
     20  CAB       14.2270   50.3260   15.5110 C.2   251  HEM251      0.0000
     21  CBB       14.3610   49.3390   16.4160 C.2   251  HEM251      0.0000
     22  C1C       16.4850   52.3240   18.8650 C.ar  251  HEM251      0.0000
     23  C2C       17.6910   51.7970   19.4420 C.ar  251  HEM251      0.0000
     24  C3C       17.9800   52.5120   20.5330 C.ar  251  HEM251      0.0000
     25  C4C       16.9470   53.5100   20.6670 C.ar  251  HEM251      0.0000
     26  CMC       18.4660   50.6020   18.8210 C.3   251  HEM251      0.0000
     27  CAC       19.1790   52.3510   21.4980 C.2   251  HEM251      0.0000
     28  CBC       19.5340   51.1280   21.9100 C.2   251  HEM251      0.0000
     29  C1D       15.9410   55.4360   21.7120 C.2   251  HEM251      0.0000
     30  C2D       15.7060   56.2490   22.8830 C.2   251  HEM251      0.0000
     31  C3D       14.6230   57.2270   22.4700 C.2   251  HEM251      0.0000
     32  C4D       14.3080   56.9090   21.0950 C.2   251  HEM251      0.0000
     33  CMD       16.4080   56.1270   24.2520 C.3   251  HEM251      0.0000
     34  CAD       13.9860   58.3400   23.3280 C.3   251  HEM251      0.0000
     35  CBD       14.7990   59.6170   23.1020 C.3   251  HEM251      0.0000
     36  CGD       14.2760   60.7450   23.9790 C.2   251  HEM251      0.0000
     37  O1D       14.4890   61.9270   23.6090 O.co2 251  HEM251      0.0000
     38  O2D       13.6500   60.4840   25.0450 O.co2 251  HEM251      0.0000
     39  NA        13.1520   55.9800   18.4870 N.ar  251  HEM251      0.0000
     40  NB        14.2740   53.6360   17.3510 N.2   251  HEM251      0.0000
     41  NC        16.0480   53.3760   19.6290 N.ar  251  HEM251      0.0000
     42  ND        15.0900   55.8410   20.6790 N.2   251  HEM251      0.0000
     43 FE         14.6170   54.6720   19.0560 Fe    251  HEM251      0.0000
@<TRIPOS>BOND
     1    19    16    1
     2    20    17    1
     3    20    21    2
     4    16    17    2
     5    16    15    1
     6    17    18    1
     7     9     7    1
     8     2    15    1
     9     2     8    2
    10    15    40    2
    11    18    40    1
    12    18     3    2
    13     7     8   ar
    14     7     6   ar
    15     8    39   ar
    16    40    43    1
    17     3    22    1
    18     6    10    1
    19     6     5   ar
    20    11    10    1
    21    11    12    1
    22    13    12   ar
    23    39    43    1
    24    39     5   ar
    25    26    23    1
    26    22    23   ar
    27    22    41   ar
    28    12    14   ar
    29    43    41    1
    30    43    42    1
    31     5     1    2
    32    23    24   ar
    33    41    25   ar
    34     1    32    1
    35    24    25   ar
    36    24    27    1
    37    25     4    1
    38    42    32    2
    39    42    29    1
    40    32    31    1
    41    27    28    2
    42     4    29    2
    43    29    30    1
    44    31    30    2
    45    31    34    1
    46    30    33    1
    47    35    34    1
    48    35    36    1
    49    37    36   ar
    50    36    38   ar
