@<TRIPOS>MOLECULE
2ghg_A53_A_1.pdb
 36 41 0 0 0
SMALL
GASTEIGER

@<TRIPOS>ATOM
      1  C1        -1.5120    8.8540  -19.4980 C.2     1  A531        0.0464
      2  C2        -0.5240    7.9510  -19.4040 C.3     1  A531        0.0692
      3  C3         0.6660    8.4330  -20.1190 C.2     1  A531        0.0004
      4  C4         0.4120    9.6370  -20.6520 C.2     1  A531        0.0939
      5  N5        -0.9730    9.9680  -20.2880 N.2     1  A531       -0.2521
      6  C6        -2.8710    8.7330  -18.9380 C.3     1  A531        0.0809
      7  C7        -4.0650    9.6030  -19.2120 C.2     1  A531        0.0805
      8  C8        -4.2370   10.8150  -20.0870 C.1     1  A531        0.2010
      9  N9        -5.4970   11.2360  -19.9790 N.2     1  A531       -0.3331
     10  C10       -6.2450   10.4450  -19.0990 C.ar    1  A531        0.1448
     11  C11       -5.3760    9.3890  -18.5870 C.ar    1  A531        0.0388
     12  O12       -3.3670   11.3160  -20.7840 O.2     1  A531       -0.2096
     13  C13       -7.6270   10.4360  -18.6100 C.ar    1  A531        0.0330
     14  C14       -8.1090    9.4740  -17.6950 C.ar    1  A531        0.0027
     15  C15       -7.2810    8.4480  -17.1950 C.ar    1  A531        0.0018
     16  C16       -5.9370    8.4230  -17.6440 C.ar    1  A531        0.0031
     17  C17       -7.8010    7.4050  -16.2130 C.ar    1  A531        0.0222
     18  C18       -9.1680    7.2990  -15.8500 C.ar    1  A531        0.0991
     19  N19       -9.6210    6.3530  -14.9690 N.ar    1  A531       -0.2391
     20  C20       -8.7520    5.4710  -14.4030 C.ar    1  A531        0.1356
     21  C21       -7.3730    5.4890  -14.6950 C.ar    1  A531        0.1577
     22  C22       -6.9190    6.4760  -15.6100 C.ar    1  A531        0.0401
     23  O23       -6.5510    4.5370  -14.0640 O.3     1  A531       -0.4723
     24  C24       -5.8870    3.5940  -14.9070 C.3     1  A531        0.2246
     25  C25       -6.6830    2.2860  -14.9220 C.3     1  A531        0.1397
     26  C26       -5.7890    1.0860  -15.2840 C.3     1  A531        0.0508
     27  N27       -7.7910    2.4220  -15.8700 N.3     1  A531       -0.1286
     28  C28       -5.6500    0.1630  -14.0850 C.2     1  A531       -0.0003
     29  C29       -6.7010   -0.4440  -13.3830 C.2     1  A531        0.0946
     30  N30       -6.2030   -1.2000  -12.3760 N.2     1  A531       -0.2442
     31  C31       -4.8170   -1.1340  -12.3590 C.2     1  A531        0.0804
     32  C32       -4.4260   -0.2710  -13.4460 C.2     1  A531        0.0113
     33  C33       -3.8460   -1.7180  -11.5450 C.2     1  A531        0.0148
     34  C34       -2.4660   -1.4600  -11.7800 C.2     1  A531       -0.0199
     35  C35       -2.0750   -0.6060  -12.8510 C.3     1  A531        0.0521
     36  C36       -3.0700   -0.0110  -13.6790 C.2     1  A531       -0.0202
@<TRIPOS>BOND
     1    12     8    2
     2     4     5    1
     3     4     3    2
     4     5     1    2
     5     3     2    1
     6     8     9    2
     7     8     7    1
     8     9    10    2
     9     1     2    1
    10     1     6    1
    11     7     6    1
    12     7    11    2
    13    10    13   ar
    14    10    11   ar
    15    13    14   ar
    16    11    16   ar
    17    14    15   ar
    18    16    15   ar
    19    15    17    1
    20    17    18   ar
    21    17    22   ar
    22    27    25    1
    23    18    19   ar
    24    22    21   ar
    25    26    25    1
    26    26    28    1
    27    19    20   ar
    28    25    24    1
    29    24    23    1
    30    21    20   ar
    31    21    23    1
    32    28    32    1
    33    28    29    2
    34    36    32    2
    35    36    35    1
    36    32    31    1
    37    29    30    1
    38    35    34    1
    39    30    31    2
    40    31    33    1
    41    34    33    2
