@<TRIPOS>MOLECULE
2ghh_HEM_X_1.pdb
 43 50 0 0 0
SMALL
GASTEIGER

@<TRIPOS>ATOM
      1  CHA       13.2600   58.0640   20.2620 C.2   251  HEM251      0.0000
      2  CHB       12.3320   55.5710   16.1690 C.2   251  HEM251      0.0000
      3  CHC       15.4180   52.1630   17.6500 C.2   251  HEM251      0.0000
      4  CHD       16.7580   54.8920   21.4330 C.2   251  HEM251      0.0000
      5  C1A       12.7570   57.6800   19.0310 C.ar  251  HEM251      0.0000
      6  C2A       11.7900   58.4030   18.2500 C.ar  251  HEM251      0.0000
      7  C3A       11.5160   57.7400   17.1170 C.ar  251  HEM251      0.0000
      8  C4A       12.3040   56.5350   17.1430 C.ar  251  HEM251      0.0000
      9  CMA       10.5640   58.1370   15.9540 C.3   251  HEM251      0.0000
     10  CAA       11.2460   59.7640   18.7110 C.3   251  HEM251      0.0000
     11  CBA       12.0300   60.8860   18.0500 C.3   251  HEM251      0.0000
     12  CGA       11.3840   62.1430   18.5820 C.2   251  HEM251      0.0000
     13  O1A       10.2930   62.5310   18.1160 O.co2 251  HEM251      0.0000
     14  O2A       11.9330   62.7590   19.5050 O.co2 251  HEM251      0.0000
     15  C1B       13.0370   54.3910   16.2340 C.2   251  HEM251      0.0000
     16  C2B       12.9180   53.2710   15.3210 C.2   251  HEM251      0.0000
     17  C3B       13.7550   52.3040   15.7440 C.2   251  HEM251      0.0000
     18  C4B       14.4460   52.8110   16.9230 C.2   251  HEM251      0.0000
     19  CMB       11.9510   53.2290   14.1290 C.3   251  HEM251      0.0000
     20  CAB       14.0030   50.9020   15.1390 C.2   251  HEM251      0.0000
     21  CBB       14.0760   49.8240   15.9630 C.2   251  HEM251      0.0000
     22  C1C       16.1450   52.6680   18.6940 C.ar  251  HEM251      0.0000
     23  C2C       17.3920   52.1400   19.1980 C.ar  251  HEM251      0.0000
     24  C3C       17.7660   52.8990   20.2560 C.ar  251  HEM251      0.0000
     25  C4C       16.7600   53.9210   20.4450 C.ar  251  HEM251      0.0000
     26  CMC       18.0850   50.9350   18.5320 C.3   251  HEM251      0.0000
     27  CAC       19.0240   52.7940   21.1580 C.2   251  HEM251      0.0000
     28  CBC       19.4050   51.6100   21.6780 C.2   251  HEM251      0.0000
     29  C1D       15.8770   55.9400   21.5630 C.2   251  HEM251      0.0000
     30  C2D       15.7370   56.8070   22.7170 C.2   251  HEM251      0.0000
     31  C3D       14.6330   57.8000   22.3500 C.2   251  HEM251      0.0000
     32  C4D       14.2220   57.4190   21.0170 C.2   251  HEM251      0.0000
     33  CMD       16.5320   56.7330   24.0360 C.3   251  HEM251      0.0000
     34  CAD       14.0570   58.9600   23.1810 C.3   251  HEM251      0.0000
     35  CBD       14.7440   60.2500   22.7320 C.3   251  HEM251      0.0000
     36  CGD       14.3140   61.3710   23.6540 C.2   251  HEM251      0.0000
     37  O1D       14.5970   62.5550   23.3050 O.co2 251  HEM251      0.0000
     38  O2D       13.7160   61.0770   24.7380 O.co2 251  HEM251      0.0000
     39  NA        13.0390   56.5340   18.3260 N.ar  251  HEM251      0.0000
     40  NB        13.9820   54.0720   17.1800 N.2   251  HEM251      0.0000
     41  NC        15.7950   53.7450   19.4730 N.ar  251  HEM251      0.0000
     42  ND        14.9720   56.3400   20.5990 N.2   251  HEM251      0.0000
     43 FE         14.4280   55.1490   18.8770 Fe    251  HEM251      0.0000
@<TRIPOS>BOND
     1    19    16    1
     2    20    17    1
     3    20    21    2
     4    16    17    2
     5    16    15    1
     6    17    18    1
     7     9     7    1
     8     2    15    1
     9     2     8    2
    10    15    40    2
    11    18    40    1
    12    18     3    2
    13     7     8   ar
    14     7     6   ar
    15     8    39   ar
    16    40    43    1
    17     3    22    1
    18    11    12    1
    19    11    10    1
    20    13    12   ar
    21     6    10    1
    22     6     5   ar
    23    39    43    1
    24    39     5   ar
    25    26    23    1
    26    12    14   ar
    27    22    23   ar
    28    22    41   ar
    29    43    41    1
    30    43    42    1
    31     5     1    2
    32    23    24   ar
    33    41    25   ar
    34    24    25   ar
    35    24    27    1
    36     1    32    1
    37    25     4    1
    38    42    32    2
    39    42    29    1
    40    32    31    1
    41    27    28    2
    42     4    29    2
    43    29    30    1
    44    31    30    2
    45    31    34    1
    46    30    33    1
    47    35    34    1
    48    35    36    1
    49    37    36   ar
    50    36    38   ar
