@<TRIPOS>MOLECULE
2ghk_HEM_X_1.pdb
 43 50 0 0 0
SMALL
GASTEIGER

@<TRIPOS>ATOM
      1  CHA       13.6470   56.7330   20.3130 C.2   251  HEM251      0.0000
      2  CHB       12.6190   54.2510   16.2870 C.2   251  HEM251      0.0000
      3  CHC       15.9720   50.9210   17.4810 C.2   251  HEM251      0.0000
      4  CHD       17.0260   53.4500   21.4560 C.2   251  HEM251      0.0000
      5  C1A       13.1060   56.3490   19.1030 C.ar  251  HEM251      0.0000
      6  C2A       12.1030   57.0850   18.3830 C.ar  251  HEM251      0.0000
      7  C3A       11.8070   56.4090   17.2630 C.ar  251  HEM251      0.0000
      8  C4A       12.6290   55.2220   17.2550 C.ar  251  HEM251      0.0000
      9  CMA       10.7880   56.7780   16.1530 C.3   251  HEM251      0.0000
     10  CAA       11.5270   58.4320   18.8780 C.3   251  HEM251      0.0000
     11  CBA       12.4480   59.5820   18.4760 C.3   251  HEM251      0.0000
     12  CGA       11.8220   60.8620   19.0010 C.2   251  HEM251      0.0000
     13  O1A       10.6940   61.2220   18.5380 O.co2 251  HEM251      0.0000
     14  O2A       12.4050   61.5020   19.9320 O.co2 251  HEM251      0.0000
     15  C1B       13.4030   53.1270   16.2760 C.2   251  HEM251      0.0000
     16  C2B       13.3510   52.0710   15.2790 C.2   251  HEM251      0.0000
     17  C3B       14.2860   51.1610   15.6040 C.2   251  HEM251      0.0000
     18  C4B       14.9530   51.5960   16.8200 C.2   251  HEM251      0.0000
     19  CMB       12.3770   52.0490   14.0830 C.3   251  HEM251      0.0000
     20  CAB       14.6160   49.8570   14.8660 C.3   251  HEM251      0.0000
     21  CBB       14.3900   48.7600   15.5930 C.3   251  HEM251      0.0000
     22  C1C       16.5840   51.2990   18.6590 C.ar  251  HEM251      0.0000
     23  C2C       17.7140   50.6610   19.3130 C.ar  251  HEM251      0.0000
     24  C3C       18.0060   51.3840   20.4130 C.ar  251  HEM251      0.0000
     25  C4C       17.0680   52.4920   20.4710 C.ar  251  HEM251      0.0000
     26  CMC       18.4110   49.3750   18.7960 C.3   251  HEM251      0.0000
     27  CAC       19.1210   51.1230   21.4670 C.2   251  HEM251      0.0000
     28  CBC       19.3590   49.8800   21.9360 C.2   251  HEM251      0.0000
     29  C1D       16.1570   54.4890   21.6010 C.2   251  HEM251      0.0000
     30  C2D       15.9930   55.2780   22.7970 C.2   251  HEM251      0.0000
     31  C3D       14.9290   56.3010   22.4310 C.2   251  HEM251      0.0000
     32  C4D       14.5640   56.0290   21.0600 C.2   251  HEM251      0.0000
     33  CMD       16.7200   55.1040   24.1500 C.3   251  HEM251      0.0000
     34  CAD       14.3390   57.4130   23.3190 C.3   251  HEM251      0.0000
     35  CBD       14.9910   58.7250   22.8970 C.3   251  HEM251      0.0000
     36  CGD       14.6130   59.8570   23.8190 C.2   251  HEM251      0.0000
     37  O1D       14.9640   60.9980   23.4860 O.co2 251  HEM251      0.0000
     38  O2D       14.0100   59.6230   24.8860 O.co2 251  HEM251      0.0000
     39  NA        13.4000   55.2110   18.3950 N.ar  251  HEM251      0.0000
     40  NB        14.3780   52.8030   17.1850 N.2   251  HEM251      0.0000
     41  NC        16.2200   52.4040   19.3900 N.ar  251  HEM251      0.0000
     42  ND        15.3030   54.9700   20.6190 N.2   251  HEM251      0.0000
     43 FE         14.8180   53.7840   18.9240 Fe    251  HEM251      0.0000
@<TRIPOS>BOND
     1    19    16    1
     2    20    21    1
     3    20    17    1
     4    16    17    2
     5    16    15    1
     6    17    18    1
     7     9     7    1
     8    15     2    1
     9    15    40    2
    10     2     8    2
    11    18    40    1
    12    18     3    2
    13    40    43    1
    14     8     7   ar
    15     8    39   ar
    16     7     6   ar
    17     3    22    1
    18     6    10    1
    19     6     5   ar
    20    39    43    1
    21    39     5   ar
    22    11    10    1
    23    11    12    1
    24    13    12   ar
    25    22    23   ar
    26    22    41   ar
    27    26    23    1
    28    43    41    1
    29    43    42    1
    30    12    14   ar
    31     5     1    2
    32    23    24   ar
    33    41    25   ar
    34     1    32    1
    35    24    25   ar
    36    24    27    1
    37    25     4    1
    38    42    32    2
    39    42    29    1
    40    32    31    1
    41     4    29    2
    42    27    28    2
    43    29    30    1
    44    31    30    2
    45    31    34    1
    46    30    33    1
    47    35    34    1
    48    35    36    1
    49    37    36   ar
    50    36    38   ar
