@<TRIPOS>MOLECULE
2ghl_LIB_A_1.pdb
 32 34 0 0 0
SMALL
GASTEIGER

@<TRIPOS>ATOM
      1  N1        -3.5670    0.1040   20.1890 N.am  401  LIB401     -0.1942
      2  C4        -5.5790   -0.1830   16.5440 C.ar  401  LIB401      0.1388
      3  C5        -5.5530   -0.3020   18.9490 C.ar  401  LIB401      0.0185
      4  C6        -3.5320    0.3250   17.7690 C.ar  401  LIB401      0.0185
      5  C7        -4.2290    0.2070   16.5680 C.ar  401  LIB401      0.0382
      6  C8        -6.2460   -0.4510   17.7510 C.ar  401  LIB401      0.0382
      7  C20       -2.3620    2.3560   22.6660 C.ar  401  LIB401      0.0855
      8  C22       -1.2790    4.5320   24.0170 C.ar  401  LIB401      0.0010
      9  C24       -2.7580    2.6580   23.9640 C.ar  401  LIB401      0.0730
     10  C26       -0.8840    4.2490   22.7080 C.ar  401  LIB401      0.0014
     11 CL28       -3.9680    1.6500   24.7630 Cl    401  LIB401     -0.0809
     12  C25       -2.2180    3.7260   24.6580 C.ar  401  LIB401      0.0127
     13  C23       -1.4210    3.1570   22.0230 C.ar  401  LIB401      0.0175
     14  N19       -2.9570    1.2510   22.0500 N.am  401  LIB401     -0.1608
     15  C1        -3.2750    1.2490   20.7700 C.2   401  LIB401      0.3369
     16  O18       -3.3030    2.2710   20.1190 O.2   401  LIB401     -0.2496
     17  C2        -4.2200    0.0560   18.9600 C.ar  401  LIB401      0.0622
     18  O13       -6.2750   -0.3600   15.3540 O.3   401  LIB401     -0.4714
     19  C14       -5.6040   -0.7890   14.1610 C.3   401  LIB401      0.2525
     20  C3        -3.2590   -1.1730   20.7370 C.2   401  LIB401      0.2085
     21  C32       -3.2620   -2.3070   19.9470 C.2   401  LIB401      0.0709
     22  C37       -3.0490   -3.5430   20.5150 C.2   401  LIB401      0.1158
     23  N38       -2.8140   -3.6420   21.8220 N.2   401  LIB401     -0.1685
     24  C34       -2.7740   -2.5620   22.5730 C.1   401  LIB401      0.1665
     25  N33       -3.0150   -1.3360   22.0350 N.2   401  LIB401     -0.3202
     26  N35       -2.5090   -2.7440   23.8620 N.pl3 401  LIB401     -0.1613
     27  C40       -2.2610   -1.6550   24.8180 C.3   401  LIB401      0.1325
     28  C43       -2.8020   -2.1540   26.1600 C.3   401  LIB401      0.0269
     29  C42       -0.7790   -1.2600   24.9480 C.3   401  LIB401      0.1457
     30  C47        0.0100   -2.4340   25.4400 C.3   401  LIB401      0.0347
     31  C46       -0.2050   -0.7260   23.6110 C.3   401  LIB401      0.0347
     32  O45       -0.6300   -0.2350   25.9690 O.3   401  LIB401     -0.2239
@<TRIPOS>BOND
     1    19    18    1
     2    18     2    1
     3     2     5   ar
     4     2     6   ar
     5     5     4   ar
     6     6     3   ar
     7     4    17   ar
     8     3    17   ar
     9    17     1    1
    10    21    22    2
    11    21    20    1
    12    16    15    2
    13     1    20    1
    14     1    15   am
    15    22    23    1
    16    20    25    2
    17    15    14   am
    18    23    24    2
    19    13     7   ar
    20    13    10   ar
    21    25    24    2
    22    14     7    1
    23    24    26    1
    24     7     9   ar
    25    10     8   ar
    26    31    29    1
    27    26    27    1
    28     9    12   ar
    29     9    11    1
    30     8    12   ar
    31    27    29    1
    32    27    28    1
    33    29    30    1
    34    29    32    1
