@<TRIPOS>MOLECULE
2ghm_LIC_A_1.pdb
 33 35 0 0 0
SMALL
GASTEIGER

@<TRIPOS>ATOM
      1  N1         3.5510   -0.8320   20.4750 N.am  353  LIC353     -0.1945
      2  C7         1.9490   -3.2700   22.6430 C.3   353  LIC353      0.1440
      3  C13        2.9090   -5.5540   22.2310 C.ar  353  LIC353     -0.0017
      4  C15        4.6480   -5.3020   24.3830 C.ar  353  LIC353      0.0111
      5  C21        5.3000   -0.6520   16.7390 C.ar  353  LIC353      0.1388
      6  C22        5.4630   -0.5120   19.1180 C.ar  353  LIC353      0.0185
      7  C24        3.9440   -0.9670   16.8260 C.ar  353  LIC353      0.0382
      8 CL16        3.8120   -2.7800   25.0720 Cl    353  LIC353     -0.0825
      9  C12        3.7710   -4.2660   24.0680 C.ar  353  LIC353      0.0554
     10  C11        4.6380   -6.4780   23.6390 C.ar  353  LIC353      0.0008
     11  C14        3.7780   -6.5900   22.5550 C.ar  353  LIC353     -0.0002
     12  C9         2.8960   -4.3930   22.9970 C.ar  353  LIC353      0.0101
     13  N5         2.7480   -2.1330   22.2110 N.am  353  LIC353     -0.1830
     14  C1         3.1910   -2.0050   20.9720 C.2   353  LIC353      0.3330
     15  O4         3.3020   -2.9660   20.2370 O.2   353  LIC353     -0.2500
     16  C2         4.1120   -0.8160   19.1990 C.ar  353  LIC353      0.0621
     17  C25        6.0590   -0.4010   17.8740 C.ar  353  LIC353      0.0382
     18  O30        5.9560   -0.5410   15.5440 O.3   353  LIC353     -0.4714
     19  C31        5.3500    0.2910   14.5560 C.3   353  LIC353      0.2525
     20  C23        3.3290   -1.0490   18.0740 C.ar  353  LIC353      0.0185
     21  C3         3.3440    0.4200   21.0760 C.2   353  LIC353      0.2085
     22  C35        3.3930    1.5440   20.2660 C.2   353  LIC353      0.0709
     23  C37        3.1710    2.7940   20.8300 C.2   353  LIC353      0.1158
     24  N39        2.8920    2.8790   22.1300 N.2   353  LIC353     -0.1685
     25  C41        2.8090    1.7950   22.9130 C.1   353  LIC353      0.1665
     26  N42        3.0430    0.5790   22.3840 N.2   353  LIC353     -0.3202
     27  N36        2.4780    1.9980   24.2040 N.pl3 353  LIC353     -0.1613
     28  C43        2.4150    0.8710   25.1240 C.3   353  LIC353      0.1325
     29  C45        3.0840    1.2850   26.4320 C.3   353  LIC353      0.0269
     30  C47        0.9810    0.3870   25.3180 C.3   353  LIC353      0.1457
     31  C53        0.9320   -0.7730   26.2990 C.3   353  LIC353      0.0347
     32  O52        0.2170    1.4590   25.8600 O.3   353  LIC353     -0.2239
     33  C51        0.2590   -0.0080   24.0370 C.3   353  LIC353      0.0347
@<TRIPOS>BOND
     1    19    18    1
     2    18     5    1
     3     5     7   ar
     4     5    17   ar
     5     7    20   ar
     6    17     6   ar
     7    20    16   ar
     8     6    16   ar
     9    16     1    1
    10    15    14    2
    11    22    23    2
    12    22    21    1
    13     1    14   am
    14     1    21    1
    15    23    24    1
    16    14    13   am
    17    21    26    2
    18    24    25    2
    19    13     2    1
    20     3    11   ar
    21     3    12   ar
    22    26    25    2
    23    11    10   ar
    24     2    12    1
    25    25    27    1
    26    12     9   ar
    27    10     4   ar
    28    33    30    1
    29     9     4   ar
    30     9     8    1
    31    27    28    1
    32    28    30    1
    33    28    29    1
    34    30    32    1
    35    30    31    1
