@<TRIPOS>MOLECULE
2ghq_III_C_1.pdb
 41 42 0 0 0
SMALL
GASTEIGER

@<TRIPOS>ATOM
      1  N         41.8330   -5.0520   -3.6540 N.3   171  SER171     -0.1204
      2  CA        41.1100   -3.7960   -3.4410 C.3   171  SER171      0.1977
      3  CB        39.7860   -3.8030   -4.2080 C.3   171  SER171      0.1820
      4  OG        39.9780   -4.1320   -5.5720 O.3   171  SER171     -0.2682
      5  C         40.8140   -3.5270   -1.9650 C.2   171  SER171      0.2460
      6  O         40.2000   -4.3460   -1.2980 O.2   171  SER171     -0.2732
      7  P         38.5100   -3.9380   -6.4120 P.3   171  SER171      0.5327
      8  O1P       37.4850   -4.8630   -5.8370 O.3   171  SER171     -0.1145
      9  O2P       38.0310   -2.5270   -6.5340 O.3   171  SER171     -0.1145
     10  O3P       38.7970   -4.4120   -7.8040 O.2   171  SER171     -0.2224
     11  N         41.2400   -2.3640   -1.4430 N.am  172  PRO172     -0.2717
     12  CA        41.0180   -1.9820   -0.0380 C.3   172  PRO172      0.1536
     13  C         39.5410   -1.6640    0.2620 C.2   172  PRO172      0.2599
     14  O         39.0480   -1.9170    1.3580 O.2   172  PRO172     -0.2715
     15  CB        41.9090   -0.7420    0.1330 C.3   172  PRO172      0.0310
     16  CG        42.9300   -0.8810   -0.9390 C.3   172  PRO172      0.0237
     17  CD        42.1280   -1.3960   -2.1010 C.3   172  PRO172      0.0939
     18  N         38.8550   -1.0890   -0.7240 N.am  173  THR173     -0.1937
     19  CA        37.4530   -0.7330   -0.5910 C.3   173  THR173      0.2028
     20  C         36.5690   -1.9450   -0.8900 C.2   173  THR173      0.2643
     21  O         37.0720   -3.0090   -1.2580 O.2   173  THR173     -0.2714
     22  CB        37.0940    0.4190   -1.5550 C.3   173  THR173      0.1808
     23  OG1       37.4980    0.0920   -2.8890 O.3   173  THR173     -0.2208
     24  CG2       37.7890    1.7300   -1.1060 C.3   173  THR173      0.0379
     25  N         35.2570   -1.7920   -0.7210 N.am  174  SER174     -0.1937
     26  CA        34.3370   -2.8950   -0.9880 C.3   174  SER174      0.2012
     27  CB        32.9070   -2.5030   -0.6180 C.3   174  SER174      0.1846
     28  OG        32.8320   -2.2060    0.7590 O.3   174  SER174     -0.2679
     29  C         34.4070   -3.2370   -2.4710 C.2   174  SER174      0.2484
     30  O         34.2380   -2.3680   -3.3220 O.2   174  SER174     -0.2729
     31  P         31.2780   -1.9810    1.2270 P.3   174  SER174      0.5327
     32  O1P       30.4630   -1.2190    0.1990 O.2   174  SER174     -0.2224
     33  O2P       30.6650   -3.1960    1.7390 O.3   174  SER174     -0.1145
     34  O3P       31.4110   -1.0100    2.3920 O.3   174  SER174     -0.1145
     35  N         34.6440   -4.5100   -2.8000 N.am  175  PRO175     -0.2726
     36  CA        34.7310   -4.9020   -4.2110 C.3   175  PRO175      0.1402
     37  C         33.5570   -4.3890   -5.0420 C.2   175  PRO175      0.2269
     38  O         32.4710   -4.1920   -4.4610 O.2   175  PRO175     -0.2865
     39  CB        34.7790   -6.4280   -4.1360 C.3   175  PRO175      0.0296
     40  CG        35.4950   -6.6770   -2.8320 C.3   175  PRO175      0.0237
     41  CD        34.8270   -5.6720   -1.9170 C.3   175  PRO175      0.0939
@<TRIPOS>BOND
     1    10     7    2
     2     9     7    1
     3     7     8    1
     4     7     4    1
     5     4     3    1
     6    37    38    2
     7    37    36    1
     8    36    39    1
     9    36    35    1
    10     3     2    1
    11    39    40    1
    12     1     2    1
    13     2     5    1
    14    30    29    2
    15    23    22    1
    16    40    41    1
    17    35    29   am
    18    35    41    1
    19    29    26    1
    20    17    11    1
    21    17    16    1
    22     5    11   am
    23     5     6    2
    24    22    24    1
    25    22    19    1
    26    11    12    1
    27    21    20    2
    28    26    25    1
    29    26    27    1
    30    16    15    1
    31    20    25   am
    32    20    19    1
    33    18    19    1
    34    18    13   am
    35    27    28    1
    36    12    15    1
    37    12    13    1
    38    32    31    2
    39    13    14    2
    40    28    31    1
    41    31    33    1
    42    31    34    1
