@<TRIPOS>MOLECULE
2ght_III_C_1.pdb
 37 38 0 0 0
SMALL
GASTEIGER

@<TRIPOS>ATOM
      1  N         41.7790   -4.7300   -3.9840 N.3   171  SER171     -0.1203
      2  CA        41.3150   -3.3770   -3.5240 C.3   171  SER171      0.2005
      3  C         40.9390   -3.4220   -2.0410 C.2   171  SER171      0.2461
      4  O         40.2790   -4.3410   -1.5880 O.2   171  SER171     -0.2732
      5  CB        40.0900   -2.9400   -4.3320 C.3   171  SER171      0.2103
      6  OG        39.6660   -1.6420   -3.9430 O.3   171  SER171     -0.2182
      7  N         41.3520   -2.4130   -1.2680 N.am  172  PRO172     -0.2717
      8  CA        41.0650   -2.3270    0.1650 C.3   172  PRO172      0.1536
      9  C         39.5980   -1.9290    0.4210 C.2   172  PRO172      0.2599
     10  O         39.0570   -2.2140    1.4860 O.2   172  PRO172     -0.2715
     11  CB        42.0800   -1.2780    0.6560 C.3   172  PRO172      0.0310
     12  CG        42.1060   -0.3270   -0.5060 C.3   172  PRO172      0.0237
     13  CD        42.1060   -1.2450   -1.7360 C.3   172  PRO172      0.0939
     14  N         38.9790   -1.2460   -0.5410 N.am  173  THR173     -0.1937
     15  CA        37.5870   -0.8240   -0.4070 C.3   173  THR173      0.2028
     16  C         36.6450   -1.9840   -0.7470 C.2   173  THR173      0.2643
     17  O         37.1050   -3.0790   -1.0280 O.2   173  THR173     -0.2714
     18  CB        37.2800    0.3700   -1.3260 C.3   173  THR173      0.1808
     19  OG1       37.4090   -0.0210   -2.7030 O.3   173  THR173     -0.2208
     20  CG2       38.1840    1.5460   -0.9910 C.3   173  THR173      0.0379
     21  N         35.3350   -1.7500   -0.6990 N.am  174  SER174     -0.1937
     22  CA        34.3710   -2.8110   -1.0020 C.3   174  SER174      0.2012
     23  CB        32.9650   -2.4400   -0.5190 C.3   174  SER174      0.1846
     24  OG        32.9120   -2.3890    0.8960 O.3   174  SER174     -0.2679
     25  C         34.3240   -3.0530   -2.5020 C.2   174  SER174      0.2484
     26  O         34.0130   -2.1450   -3.2730 O.2   174  SER174     -0.2729
     27  P         31.3510   -2.0990    1.4300 P.3   174  SER174      0.5327
     28  O1P       30.7010   -3.3560    1.7860 O.3   174  SER174     -0.1145
     29  O2P       31.4000   -1.1130    2.5640 O.3   174  SER174     -0.1145
     30  O3P       30.5690   -1.4750    0.3260 O.2   174  SER174     -0.2224
     31  N         34.6210   -4.2880   -2.9370 N.am  175  PRO175     -0.2726
     32  CA        34.5990   -4.5810   -4.3730 C.3   175  PRO175      0.1402
     33  C         33.2210   -4.4310   -4.9970 C.2   175  PRO175      0.2269
     34  O         32.2390   -4.3930   -4.2250 O.2   175  PRO175     -0.2865
     35  CB        35.1290   -6.0130   -4.4400 C.3   175  PRO175      0.0296
     36  CG        34.6650   -6.5980   -3.1470 C.3   175  PRO175      0.0237
     37  CD        34.9680   -5.4890   -2.1610 C.3   175  PRO175      0.0939
@<TRIPOS>BOND
     1    33    32    1
     2    33    34    2
     3    35    32    1
     4    35    36    1
     5    32    31    1
     6     5     6    1
     7     5     2    1
     8     1     2    1
     9     2     3    1
    10    26    25    2
    11    36    37    1
    12    31    25   am
    13    31    37    1
    14    19    18    1
    15    25    22    1
    16     3     4    2
    17     3     7   am
    18    13     7    1
    19    13    12    1
    20    18    20    1
    21    18    15    1
    22     7     8    1
    23    17    16    2
    24    22    21    1
    25    22    23    1
    26    16    21   am
    27    16    15    1
    28    14    15    1
    29    14     9   am
    30    23    24    1
    31    12    11    1
    32     8     9    1
    33     8    11    1
    34    30    27    2
    35     9    10    2
    36    24    27    1
    37    27    28    1
    38    27    29    1
