@<TRIPOS>MOLECULE
2gil_GTP_A_1.pdb
 32 34 0 0 0
SMALL
GASTEIGER

@<TRIPOS>ATOM
      1  PG        24.1070   59.8190   30.4190 P.3   1200  GTP1200     0.5373
      2  O1G       25.5630   59.3780   30.4890 O.3   1200  GTP1200    -0.1143
      3  O2G       23.5010   59.9230   31.7770 O.3   1200  GTP1200    -0.1143
      4  O3G       23.3400   58.7760   29.6280 O.2   1200  GTP1200    -0.2221
      5  O3B       24.2070   61.2630   29.6510 O.3   1200  GTP1200    -0.2258
      6  PB        22.9980   62.3300   29.5450 P.3   1200  GTP1200     0.2277
      7  O1B       22.1240   62.0500   28.3540 O.2   1200  GTP1200    -0.5168
      8  O2B       22.2610   62.2820   30.8480 O.3   1200  GTP1200    -0.4368
      9  O3A       23.6630   63.7700   29.2700 O.3   1200  GTP1200    -0.2700
     10  PA        23.9310   64.9070   30.3930 P.3   1200  GTP1200     0.2189
     11  O1A       22.6960   65.5790   30.9350 O.2   1200  GTP1200    -0.5170
     12  O2A       24.7460   64.4000   31.5380 O.3   1200  GTP1200    -0.4371
     13  O5'       24.7310   65.9640   29.4700 O.3   1200  GTP1200    -0.3112
     14  C5'       25.9000   65.6190   28.7610 C.3   1200  GTP1200     0.1813
     15  C4'       26.8330   66.8050   28.5540 C.3   1200  GTP1200     0.1799
     16  O4'       26.2670   67.6720   27.6000 O.3   1200  GTP1200    -0.3326
     17  C3'       27.0780   67.6300   29.8100 C.3   1200  GTP1200     0.2158
     18  O3'       28.4090   68.1100   29.7910 O.3   1200  GTP1200    -0.2175
     19  C2'       26.0740   68.7620   29.6960 C.3   1200  GTP1200     0.2310
     20  O2'       26.4920   69.9240   30.3680 O.3   1200  GTP1200    -0.2158
     21  C1'       25.9570   68.9280   28.1850 C.3   1200  GTP1200     0.2293
     22  N9        24.6070   69.3620   27.7900 N.pl3 1200  GTP1200    -0.2354
     23  C8        23.3960   68.8030   28.1070 C.3   1200  GTP1200     0.2246
     24  N7        22.4300   69.5530   27.5340 N.2   1200  GTP1200    -0.2322
     25  C5        23.0090   70.5760   26.8500 C.2   1200  GTP1200     0.2182
     26  C6        22.4970   71.6330   26.0930 C.1   1200  GTP1200     0.2372
     27  O6        21.2690   71.7770   25.9070 O.2   1200  GTP1200    -0.2069
     28  N1        23.3940   72.5150   25.5120 N.2   1200  GTP1200    -0.2485
     29  C2        24.7670   72.3800   25.6980 C.1   1200  GTP1200     0.2531
     30  N2        25.5950   73.2600   25.1350 N.pl3 1200  GTP1200    -0.0226
     31  N3        25.2660   71.3430   26.4690 N.2   1200  GTP1200    -0.3074
     32  C4        24.3930   70.4600   27.0150 C.2   1200  GTP1200     0.2300
@<TRIPOS>BOND
     1    30    29    1
     2    28    29    2
     3    28    26    2
     4    29    31    2
     5    27    26    2
     6    26    25    1
     7    31    32    2
     8    25    32    1
     9    25    24    2
    10    32    22    1
    11    24    23    1
    12    16    21    1
    13    16    15    1
    14    22    23    1
    15    22    21    1
    16    21    19    1
    17     7     6    2
    18    15    14    1
    19    15    17    1
    20    14    13    1
    21     9     6    1
    22     9    10    1
    23    13    10    1
    24     6     5    1
    25     6     8    1
    26     4     1    2
    27     5     1    1
    28    19    17    1
    29    19    20    1
    30    18    17    1
    31    10    11    2
    32    10    12    1
    33     1     2    1
    34     1     3    1
