@<TRIPOS>MOLECULE
2giq_NN2_A_1.pdb
 30 34 0 0 0
SMALL
GASTEIGER

@<TRIPOS>ATOM
      1  C4         9.9230   -7.6980  -17.1230 C.3   1001  NN21001     0.2280
      2  C5         9.2380   -8.6450  -16.3790 C.2   1001  NN21001     0.1484
      3  C6         8.5830   -9.7160  -16.9890 C.2   1001  NN21001     0.0306
      4  C7         8.6110   -9.8500  -18.3680 C.2   1001  NN21001     0.0021
      5  C8         9.2880   -8.9100  -19.1230 C.2   1001  NN21001    -0.0023
      6  C9         9.9340   -7.8340  -18.5090 C.2   1001  NN21001     0.0063
      7  N3         9.1810   -8.5700  -15.0510 N.2   1001  NN21001    -0.3511
      8  F21       12.7320   -6.1220   -7.8450 F     1001  NN21001    -0.2042
      9  C15       11.8540   -6.8310   -8.5600 C.ar  1001  NN21001     0.1403
     10  C20       11.7000   -6.5680   -9.9020 C.ar  1001  NN21001     0.0343
     11  C19       10.8010   -7.3220  -10.6440 C.ar  1001  NN21001     0.0579
     12  C22       10.6640   -7.0090  -12.0740 C.ar  1001  NN21001     0.2120
     13  O23       11.3940   -6.0040  -12.5980 O.3   1001  NN21001    -0.2856
     14  C16       11.1170   -7.8390   -7.9730 C.ar  1001  NN21001     0.0311
     15  C17       10.2100   -8.5900   -8.7170 C.ar  1001  NN21001     0.0197
     16  C18       10.0370   -8.3390  -10.0760 C.ar  1001  NN21001     0.0657
     17  N14        9.1180   -9.1010  -10.8520 N.ar  1001  NN21001    -0.2948
     18  C24        8.3010  -10.1660  -10.2570 C.3   1001  NN21001     0.1091
     19  C25        7.1340   -9.5020   -9.5340 C.3   1001  NN21001     0.0246
     20  C26        5.7810   -9.9820  -10.0570 C.3   1001  NN21001     0.0019
     21  C30        5.2300   -9.3970  -11.3520 C.3   1001  NN21001     0.0001
     22  C29        4.6600   -8.9420  -10.0060 C.3   1001  NN21001     0.0001
     23  C27        8.9420   -8.8610  -12.2340 C.ar  1001  NN21001     0.2744
     24  O28        8.1200   -9.5490  -12.8890 O.2   1001  NN21001    -0.2661
     25  C1         9.6650   -7.7430  -12.8750 C.ar  1001  NN21001     0.1700
     26  C2         9.6810   -7.5520  -14.3190 C.1   1001  NN21001     0.1134
     27  N11       10.4810   -6.5970  -14.8290 N.2   1001  NN21001    -0.0649
     28  S10       10.6570   -6.4520  -16.4150 S.O2  1001  NN21001     0.0980
     29  O13        9.9640   -5.2550  -16.7870 O.2   1001  NN21001    -0.1495
     30  O12       12.0330   -6.3820  -16.8060 O.2   1001  NN21001    -0.1495
@<TRIPOS>BOND
     1     5     6    2
     2     5     4    1
     3     6     1    1
     4     4     3    2
     5     1    28    1
     6     1     2    1
     7     3     2    1
     8    30    28    2
     9    29    28    2
    10    28    27    1
    11     2     7    2
    12     7    26    2
    13    27    26    2
    14    26    25    1
    15    24    23    2
    16    25    23   ar
    17    25    12   ar
    18    13    12    1
    19    23    17   ar
    20    12    11   ar
    21    21    20    1
    22    21    22    1
    23    17    18    1
    24    17    16   ar
    25    11    16   ar
    26    11    10   ar
    27    18    19    1
    28    16    15   ar
    29    20    22    1
    30    20    19    1
    31    10     9   ar
    32    15    14   ar
    33     9    14   ar
    34     9     8    1
