@<TRIPOS>MOLECULE
2gir_NN3_A_1.pdb
 27 29 0 0 0
SMALL
GASTEIGER

@<TRIPOS>ATOM
      1  C4       -33.7810  -14.6580   33.0050 C.3   1001  NN31001     0.0000
      2  C5       -35.1220  -15.2570   32.6190 C.3   1001  NN31001     0.0005
      3  C6       -35.7010  -16.1140   33.7490 C.3   1001  NN31001     0.0091
      4  C11      -34.8120  -19.9820   33.8510 C.ar  1001  NN31001     0.0666
      5  C7       -33.2320  -13.7410   31.9190 C.3   1001  NN31001     0.0000
      6  C8       -35.1730  -18.0750   35.2000 C.2   1001  NN31001     0.2288
      7  C10      -35.7050  -20.3150   32.8330 C.ar  1001  NN31001     0.1229
      8  C12      -33.4840  -20.3060   33.6010 C.ar  1001  NN31001     0.0221
      9  C13      -33.3790  -20.9160   32.3540 C.ar  1001  NN31001     0.0309
     10  C3       -32.7910  -15.7680   33.3330 C.3   1001  NN31001     0.0005
     11  O27      -35.5030  -17.5530   36.2640 O.2   1001  NN31001    -0.2745
     12  C1       -34.7280  -17.2290   34.0380 C.3   1001  NN31001     0.0770
     13  C2       -33.3630  -16.6580   34.4270 C.3   1001  NN31001     0.0091
     14  N14      -35.1890  -19.3840   35.0340 N.am  1001  NN31001    -0.2596
     15  C22      -35.6060  -20.1900   36.2000 C.3   1001  NN31001     0.0799
     16  C24      -34.3350  -20.6580   36.8960 C.3   1001  NN31001     0.0219
     17  C23      -36.5070  -21.3820   35.8780 C.3   1001  NN31001     0.0219
     18  C15      -37.1710  -20.1500   32.7190 C.2   1001  NN31001     0.3949
     19  O26      -37.7530  -20.5670   31.6970 O.co2 1001  NN31001    -0.2399
     20  O25      -37.7840  -19.5770   33.6250 O.co2 1001  NN31001    -0.2399
     21  S9       -34.9040  -21.0510   31.5130 S.2   1001  NN31001    -0.0792
     22  C16      -32.2080  -21.4270   31.5920 C.ar  1001  NN31001     0.0060
     23  C21      -32.3480  -22.3470   30.5480 C.ar  1001  NN31001     0.0005
     24  C20      -31.2230  -22.7830   29.8550 C.ar  1001  NN31001     0.0000
     25  C19      -29.9660  -22.2930   30.2000 C.ar  1001  NN31001     0.0000
     26  C18      -29.8250  -21.3840   31.2360 C.ar  1001  NN31001     0.0000
     27  C17      -30.9460  -20.9390   31.9220 C.ar  1001  NN31001     0.0005
@<TRIPOS>BOND
     1    24    25   ar
     2    24    23   ar
     3    25    26   ar
     4    23    22   ar
     5    26    27   ar
     6    21     9   ar
     7    21     7   ar
     8    22    27   ar
     9    22     9    1
    10    19    18   ar
    11     5     1    1
    12     9     8   ar
    13     2     1    1
    14     2     3    1
    15    18     7    1
    16    18    20   ar
    17     7     4   ar
    18     1    10    1
    19    10    13    1
    20     8     4   ar
    21     3    12    1
    22     4    14    1
    23    12    13    1
    24    12     6    1
    25    14     6   am
    26    14    15    1
    27     6    11    2
    28    17    15    1
    29    15    16    1
