@<TRIPOS>MOLECULE
2giu_FBR_A_1.pdb
 20 22 0 0 0
SMALL
GASTEIGER

@<TRIPOS>ATOM
      1  C1        22.9210    9.0370  115.3330 C.3   600  FBR600      0.0239
      2  C2        22.4450    8.0850  116.4500 C.3   600  FBR600      0.0125
      3  C3        20.9070    8.1950  116.5030 C.3   600  FBR600      0.0700
      4  C4        20.3470    7.7940  115.1540 C.2   600  FBR600      0.1789
      5  O5        19.2410    7.3180  115.1040 O.2   600  FBR600     -0.2908
      6  C6        21.1430    8.0220  113.9260 C.2   600  FBR600      0.0652
      7 BR7        20.4090    7.1960  112.5220 Br    600  FBR600     -0.0464
      8  C8        22.3490    8.6250  113.9990 C.2   600  FBR600     -0.0138
      9  C9        23.4070    8.7370  112.9720 C.ar  600  FBR600     -0.0072
     10  C10       23.3580    8.6780  111.5750 C.ar  600  FBR600      0.0027
     11  C11       24.5470    8.8530  110.8570 C.ar  600  FBR600      0.0420
     12  C12       25.7740    9.0260  111.5250 C.ar  600  FBR600      0.1954
     13  O13       26.9270    9.1090  110.8390 O.3   600  FBR600     -0.2866
     14  C14       25.8120    9.0600  112.9240 C.ar  600  FBR600      0.0378
     15  C15       24.6150    8.9510  113.6350 C.ar  600  FBR600     -0.0190
     16  C16       24.4460    9.0220  115.1340 C.3   600  FBR600      0.0305
     17  C17       22.4130   10.4820  115.5210 C.3   600  FBR600      0.0044
     18  C18       23.1370   11.2900  116.6040 C.3   600  FBR600      0.0003
     19  C19       22.2290   12.2960  117.3190 C.3   600  FBR600      0.0000
     20  C20       23.0160   12.8190  118.5400 C.3   600  FBR600      0.0000
@<TRIPOS>BOND
     1    13    12    1
     2    11    12   ar
     3    11    10   ar
     4    12    14   ar
     5    10     9   ar
     6     7     6    1
     7    14    15   ar
     8     9    15   ar
     9     9     8    1
    10    15    16    1
    11     6     8    2
    12     6     4    1
    13     8     1    1
    14     5     4    2
    15    16     1    1
    16     4     3    1
    17     1    17    1
    18     1     2    1
    19    17    18    1
    20     2     3    1
    21    18    19    1
    22    19    20    1
