@<TRIPOS>MOLECULE
2gj1_HEM_A_1.pdb
 43 50 0 0 0
SMALL
GASTEIGER

@<TRIPOS>ATOM
      1  CHA        8.9540    0.1790   29.2750 C.2   605  HEM605      0.0000
      2  CHB        9.1940    4.9850   29.1210 C.2   605  HEM605      0.0000
      3  CHC       11.0330    4.8210   24.6350 C.2   605  HEM605      0.0000
      4  CHD       10.8640    0.0410   24.7980 C.2   605  HEM605      0.0000
      5  C1A        8.8530    1.4890   29.6380 C.2   605  HEM605      0.0000
      6  C2A        8.2810    1.9760   30.8680 C.2   605  HEM605      0.0000
      7  C3A        8.3400    3.3200   30.8220 C.2   605  HEM605      0.0000
      8  C4A        8.9450    3.7090   29.5590 C.2   605  HEM605      0.0000
      9  CMA        7.8610    4.3070   31.9060 C.3   605  HEM605      0.0000
     10  CAA        7.7410    1.0750   32.0120 C.3   605  HEM605      0.0000
     11  CBA        8.9630    0.6330   32.8350 C.3   605  HEM605      0.0000
     12  CGA        8.6270   -0.3420   33.9420 C.2   605  HEM605      0.0000
     13  O1A        7.8080   -0.0130   34.8480 O.co2 605  HEM605      0.0000
     14  O2A        9.2040   -1.4600   33.9500 O.co2 605  HEM605      0.0000
     15  C1B        9.6610    5.3400   27.8750 C.ar  605  HEM605      0.0000
     16  C2B        9.7400    6.6880   27.3550 C.ar  605  HEM605      0.0000
     17  C3B       10.2350    6.6290   26.1250 C.ar  605  HEM605      0.0000
     18  C4B       10.5070    5.2560   25.8200 C.ar  605  HEM605      0.0000
     19  CMB        9.3070    7.9780   28.0980 C.3   605  HEM605      0.0000
     20  CAB       10.4930    7.8100   25.1680 C.2   605  HEM605      0.0000
     21  CBB       10.9800    8.9590   25.6490 C.2   605  HEM605      0.0000
     22  C1C       11.1870    3.5160   24.2940 C.2   605  HEM605      0.0000
     23  C2C       11.8920    3.0240   23.1300 C.2   605  HEM605      0.0000
     24  C3C       11.7250    1.6940   23.1090 C.2   605  HEM605      0.0000
     25  C4C       11.1060    1.3190   24.3670 C.2   605  HEM605      0.0000
     26  CMC       12.3420    3.9460   21.9710 C.3   605  HEM605      0.0000
     27  CAC       12.2180    0.6730   22.0610 C.2   605  HEM605      0.0000
     28  CBC       12.9250    0.9850   20.9650 C.2   605  HEM605      0.0000
     29  C1D       10.2360   -0.3530   25.9470 C.ar  605  HEM605      0.0000
     30  C2D        9.7850   -1.7040   26.1890 C.ar  605  HEM605      0.0000
     31  C3D        9.1740   -1.6770   27.5910 C.ar  605  HEM605      0.0000
     32  C4D        9.3280   -0.3010   28.0450 C.ar  605  HEM605      0.0000
     33  CMD        9.9220   -2.8970   25.2210 C.3   605  HEM605      0.0000
     34  CAD        8.5270   -2.8440   28.3510 C.3   605  HEM605      0.0000
     35  CBD        7.0260   -2.8300   28.0430 C.3   605  HEM605      0.0000
     36  CGD        6.3430   -4.0250   28.6710 C.2   605  HEM605      0.0000
     37  O1D        6.3610   -5.1440   28.0630 O.co2 605  HEM605      0.0000
     38  O2D        5.7910   -3.8590   29.7970 O.co2 605  HEM605      0.0000
     39  NA         9.2570    2.5670   28.8690 N.2   605  HEM605      0.0000
     40  NB        10.1560    4.4960   26.9110 N.ar  605  HEM605      0.0000
     41  NC        10.7970    2.4590   25.0760 N.2   605  HEM605      0.0000
     42  ND         9.9610    0.4360   27.0640 N.ar  605  HEM605      0.0000
     43 FE         10.2210    2.4740   27.0800 Fe    605  HEM605      0.0000
@<TRIPOS>BOND
     1    28    27    2
     2    26    23    1
     3    27    24    1
     4    24    23    2
     5    24    25    1
     6    23    22    1
     7    22     3    2
     8    22    41    1
     9    25     4    1
    10    25    41    2
    11     3    18    1
    12     4    29    2
    13    41    43    1
    14    20    21    2
    15    20    17    1
    16    33    30    1
    17    18    17   ar
    18    18    40   ar
    19    29    30   ar
    20    29    42   ar
    21    17    16   ar
    22    30    31   ar
    23    40    43    1
    24    40    15   ar
    25    42    43    1
    26    42    32   ar
    27    43    39    1
    28    16    15   ar
    29    16    19    1
    30    31    32   ar
    31    31    34    1
    32    15     2    1
    33    35    34    1
    34    35    36    1
    35    32     1    2
    36    37    36   ar
    37    36    38   ar
    38    39     8    1
    39    39     5    2
    40     2     8    2
    41     1     5    1
    42     8     7    1
    43     5     6    1
    44     7     6    2
    45     7     9    1
    46     6    10    1
    47    10    11    1
    48    11    12    1
    49    12    14   ar
    50    12    13   ar
