@<TRIPOS>MOLECULE
2gj4_2TH_A_1.pdb
 22 25 0 0 0
SMALL
GASTEIGER

@<TRIPOS>ATOM
      1  O1        14.6580  111.3140   28.9950 O.3   949  2TH949     -0.2164
      2  C1        13.5350  110.7970   29.6810 C.3   949  2TH949      0.1940
      3  C2        13.8790  110.1760   31.0060 C.ar  949  2TH949      0.0055
      4  C3        13.0310  109.0830   31.2370 C.ar  949  2TH949     -0.0219
      5  C4        13.1320  108.3250   32.4060 C.ar  949  2TH949     -0.0044
      6  C5        14.1030  108.6840   33.3520 C.ar  949  2TH949     -0.0003
      7  C6        14.9530  109.7860   33.1230 C.ar  949  2TH949     -0.0003
      8  C7        14.8400  110.5460   31.9460 C.ar  949  2TH949     -0.0021
      9  C8        12.0960  108.9020   30.0730 C.3   949  2TH949      0.0507
     10  C9        12.9350  109.5710   28.9540 C.3   949  2TH949      0.1345
     11  N1        12.1550  109.8610   27.7330 N.am  949  2TH949     -0.1979
     12  C10       12.6070  109.5790   26.4460 C.2   949  2TH949      0.2946
     13  O2        13.7230  109.0730   26.2810 O.2   949  2TH949     -0.2656
     14  C11       11.7400  109.8510   25.2950 C.2   949  2TH949      0.1868
     15  C12       10.5320  110.5690   25.1160 C.2   949  2TH949      0.0399
     16  C13       10.1890  110.4310   23.7640 C.ar  949  2TH949      0.0400
     17  C14       11.1050  109.6740   23.1410 C.ar  949  2TH949      0.1620
     18  S1        10.8140  109.4220   21.5150 S.2   949  2TH949     -0.0439
     19  C15        9.3790  110.3860   21.6430 C.ar  949  2TH949      0.0893
     20  C16        9.1470  110.8750   22.9270 C.ar  949  2TH949      0.0212
     21 CL1         8.4310  110.6170   20.2140 Cl    949  2TH949     -0.0751
     22  N2        12.0380  109.3150   24.0480 N.2   949  2TH949     -0.3907
@<TRIPOS>BOND
     1    21    19    1
     2    18    19   ar
     3    18    17   ar
     4    19    20   ar
     5    20    16   ar
     6    17    16   ar
     7    17    22    2
     8    16    15    2
     9    22    14    2
    10    15    14    1
    11    14    12    1
    12    13    12    2
    13    12    11   am
    14    11    10    1
    15    10     2    1
    16    10     9    1
    17     1     2    1
    18     2     3    1
    19     9     4    1
    20     3     4   ar
    21     3     8   ar
    22     4     5   ar
    23     8     7   ar
    24     5     6   ar
    25     7     6   ar
