@<TRIPOS>MOLECULE
2gj4_PLR_A_1.pdb
 15 15 0 0 0
SMALL
GASTEIGER

@<TRIPOS>ATOM
      1  N1        25.7750  103.1210    1.2370 N.ar  940  PLR940     -0.2452
      2  C2        24.9980  104.2350    1.4820 C.ar  940  PLR940      0.0978
      3  C2A       25.4180  105.2360    2.5270 C.3   940  PLR940      0.0555
      4  C3        23.8230  104.4240    0.7480 C.ar  940  PLR940      0.2049
      5  O3        23.0720  105.5530    0.9950 O.3   940  PLR940     -0.2857
      6  C4        23.4470  103.4870   -0.2340 C.ar  940  PLR940      0.0182
      7  C4A       22.2350  103.7300   -1.0760 C.3   940  PLR940      0.0342
      8  C5        24.2300  102.3600   -0.4740 C.ar  940  PLR940      0.0261
      9  C6        25.3900  102.1950    0.2840 C.ar  940  PLR940      0.0965
     10  C5A       23.9770  101.4330   -1.6530 C.3   940  PLR940      0.1815
     11  O4P       24.4890  101.9690   -2.8570 O.3   940  PLR940     -0.2653
     12  P         24.8570  100.9730   -4.0830 P.3   940  PLR940      0.5329
     13  O1P       25.6230  101.8250   -5.0560 O.2   940  PLR940     -0.2224
     14  O2P       25.7330   99.8380   -3.6050 O.3   940  PLR940     -0.1145
     15  O3P       23.5660  100.4680   -4.6930 O.3   940  PLR940     -0.1145
@<TRIPOS>BOND
     1    13    12    2
     2    15    12    1
     3    12    14    1
     4    12    11    1
     5    11    10    1
     6    10     8    1
     7     7     6    1
     8     8     6   ar
     9     8     9   ar
    10     6     4   ar
    11     9     1   ar
    12     4     5    1
    13     4     2   ar
    14     1     2   ar
    15     2     3    1
