@<TRIPOS>MOLECULE
2gj5_VD3_A_1.pdb
 28 30 0 0 0
SMALL
GASTEIGER

@<TRIPOS>ATOM
      1  O         -0.3760    0.1720   24.5870 O.3   163  VD3163     -0.2231
      2  C1         0.7100    1.3280   21.4030 C.3   163  VD3163      0.0246
      3  C2         0.4350    1.6960   22.8140 C.3   163  VD3163      0.0372
      4  C3        -0.8320    1.0150   23.5110 C.3   163  VD3163      0.1527
      5  C4        -1.6350    0.1660   22.4900 C.3   163  VD3163      0.0369
      6  C5        -1.8270    0.8320   21.0410 C.3   163  VD3163      0.0208
      7  C7        -3.0170    0.7230   20.3760 C.3   163  VD3163      0.0041
      8  C8        -4.4060    1.3320   20.3160 C.3   163  VD3163      0.0003
      9  C9        -4.6770    2.6370   19.8890 C.3   163  VD3163      0.0000
     10  C10       -4.6590    2.1750   18.3350 C.3   163  VD3163      0.0000
     11  C6        -0.5570    1.5740   20.5560 C.2   163  VD3163     -0.0444
     12  C11       -4.3550    3.2200   17.3230 C.3   163  VD3163      0.0000
     13  C12       -4.6900    4.7220   17.6710 C.3   163  VD3163      0.0000
     14  C13       -4.3770    5.1520   19.1110 C.3   163  VD3163      0.0000
     15  C14       -3.7620    3.9740   19.9600 C.3   163  VD3163      0.0000
     16  C15       -3.5680    4.7120   21.3800 C.3   163  VD3163      0.0000
     17  C16       -3.2280    6.2690   21.0100 C.3   163  VD3163      0.0000
     18  C17       -3.2090    6.2670   19.4350 C.3   163  VD3163      0.0000
     19  C18       -5.8170    5.6360   19.6230 C.3   163  VD3163      0.0000
     20  C19       -0.5150    2.3310   19.5340 C.2   163  VD3163     -0.0091
     21  C20       -3.5620    7.7220   18.7240 C.3   163  VD3163      0.0000
     22  C21       -2.8980    7.7440   17.3660 C.3   163  VD3163      0.0000
     23  C22       -3.0400    9.0810   19.3210 C.3   163  VD3163      0.0000
     24  C23       -4.1810   10.2680   18.9580 C.3   163  VD3163      0.0000
     25  C24       -3.2030   11.4000   18.5670 C.3   163  VD3163      0.0000
     26  C25       -3.4180   12.8640   19.0180 C.3   163  VD3163      0.0000
     27  C26       -2.1790   12.8600   19.7030 C.3   163  VD3163      0.0000
     28  C27       -3.0820   14.1050   18.3630 C.3   163  VD3163      0.0000
@<TRIPOS>BOND
     1    12    13    1
     2    12    10    1
     3    22    21    1
     4    13    14    1
     5    10     9    1
     6    28    26    1
     7    25    24    1
     8    25    26    1
     9    21    23    1
    10    21    18    1
    11    24    23    1
    12    26    27    1
    13    14    18    1
    14    14    19    1
    15    14    15    1
    16    18    17    1
    17    20    11    2
    18     9    15    1
    19     9     8    1
    20    15    16    1
    21     8     7    1
    22     7     6    1
    23    11     6    1
    24    11     2    1
    25    17    16    1
    26     6     5    1
    27     2     3    1
    28     5     4    1
    29     3     4    1
    30     4     1    1
