@<TRIPOS>MOLECULE
2gj6_3IB_C_1.pdb
 14 15 0 0 0
SMALL
GASTEIGER

@<TRIPOS>ATOM
      1  N1        86.7520    4.8110    4.5180 N.2    10  3IB10      -0.2442
      2  C2        86.9750    4.0710    5.6390 C.2    10  3IB10       0.0946
      3  C3        86.4230    2.8050    5.4610 C.2    10  3IB10      -0.0019
      4  C4        85.2150    1.8690    3.3480 C.2    10  3IB10      -0.0202
      5  C5        84.7850    2.2080    2.0720 C.3    10  3IB10       0.0521
      6  C6        85.0190    3.4800    1.5530 C.2    10  3IB10      -0.0199
      7  C7        85.6720    4.4340    2.3260 C.2    10  3IB10       0.0148
      8  C8        86.0940    4.1060    3.5960 C.2    10  3IB10       0.0804
      9  C9        85.8590    2.8400    4.0900 C.2    10  3IB10       0.0112
     10  C10       86.4520    1.6550    6.4380 C.3    10  3IB10       0.0284
     11  C11       85.0650    1.4210    7.0060 C.3    10  3IB10       0.0129
     12  C12       84.7240    2.3880    8.1390 C.3    10  3IB10       0.0726
     13  C13       83.2450    2.2750    8.4410 C.2    10  3IB10       0.2074
     14  O1        82.8400    1.3050    9.0360 O.2    10  3IB10      -0.2883
@<TRIPOS>BOND
     1     6     5    1
     2     6     7    2
     3     5     4    1
     4     7     8    1
     5     4     9    2
     6     8     9    1
     7     8     1    2
     8     9     3    1
     9     1     2    1
    10     3     2    2
    11     3    10    1
    12    10    11    1
    13    11    12    1
    14    12    13    1
    15    13    14    2
