@<TRIPOS>MOLECULE
2gj7_BMA_A_1.pdb
 11 11 0 0 0
SMALL
GASTEIGER

@<TRIPOS>ATOM
      1  C1         4.7800  -27.3480   25.1790 C.3     3  BMA3        0.1777
      2  C2         6.2400  -27.7310   25.4390 C.3     3  BMA3        0.2141
      3  C3         6.7400  -28.7060   24.3650 C.3     3  BMA3        0.2173
      4  C4         5.7720  -29.8800   24.2330 C.3     3  BMA3        0.2142
      5  C5         4.3060  -29.4220   24.1400 C.3     3  BMA3        0.1810
      6  C6         3.3140  -30.5650   24.2390 C.3     3  BMA3        0.2141
      7  O2         6.3440  -28.3300   26.7250 O.3     3  BMA3       -0.2176
      8  O3         8.0580  -29.2080   24.7180 O.3     3  BMA3       -0.2175
      9  O4         6.1120  -30.6130   23.0640 O.3     3  BMA3       -0.2176
     10  O5         3.9850  -28.5210   25.2100 O.3     3  BMA3       -0.3481
     11  O6         1.9860  -30.0740   23.9600 O.3     3  BMA3       -0.2176
@<TRIPOS>BOND
     1     9     4    1
     2    11     6    1
     3     5     4    1
     4     5     6    1
     5     5    10    1
     6     4     3    1
     7     3     8    1
     8     3     2    1
     9     1    10    1
    10     1     2    1
    11     2     7    1
