@<TRIPOS>MOLECULE
2gj7_GAL_A_1.pdb
 11 11 0 0 0
SMALL
GASTEIGER

@<TRIPOS>ATOM
      1  C1        -3.3200  -33.8100   17.3840 C.3     7  GAL7        0.1777
      2  C2        -2.9730  -34.6440   16.1220 C.3     7  GAL7        0.2141
      3  C3        -4.1980  -34.8900   15.2220 C.3     7  GAL7        0.2173
      4  C4        -5.4110  -35.3470   16.0460 C.3     7  GAL7        0.2142
      5  C5        -5.6470  -34.4090   17.2540 C.3     7  GAL7        0.1810
      6  C6        -6.7850  -34.8480   18.1860 C.3     7  GAL7        0.2141
      7  O2        -1.9750  -33.9670   15.3590 O.3     7  GAL7       -0.2176
      8  O3        -3.8770  -35.8800   14.2410 O.3     7  GAL7       -0.2175
      9  O4        -5.2080  -36.6840   16.4920 O.3     7  GAL7       -0.2176
     10  O5        -4.4590  -34.3500   18.0690 O.3     7  GAL7       -0.3481
     11  O6        -7.9880  -35.1330   17.4790 O.3     7  GAL7       -0.2176
@<TRIPOS>BOND
     1     8     3    1
     2     3     4    1
     3     3     2    1
     4     7     2    1
     5     4     9    1
     6     4     5    1
     7     2     1    1
     8     5    10    1
     9     5     6    1
    10     1    10    1
    11    11     6    1
