@<TRIPOS>MOLECULE
2gj7_MAN_A_1.pdb
 11 11 0 0 0
SMALL
GASTEIGER

@<TRIPOS>ATOM
      1  C1         1.0200  -31.0890   23.9790 C.3     4  MAN4        0.1777
      2  C2        -0.3160  -30.5540   23.4290 C.3     4  MAN4        0.2141
      3  C3        -0.9370  -29.5600   24.4020 C.3     4  MAN4        0.2173
      4  C4        -1.0760  -30.2210   25.7730 C.3     4  MAN4        0.2142
      5  C5         0.2990  -30.7080   26.2470 C.3     4  MAN4        0.1810
      6  C6         0.2600  -31.4220   27.5900 C.3     4  MAN4        0.2141
      7  O2        -1.2330  -31.6500   23.2140 O.3     4  MAN4       -0.2176
      8  O3        -2.2140  -29.1630   23.9270 O.3     4  MAN4       -0.2175
      9  O4        -1.6170  -29.2970   26.7080 O.3     4  MAN4       -0.2176
     10  O5         0.8490  -31.6340   25.2830 O.3     4  MAN4       -0.3481
     11  O6        -0.1490  -32.7750   27.4430 O.3     4  MAN4       -0.2176
@<TRIPOS>BOND
     1     7     2    1
     2     2     1    1
     3     2     3    1
     4     8     3    1
     5     1    10    1
     6     3     4    1
     7    10     5    1
     8     4     5    1
     9     4     9    1
    10     5     6    1
    11    11     6    1
