@<TRIPOS>MOLECULE
2gj8_GDP_A_1.pdb
 28 30 0 0 0
SMALL
GASTEIGER

@<TRIPOS>ATOM
      1  PB       -11.9400  -44.5140  -25.3620 P.3   650  GDP650      0.5373
      2  O1B      -10.4280  -44.6670  -25.1850 O.3   650  GDP650     -0.1143
      3  O2B      -12.2770  -43.0430  -25.4150 O.2   650  GDP650     -0.2221
      4  O3B      -12.7830  -45.1670  -24.3300 O.3   650  GDP650     -0.1143
      5  O3A      -12.2270  -45.1610  -26.7910 O.3   650  GDP650     -0.2261
      6  PA       -13.5980  -45.8540  -27.2790 P.3   650  GDP650      0.2231
      7  O1A      -13.6510  -47.2620  -26.7500 O.3   650  GDP650     -0.4370
      8  O2A      -14.7780  -44.9470  -26.9900 O.2   650  GDP650     -0.5169
      9  O5'      -13.3110  -45.9660  -28.8470 O.3   650  GDP650     -0.3111
     10  C5'      -13.0880  -44.8100  -29.6910 C.3   650  GDP650      0.1813
     11  C4'      -13.2410  -45.0720  -31.1830 C.3   650  GDP650      0.1799
     12  O4'      -12.2640  -46.0700  -31.5640 O.3   650  GDP650     -0.3326
     13  C3'      -14.6010  -45.6760  -31.4780 C.3   650  GDP650      0.2158
     14  O3'      -15.0560  -45.2370  -32.7460 O.3   650  GDP650     -0.2175
     15  C2'      -14.2990  -47.1740  -31.5290 C.3   650  GDP650      0.2310
     16  O2'      -15.2370  -47.9220  -32.2750 O.3   650  GDP650     -0.2158
     17  C1'      -12.9130  -47.1870  -32.1330 C.3   650  GDP650      0.2293
     18  N9       -12.1490  -48.3720  -31.7220 N.pl3 650  GDP650     -0.2354
     19  C8       -11.8370  -48.8010  -30.4870 C.3   650  GDP650      0.2246
     20  N7       -11.0970  -49.9510  -30.5510 N.2   650  GDP650     -0.2322
     21  C5       -10.8840  -50.2000  -31.8590 C.2   650  GDP650      0.2182
     22  C6       -10.1690  -51.2390  -32.6250 C.1   650  GDP650      0.2372
     23  O6        -9.5550  -52.1490  -32.0210 O.2   650  GDP650     -0.2069
     24  N1       -10.1700  -51.1410  -33.9580 N.2   650  GDP650     -0.2485
     25  C2       -10.8250  -50.1580  -34.6250 C.1   650  GDP650      0.2531
     26  N2       -10.8160  -50.1740  -35.9840 N.pl3 650  GDP650     -0.0226
     27  N3       -11.5030  -49.1520  -33.9800 N.2   650  GDP650     -0.3074
     28  C4       -11.5640  -49.1590  -32.6290 C.2   650  GDP650      0.2300
@<TRIPOS>BOND
     1    26    25    1
     2    25    27    2
     3    25    24    2
     4    27    28    2
     5    24    22    2
     6    14    13    1
     7    28    21    1
     8    28    18    1
     9    22    23    2
    10    22    21    1
    11    16    15    1
    12    17    18    1
    13    17    12    1
    14    17    15    1
    15    21    20    2
    16    18    19    1
    17    12    11    1
    18    15    13    1
    19    13    11    1
    20    11    10    1
    21    20    19    1
    22    10     9    1
    23     9     6    1
    24     6     8    2
    25     6     5    1
    26     6     7    1
    27     5     1    1
    28     3     1    2
    29     1     2    1
    30     1     4    1
