@<TRIPOS>MOLECULE
2gj9_GDP_A_1.pdb
 28 30 0 0 0
SMALL
GASTEIGER

@<TRIPOS>ATOM
      1  PB        12.3050    0.7720   19.8590 P.3   400  GDP400      0.5373
      2  O1B       13.7900    0.6370   20.1290 O.3   400  GDP400     -0.1143
      3  O2B       12.0400    2.2650   19.7560 O.2   400  GDP400     -0.2221
      4  O3B       11.5040    0.0360   20.8970 O.3   400  GDP400     -0.1143
      5  O3A       12.0050    0.2200   18.4170 O.3   400  GDP400     -0.2261
      6  PA        10.7300   -0.6520   17.9430 P.3   400  GDP400      0.2231
      7  O1A       10.8530   -2.0960   18.3940 O.3   400  GDP400     -0.4370
      8  O2A        9.5120    0.1410   18.2700 O.2   400  GDP400     -0.5169
      9  O5'       11.0160   -0.6970   16.3910 O.3   400  GDP400     -0.3111
     10  C5'       11.2300    0.5360   15.6190 C.3   400  GDP400      0.1813
     11  C4'       10.9860    0.3020   14.1310 C.3   400  GDP400      0.1799
     12  O4'       11.9910   -0.5880   13.5830 O.3   400  GDP400     -0.3326
     13  C3'        9.6240   -0.3450   13.8470 C.3   400  GDP400      0.2158
     14  O3'        9.2240    0.0420   12.5260 O.3   400  GDP400     -0.2175
     15  C2'        9.9980   -1.8340   13.7390 C.3   400  GDP400      0.2310
     16  O2'        9.0700   -2.6090   12.9760 O.3   400  GDP400     -0.2158
     17  C1'       11.3580   -1.7600   13.0520 C.3   400  GDP400      0.2293
     18  N9        12.1450   -2.9640   13.3910 N.pl3 400  GDP400     -0.2354
     19  C8        12.3470   -3.4450   14.6060 C.3   400  GDP400      0.2246
     20  N7        13.0980   -4.5560   14.5500 N.2   400  GDP400     -0.2322
     21  C5        13.3990   -4.8280   13.2500 C.2   400  GDP400      0.2182
     22  C6        14.1260   -5.8830   12.5160 C.1   400  GDP400      0.2372
     23  O6        14.6930   -6.8680   13.1120 O.2   400  GDP400     -0.2069
     24  N1        14.1640   -5.7620   11.1850 N.2   400  GDP400     -0.2485
     25  C2        13.5710   -4.7080   10.5250 C.1   400  GDP400      0.2531
     26  N2        13.6600   -4.6130    9.1720 N.pl3 400  GDP400     -0.0226
     27  N3        12.8630   -3.7420   11.1770 N.2   400  GDP400     -0.3074
     28  C4        12.7620   -3.7460   12.5000 C.2   400  GDP400      0.2300
@<TRIPOS>BOND
     1    26    25    1
     2    25    27    2
     3    25    24    2
     4    27    28    2
     5    24    22    2
     6    28    21    1
     7    28    18    1
     8    22    23    2
     9    22    21    1
    10    14    13    1
    11    16    15    1
    12    17    18    1
    13    17    12    1
    14    17    15    1
    15    21    20    2
    16    18    19    1
    17    12    11    1
    18    15    13    1
    19    13    11    1
    20    11    10    1
    21    20    19    1
    22    10     9    1
    23     9     6    1
    24     6     8    2
    25     6     7    1
    26     6     5    1
    27     5     1    1
    28     3     1    2
    29     1     2    1
    30     1     4    1
