@<TRIPOS>MOLECULE
2gja_GDP_A_1.pdb
 28 30 0 0 0
SMALL
GASTEIGER

@<TRIPOS>ATOM
      1  PB        14.1390   -8.2920   28.4080 P.3   400  GDP400      0.5373
      2  O1B       13.2460   -9.4180   28.0290 O.3   400  GDP400     -0.1143
      3  O2B       13.5850   -7.4880   29.5960 O.3   400  GDP400     -0.1143
      4  O3B       14.4440   -7.3550   27.2670 O.2   400  GDP400     -0.2221
      5  O3A       15.5060   -8.9590   28.9340 O.3   400  GDP400     -0.2261
      6  PA        17.0070   -8.5020   28.5830 P.3   400  GDP400      0.2231
      7  O1A       17.4280   -8.7660   27.1620 O.2   400  GDP400     -0.5169
      8  O2A       17.2050   -7.1050   29.0760 O.3   400  GDP400     -0.4370
      9  O5'       17.8340   -9.5310   29.5150 O.3   400  GDP400     -0.3111
     10  C5'       17.5430   -9.5980   30.9280 C.3   400  GDP400      0.1813
     11  C4'       18.6640  -10.3390   31.6530 C.3   400  GDP400      0.1799
     12  O4'       18.7880  -11.6910   31.1640 O.3   400  GDP400     -0.3326
     13  C3'       19.9940   -9.6570   31.3900 C.3   400  GDP400      0.2158
     14  O3'       20.8540   -9.7370   32.5420 O.3   400  GDP400     -0.2175
     15  C2'       20.5540  -10.4930   30.2650 C.3   400  GDP400      0.2310
     16  O2'       21.9590  -10.4150   30.1450 O.3   400  GDP400     -0.2158
     17  C1'       20.1170  -11.8840   30.6990 C.3   400  GDP400      0.2293
     18  N9        20.0550  -12.7880   29.5540 N.pl3 400  GDP400     -0.2354
     19  C8        19.3700  -12.6200   28.3990 C.3   400  GDP400      0.2246
     20  N7        19.5490  -13.6910   27.5820 N.2   400  GDP400     -0.2322
     21  C5        20.3310  -14.5660   28.2490 C.2   400  GDP400      0.2182
     22  C6        20.8990  -15.8840   27.9760 C.1   400  GDP400      0.2372
     23  O6        20.6720  -16.4310   26.8810 O.2   400  GDP400     -0.2069
     24  N1        21.6670  -16.4450   28.9170 N.2   400  GDP400     -0.2485
     25  C2        21.9500  -15.8480   30.0870 C.1   400  GDP400      0.2531
     26  N2        22.7450  -16.4910   30.9690 N.pl3 400  GDP400     -0.0226
     27  N3        21.4630  -14.6330   30.4230 N.2   400  GDP400     -0.3074
     28  C4        20.6550  -13.9730   29.5470 C.2   400  GDP400      0.2300
@<TRIPOS>BOND
     1    23    22    2
     2     7     6    2
     3     4     1    2
     4    20    21    2
     5    20    19    1
     6    22    21    1
     7    22    24    2
     8     2     1    1
     9    21    28    1
    10    19    18    1
    11     1     5    1
    12     1     3    1
    13     6     5    1
    14     6     8    1
    15     6     9    1
    16    24    25    2
    17     9    10    1
    18    28    18    1
    19    28    27    2
    20    18    17    1
    21    25    27    2
    22    25    26    1
    23    16    15    1
    24    15    17    1
    25    15    13    1
    26    17    12    1
    27    10    11    1
    28    12    11    1
    29    13    11    1
    30    13    14    1
