@<TRIPOS>MOLECULE
2gjk_ANP_A_1.pdb
 31 33 0 0 0
SMALL
GASTEIGER

@<TRIPOS>ATOM
      1  PG        33.4050   82.0970   16.1850 P.3   990  ANP990      0.4884
      2  O1G       32.2870   80.9910   16.3730 O.3   990  ANP990     -0.1240
      3  O2G       34.8400   81.4570   16.0730 O.3   990  ANP990     -0.1240
      4  O3G       33.1330   82.9680   14.8820 O.2   990  ANP990     -0.2331
      5  PB        31.8950   83.8490   18.0520 P.3   990  ANP990      0.4669
      6  O1B       31.5800   85.0340   17.0650 O.2   990  ANP990     -0.2351
      7  O2B       30.7600   82.7400   18.0150 O.3   990  ANP990     -0.1253
      8  N3B       33.3870   83.1070   17.5830 N.3   990  ANP990     -0.0163
      9  PA        31.5960   83.7350   20.8350 P.3   990  ANP990      0.2220
     10  O1A       30.1030   84.1830   21.1000 O.3   990  ANP990     -0.4370
     11  O2A       31.6780   82.1530   20.7430 O.2   990  ANP990     -0.5170
     12  O3A       32.1530   84.4430   19.5130 O.3   990  ANP990     -0.2360
     13  O5'       32.6010   84.3170   21.9320 O.3   990  ANP990     -0.3111
     14  C5'       32.2360   84.1800   23.2960 C.3   990  ANP990      0.1813
     15  C4'       33.3830   84.6170   24.1830 C.3   990  ANP990      0.1821
     16  O4'       33.6870   85.9800   23.9010 O.3   990  ANP990     -0.3135
     17  C3'       32.9520   84.4960   25.6310 C.3   990  ANP990      0.2184
     18  O3'       33.8720   83.6580   26.3110 O.3   990  ANP990     -0.2174
     19  C2'       32.9750   85.9020   26.1930 C.3   990  ANP990      0.2570
     20  O2'       33.8260   85.9920   27.3340 O.3   990  ANP990     -0.2130
     21  C1'       33.4580   86.7970   25.0530 C.3   990  ANP990      0.3186
     22  N9        32.4520   87.8430   24.7450 N.pl3 990  ANP990     -0.1439
     23  C8        31.5440   87.8630   23.7350 C.3   990  ANP990      0.3377
     24  N7        30.7710   88.9970   23.7540 N.2   990  ANP990     -0.2095
     25  C5        31.1880   89.7300   24.7980 C.2   990  ANP990      0.2526
     26  C6        30.8870   91.0180   25.4700 C.2   990  ANP990      0.4393
     27  N6        29.9070   91.8130   24.9890 N.pl3 990  ANP990      0.2180
     28  N1        31.6050   91.3800   26.5630 N.2   990  ANP990      0.0021
     29  C2        32.5910   90.6300   27.0920 C.3   990  ANP990      0.5254
     30  N3        32.9550   89.4470   26.5730 N.2   990  ANP990     -0.0055
     31  C4        32.2580   88.9680   25.4080 C.2   990  ANP990      0.3518
@<TRIPOS>BOND
     1     4     1    2
     2     3     1    1
     3     1     2    1
     4     1     8    1
     5     6     5    2
     6     8     5    1
     7     7     5    1
     8     5    12    1
     9    12     9    1
    10    11     9    2
    11     9    10    1
    12     9    13    1
    13    13    14    1
    14    14    15    1
    15    23    24    1
    16    23    22    1
    17    24    25    2
    18    16    15    1
    19    16    21    1
    20    15    17    1
    21    22    21    1
    22    22    31    1
    23    25    31    1
    24    25    26    1
    25    27    26    1
    26    21    19    1
    27    31    30    2
    28    26    28    2
    29    17    19    1
    30    17    18    1
    31    19    20    1
    32    28    29    1
    33    30    29    1
