@<TRIPOS>MOLECULE
2gjl_FMN_A_1.pdb
 31 33 0 0 0
SMALL
GASTEIGER

@<TRIPOS>ATOM
      1  N1        29.8740   36.3840   24.1420 N.2   1904  FMN1904    -0.2887
      2  C2        29.6570   36.9500   22.9030 C.1   1904  FMN1904     0.3669
      3  O2        28.5620   37.3320   22.5340 O.2   1904  FMN1904    -0.1744
      4  N3        30.7960   37.0600   22.0710 N.2   1904  FMN1904    -0.2300
      5  C4        32.1360   36.6530   22.3700 C.1   1904  FMN1904     0.2513
      6  O4        33.0240   36.8090   21.5400 O.2   1904  FMN1904    -0.2057
      7  C4A       32.3020   36.0810   23.6440 C.2   1904  FMN1904     0.2703
      8  N5        33.4850   35.6000   24.1610 N.2   1904  FMN1904    -0.3882
      9  C5A       33.7640   35.0030   25.3860 C.2   1904  FMN1904     0.1277
     10  C6        35.1210   34.5410   25.7130 C.3   1904  FMN1904     0.0820
     11  C7        35.3540   33.8960   27.0130 C.2   1904  FMN1904    -0.0408
     12  C7M       36.7790   33.4210   27.3010 C.3   1904  FMN1904     0.0265
     13  C8        34.2220   33.7340   27.9660 C.2   1904  FMN1904    -0.0280
     14  C8M       34.3250   33.0680   29.3770 C.3   1904  FMN1904     0.0304
     15  C9        32.9080   34.2180   27.5780 C.2   1904  FMN1904     0.0123
     16  C9A       32.6590   34.8560   26.2790 C.2   1904  FMN1904     0.0793
     17  N10       31.4080   35.3470   25.7940 N.pl3 1904  FMN1904    -0.2545
     18  C10       31.1330   35.9590   24.5160 C.2   1904  FMN1904     0.2449
     19  C1'       30.1950   35.1920   26.7340 C.3   1904  FMN1904     0.1336
     20  C2'       29.5690   33.7800   26.6700 C.3   1904  FMN1904     0.2048
     21  O2'       29.0810   33.5000   25.3620 O.3   1904  FMN1904    -0.2185
     22  C3'       28.4050   33.6140   27.6610 C.3   1904  FMN1904     0.2165
     23  O3'       27.3210   34.4580   27.3220 O.3   1904  FMN1904    -0.2175
     24  C4'       28.8680   33.8340   29.1490 C.3   1904  FMN1904     0.2147
     25  O4'       30.1170   33.1480   29.4050 O.3   1904  FMN1904    -0.2176
     26  C5'       27.9050   33.2770   30.1620 C.3   1904  FMN1904     0.1892
     27  O5'       28.4140   33.4590   31.4640 O.3   1904  FMN1904    -0.2674
     28  P         29.1360   32.3230   32.2870 P.3   1904  FMN1904     0.5327
     29  O1P       28.6420   31.0060   31.8030 O.2   1904  FMN1904    -0.2224
     30  O2P       30.5690   32.5280   31.9950 O.3   1904  FMN1904    -0.1145
     31  O3P       28.8280   32.6830   33.6840 O.3   1904  FMN1904    -0.1145
@<TRIPOS>BOND
     1     6     5    2
     2     4     5    2
     3     4     2    2
     4     5     7    1
     5     3     2    2
     6     2     1    2
     7     7     8    2
     8     7    18    1
     9     1    18    2
    10     8     9    2
    11    18    17    1
    12    21    20    1
    13     9    10    1
    14     9    16    1
    15    10    11    1
    16    17    16    1
    17    17    19    1
    18    16    15    2
    19    20    19    1
    20    20    22    1
    21    11    12    1
    22    11    13    2
    23    23    22    1
    24    15    13    1
    25    22    24    1
    26    13    14    1
    27    24    25    1
    28    24    26    1
    29    26    27    1
    30    27    28    1
    31    29    28    2
    32    30    28    1
    33    28    31    1
