@<TRIPOS>MOLECULE
2gjm_HEM_A_1.pdb
 43 50 0 0 0
SMALL
GASTEIGER

@<TRIPOS>ATOM
      1  CHA        8.7950   -0.2700   28.9260 C.2   605  HEM605      0.0000
      2  CHB        8.9710    4.5190   28.7590 C.2   605  HEM605      0.0000
      3  CHC       10.9980    4.3090   24.3310 C.2   605  HEM605      0.0000
      4  CHD       10.9620   -0.5770   24.5210 C.2   605  HEM605      0.0000
      5  C1A        8.6580    1.0200   29.3080 C.2   605  HEM605      0.0000
      6  C2A        8.1170    1.4620   30.5740 C.2   605  HEM605      0.0000
      7  C3A        8.1560    2.8150   30.5490 C.2   605  HEM605      0.0000
      8  C4A        8.7400    3.2370   29.2460 C.2   605  HEM605      0.0000
      9  CMA        7.6860    3.7600   31.6830 C.3   605  HEM605      0.0000
     10  CAA        7.5990    0.5000   31.6880 C.3   605  HEM605      0.0000
     11  CBA        8.8380    0.0210   32.4720 C.3   605  HEM605      0.0000
     12  CGA        8.5180   -0.9510   33.5910 C.2   605  HEM605      0.0000
     13  O1A        7.5210   -0.7580   34.3580 O.co2 605  HEM605      0.0000
     14  O2A        9.2640   -1.9500   33.7250 O.co2 605  HEM605      0.0000
     15  C1B        9.5160    4.9220   27.5280 C.ar  605  HEM605      0.0000
     16  C2B        9.7190    6.2890   27.0500 C.ar  605  HEM605      0.0000
     17  C3B       10.2790    6.2470   25.8050 C.ar  605  HEM605      0.0000
     18  C4B       10.4430    4.8370   25.4850 C.ar  605  HEM605      0.0000
     19  CMB        9.3570    7.5470   27.8540 C.3   605  HEM605      0.0000
     20  CAB       10.7000    7.4420   24.8460 C.2   605  HEM605      0.0000
     21  CBB       10.4660    8.7670   25.0360 C.2   605  HEM605      0.0000
     22  C1C       11.1800    2.9740   23.9870 C.2   605  HEM605      0.0000
     23  C2C       11.8060    2.5160   22.7650 C.2   605  HEM605      0.0000
     24  C3C       11.8260    1.1330   22.7780 C.2   605  HEM605      0.0000
     25  C4C       11.1890    0.7250   24.0450 C.2   605  HEM605      0.0000
     26  CMC       12.3170    3.5560   21.7170 C.3   605  HEM605      0.0000
     27  CAC       12.3800    0.1220   21.7340 C.2   605  HEM605      0.0000
     28  CBC       12.9820    0.4300   20.5530 C.2   605  HEM605      0.0000
     29  C1D       10.2810   -0.9680   25.6800 C.ar  605  HEM605      0.0000
     30  C2D        9.6850   -2.3030   25.9580 C.ar  605  HEM605      0.0000
     31  C3D        9.0370   -2.2060   27.3110 C.ar  605  HEM605      0.0000
     32  C4D        9.2970   -0.8610   27.7630 C.ar  605  HEM605      0.0000
     33  CMD        9.6460   -3.5980   25.1400 C.3   605  HEM605      0.0000
     34  CAD        8.2690   -3.3410   28.0080 C.2   605  HEM605      0.0000
     35  CBD        6.7740   -3.6460   28.0300 C.2   605  HEM605      0.0000
     36  CGD        5.8350   -4.5250   28.7830 C.2   605  HEM605      0.0000
     37  O1D        5.8770   -5.7670   28.5470 O.co2 605  HEM605      0.0000
     38  O2D        5.0380   -4.0040   29.6060 O.co2 605  HEM605      0.0000
     39  NA         9.0190    2.1040   28.5490 N.2   605  HEM605      0.0000
     40  NB         9.9700    4.0900   26.5470 N.ar  605  HEM605      0.0000
     41  NC        10.8250    1.8590   24.7300 N.2   605  HEM605      0.0000
     42  ND        10.0130   -0.1640   26.8030 N.ar  605  HEM605      0.0000
     43 FE         10.1310    2.0450   26.8330 Fe    605  HEM605      0.0000
@<TRIPOS>BOND
     1    28    27    2
     2    26    23    1
     3    27    24    1
     4    23    24    2
     5    23    22    1
     6    24    25    1
     7    22     3    2
     8    22    41    1
     9    25     4    1
    10    25    41    2
    11     3    18    1
    12     4    29    2
    13    41    43    1
    14    20    21    2
    15    20    17    1
    16    33    30    1
    17    18    17   ar
    18    18    40   ar
    19    29    30   ar
    20    29    42   ar
    21    17    16   ar
    22    30    31   ar
    23    40    43    1
    24    40    15   ar
    25    42    43    1
    26    42    32   ar
    27    43    39    1
    28    16    15   ar
    29    16    19    1
    30    31    32   ar
    31    31    34    1
    32    15     2    1
    33    32     1    2
    34    34    35    2
    35    35    36    1
    36    37    36   ar
    37    39     8    1
    38    39     5    2
    39     2     8    2
    40    36    38   ar
    41     1     5    1
    42     8     7    1
    43     5     6    1
    44     7     6    2
    45     7     9    1
    46     6    10    1
    47    10    11    1
    48    11    12    1
    49    12    14   ar
    50    12    13   ar
