@<TRIPOS>MOLECULE
2gjn_FMN_A_1.pdb
 31 33 0 0 0
SMALL
GASTEIGER

@<TRIPOS>ATOM
      1  N1        30.1530  124.2140  -43.0510 N.2   1904  FMN1904    -0.2887
      2  C2        29.5630  124.3530  -44.2870 C.1   1904  FMN1904     0.3669
      3  O2        28.6830  123.6160  -44.6880 O.2   1904  FMN1904    -0.1744
      4  N3        30.0470  125.4170  -45.0790 N.2   1904  FMN1904    -0.2300
      5  C4        31.0700  126.3510  -44.7430 C.1   1904  FMN1904     0.2513
      6  O4        31.3830  127.2190  -45.5400 O.2   1904  FMN1904    -0.2057
      7  C4A       31.6460  126.1620  -43.4700 C.2   1904  FMN1904     0.2703
      8  N5        32.6590  126.9230  -42.9220 N.2   1904  FMN1904    -0.3882
      9  C5A       33.3140  126.8320  -41.7000 C.2   1904  FMN1904     0.1277
     10  C6        34.3990  127.7660  -41.3460 C.3   1904  FMN1904     0.0820
     11  C7        35.0730  127.6150  -40.0450 C.2   1904  FMN1904    -0.0408
     12  C7M       36.2000  128.6020  -39.7260 C.3   1904  FMN1904     0.0265
     13  C8        34.6380  126.5290  -39.1200 C.2   1904  FMN1904    -0.0280
     14  C8M       35.2580  126.2460  -37.7150 C.3   1904  FMN1904     0.0304
     15  C9        33.5560  125.6480  -39.5370 C.2   1904  FMN1904     0.0123
     16  C9A       32.8800  125.7840  -40.8370 C.2   1904  FMN1904     0.0793
     17  N10       31.8160  124.9600  -41.3570 N.pl3 1904  FMN1904    -0.2545
     18  C10       31.1560  125.0710  -42.6390 C.2   1904  FMN1904     0.2449
     19  C1'       31.3210  123.8120  -40.4560 C.3   1904  FMN1904     0.1336
     20  C2'       32.2330  122.5600  -40.4290 C.3   1904  FMN1904     0.2048
     21  O2'       32.3730  121.9710  -41.7150 O.3   1904  FMN1904    -0.2185
     22  C3'       31.6890  121.4980  -39.4560 C.3   1904  FMN1904     0.2165
     23  O3'       30.3860  121.0610  -39.8220 O.3   1904  FMN1904    -0.2175
     24  C4'       31.7310  122.0170  -37.9740 C.3   1904  FMN1904     0.2147
     25  O4'       32.9220  122.8050  -37.7410 O.3   1904  FMN1904    -0.2176
     26  C5'       31.7890  120.9180  -36.9510 C.3   1904  FMN1904     0.1892
     27  O5'       31.8820  121.4740  -35.6610 O.3   1904  FMN1904    -0.2674
     28  P         33.2140  121.5730  -34.8310 P.3   1904  FMN1904     0.5327
     29  O1P       34.1510  120.5390  -35.3260 O.2   1904  FMN1904    -0.2224
     30  O2P       33.6960  122.9430  -35.0840 O.3   1904  FMN1904    -0.1145
     31  O3P       32.7410  121.4440  -33.4500 O.3   1904  FMN1904    -0.1145
@<TRIPOS>BOND
     1     6     5    2
     2     4     5    2
     3     4     2    2
     4     5     7    1
     5     3     2    2
     6     2     1    2
     7     7     8    2
     8     7    18    1
     9     1    18    2
    10     8     9    2
    11    18    17    1
    12    21    20    1
    13     9    10    1
    14     9    16    1
    15    17    16    1
    16    17    19    1
    17    10    11    1
    18    16    15    2
    19    19    20    1
    20    20    22    1
    21    11    12    1
    22    11    13    2
    23    23    22    1
    24    15    13    1
    25    22    24    1
    26    13    14    1
    27    24    25    1
    28    24    26    1
    29    26    27    1
    30    27    28    1
    31    29    28    2
    32    30    28    1
    33    28    31    1
