@<TRIPOS>MOLECULE
2gjp_DAF_A_1.pdb
 21 22 0 0 0
SMALL
GASTEIGER

@<TRIPOS>ATOM
      1  C1        23.4740   25.7630   80.2870 C.3   1492  DAF1492     0.1775
      2  C2        22.1710   26.5850   80.3130 C.3   1492  DAF1492     0.2129
      3  C3        22.1120   27.6580   79.2260 C.3   1492  DAF1492     0.2028
      4  C4        23.3600   28.5300   79.3610 C.3   1492  DAF1492     0.1327
      5  C5        24.5410   27.5790   79.1580 C.3   1492  DAF1492     0.1339
      6  C6        25.8400   28.3480   78.9750 C.3   1492  DAF1492     0.0336
      7  O2        21.0160   25.7790   80.1290 O.3   1492  DAF1492    -0.2177
      8  O3        20.8860   28.4030   79.3270 O.3   1492  DAF1492    -0.2187
      9  O5        24.5820   26.6900   80.2890 O.3   1492  DAF1492    -0.3519
     10  N4        23.3950   29.7640   78.5320 N.3   1492  DAF1492    -0.2131
     11  C1H       22.8160   31.0330   79.0850 C.3   1492  DAF1492     0.1060
     12  C2H       23.5000   32.3700   78.7260 C.3   1492  DAF1492     0.2005
     13  C3H       24.9530   32.1930   79.1030 C.3   1492  DAF1492     0.2136
     14  C4H       25.0220   32.3560   80.6100 C.3   1492  DAF1492     0.1872
     15  C5H       23.7650   31.7940   81.2670 C.3   1492  DAF1492     0.0675
     16  C6H       22.8710   31.0400   80.6030 C.3   1492  DAF1492     0.0253
     17  C7H       23.4520   32.0790   82.7090 C.3   1492  DAF1492     0.1847
     18  O2H       23.3330   32.8210   77.3750 O.3   1492  DAF1492    -0.2188
     19  O3H       25.8380   33.1140   78.4760 O.3   1492  DAF1492    -0.2176
     20  O4H       26.2060   31.6450   80.9820 O.3   1492  DAF1492    -0.2202
     21  O7H       24.6660   32.3220   83.4370 O.3   1492  DAF1492    -0.2203
@<TRIPOS>BOND
     1    18    12    1
     2    19    13    1
     3    10    11    1
     4    10     4    1
     5    12    11    1
     6    12    13    1
     7     6     5    1
     8    11    16    1
     9    13    14    1
    10     5     4    1
    11     5     9    1
    12     3     8    1
    13     3     4    1
    14     3     2    1
    15     7     2    1
    16     1     9    1
    17     1     2    1
    18    16    15    1
    19    14    20    1
    20    14    15    1
    21    15    17    1
    22    17    21    1
