@<TRIPOS>MOLECULE
2gjp_BGC_A_1.pdb
 12 12 0 0 0
SMALL
GASTEIGER

@<TRIPOS>ATOM
      1  C2        22.5050   19.0490   74.0420 C.3   1490  BGC1490     0.2434
      2  C3        22.3490   20.2150   75.0020 C.3   1490  BGC1490     0.2199
      3  C4        23.6430   20.2810   75.7810 C.3   1490  BGC1490     0.2144
      4  C5        24.7530   20.6240   74.7850 C.3   1490  BGC1490     0.1836
      5  C6        26.0860   20.8910   75.4970 C.3   1490  BGC1490     0.2142
      6  C1        23.6110   19.4340   73.0520 C.3   1490  BGC1490     0.3024
      7  O1        23.7770   18.4690   71.9980 O.3   1490  BGC1490    -0.1869
      8  O2        21.2220   18.7750   73.4820 O.3   1490  BGC1490    -0.2148
      9  O3        21.2270   20.0370   75.8840 O.3   1490  BGC1490    -0.2174
     10  O4        23.5130   21.2470   76.8340 O.3   1490  BGC1490    -0.2176
     11  O5        24.8480   19.5910   73.7770 O.3   1490  BGC1490    -0.3236
     12  O6        26.9840   19.7730   75.4520 O.3   1490  BGC1490    -0.2176
@<TRIPOS>BOND
     1     7     6    1
     2     6    11    1
     3     6     1    1
     4     8     1    1
     5    11     4    1
     6     1     2    1
     7     4     5    1
     8     4     3    1
     9     2     3    1
    10     2     9    1
    11    12     5    1
    12     3    10    1
