@<TRIPOS>MOLECULE
2gjp_GLC_A_1.pdb
 11 11 0 0 0
SMALL
GASTEIGER

@<TRIPOS>ATOM
      1  C1        23.8110   20.8770   78.0970 C.3   1491  GLC1491     0.1777
      2  C2        22.6100   21.2380   78.9800 C.3   1491  GLC1491     0.2141
      3  C3        22.4080   22.7450   78.8890 C.3   1491  GLC1491     0.2173
      4  C4        23.6610   23.4610   79.4010 C.3   1491  GLC1491     0.2142
      5  C5        24.8850   22.9290   78.6220 C.3   1491  GLC1491     0.1810
      6  C6        26.2370   23.4740   79.1190 C.3   1491  GLC1491     0.2141
      7  O2        21.4740   20.6060   78.4500 O.3   1491  GLC1491    -0.2176
      8  O3        21.1940   23.1390   79.5070 O.3   1491  GLC1491    -0.2175
      9  O4        23.5270   24.8830   79.2570 O.3   1491  GLC1491    -0.2176
     10  O5        24.9690   21.5040   78.6230 O.3   1491  GLC1491    -0.3481
     11  O6        26.3960   23.0600   80.4530 O.3   1491  GLC1491    -0.2176
@<TRIPOS>BOND
     1     1    10    1
     2     1     2    1
     3     7     2    1
     4     5    10    1
     5     5     6    1
     6     5     4    1
     7     3     2    1
     8     3     4    1
     9     3     8    1
    10     6    11    1
    11     9     4    1
