@<TRIPOS>MOLECULE
2gjp_MAL_A_1.pdb
 23 24 0 0 0
SMALL
GASTEIGER

@<TRIPOS>ATOM
      1  C1        33.2150   22.7760   50.1900 C.3   1400  MAL1400     0.2695
      2  C2        32.4380   21.6720   49.4850 C.3   1400  MAL1400     0.2406
      3  C3        33.3060   21.0950   48.3640 C.3   1400  MAL1400     0.2198
      4  C4        33.6120   22.2230   47.4000 C.3   1400  MAL1400     0.2144
      5  C5        34.3750   23.3000   48.1570 C.3   1400  MAL1400     0.1835
      6  C6        34.7480   24.4730   47.2790 C.3   1400  MAL1400     0.2142
      7  O1        34.3260   22.1720   50.7760 O.3   1400  MAL1400    -0.3257
      8  O2        32.1360   20.6990   50.4420 O.3   1400  MAL1400    -0.2149
      9  O3        32.6440   20.0760   47.6410 O.3   1400  MAL1400    -0.2174
     10  O4        34.3440   21.7480   46.2880 O.3   1400  MAL1400    -0.2176
     11  O5        33.6480   23.7790   49.2820 O.3   1400  MAL1400    -0.3256
     12  O6        35.0640   25.5410   48.1470 O.3   1400  MAL1400    -0.2176
     13  C1'       35.9300   22.5820   54.6450 C.3   1400  MAL1400     0.3023
     14  C2'       34.9180   21.4780   54.3490 C.3   1400  MAL1400     0.2433
     15  C3'       34.7570   21.2030   52.8700 C.3   1400  MAL1400     0.2168
     16  C4'       34.6060   22.5080   52.1140 C.3   1400  MAL1400     0.1804
     17  C5'       35.9100   23.2610   52.2220 C.3   1400  MAL1400     0.1804
     18  C6'       35.7170   24.7090   51.8020 C.3   1400  MAL1400     0.2141
     19  O1'       36.9590   21.9900   55.3910 O.3   1400  MAL1400    -0.1869
     20  O2'       35.2710   20.2520   54.9640 O.3   1400  MAL1400    -0.2148
     21  O3'       33.5520   20.4830   52.7230 O.3   1400  MAL1400    -0.2175
     22  O5'       36.5090   23.2330   53.5130 O.3   1400  MAL1400    -0.3237
     23  O6'       37.0210   25.2440   51.8400 O.3   1400  MAL1400    -0.2176
@<TRIPOS>BOND
     1    10     4    1
     2     6    12    1
     3     6     5    1
     4     4     5    1
     5     4     3    1
     6     9     3    1
     7     5    11    1
     8     3     2    1
     9    11     1    1
    10     2     1    1
    11     2     8    1
    12     1     7    1
    13     7    16    1
    14    18    23    1
    15    18    17    1
    16    16    17    1
    17    16    15    1
    18    17    22    1
    19    21    15    1
    20    15    14    1
    21    22    13    1
    22    14    13    1
    23    14    20    1
    24    13    19    1
