@<TRIPOS>MOLECULE
2gjs_GDP_A_1.pdb
 28 30 0 0 0
SMALL
GASTEIGER

@<TRIPOS>ATOM
      1  PB        41.2190   34.5950   24.3830 P.3   1184  GDP1184     0.5373
      2  O1B       39.9050   35.2780   24.2700 O.3   1184  GDP1184    -0.1143
      3  O2B       42.3570   35.3210   24.8580 O.3   1184  GDP1184    -0.1143
      4  O3B       41.5920   34.0310   23.0070 O.2   1184  GDP1184    -0.2221
      5  O3A       41.0430   33.2420   25.3010 O.3   1184  GDP1184    -0.2261
      6  PA        41.1820   32.9960   26.8670 P.3   1184  GDP1184     0.2231
      7  O1A       40.4590   34.1200   27.5700 O.3   1184  GDP1184    -0.4370
      8  O2A       42.6230   32.8650   27.1930 O.2   1184  GDP1184    -0.5169
      9  O5'       40.3760   31.6250   27.0320 O.3   1184  GDP1184    -0.3111
     10  C5'       39.0160   31.5850   26.7820 C.3   1184  GDP1184     0.1813
     11  C4'       38.4070   30.3600   27.4000 C.3   1184  GDP1184     0.1799
     12  O4'       39.0970   29.1910   26.9630 O.3   1184  GDP1184    -0.3326
     13  C3'       38.5890   30.3980   28.9080 C.3   1184  GDP1184     0.2158
     14  O3'       37.3990   29.7760   29.4260 O.3   1184  GDP1184    -0.2175
     15  C2'       39.8530   29.6000   29.1340 C.3   1184  GDP1184     0.2310
     16  O2'       39.9950   28.9190   30.3910 O.3   1184  GDP1184    -0.2158
     17  C1'       39.6600   28.5220   28.1040 C.3   1184  GDP1184     0.2293
     18  N9        40.8340   27.8420   27.5690 N.pl3 1184  GDP1184    -0.2354
     19  C8        41.8510   28.4150   26.8780 C.3   1184  GDP1184     0.2246
     20  N7        42.7060   27.4770   26.4620 N.2   1184  GDP1184    -0.2322
     21  C5        42.2050   26.2660   26.8470 C.2   1184  GDP1184     0.2182
     22  C6        42.6320   24.8530   26.6580 C.1   1184  GDP1184     0.2372
     23  O6        43.6870   24.5890   26.0340 O.2   1184  GDP1184    -0.2069
     24  N1        41.8670   23.9120   27.2350 N.2   1184  GDP1184    -0.2485
     25  C2        40.7420   24.2230   27.9300 C.1   1184  GDP1184     0.2531
     26  N2        40.0340   23.2350   28.4780 N.pl3 1184  GDP1184    -0.0226
     27  N3        40.2730   25.4880   28.1140 N.2   1184  GDP1184    -0.3074
     28  C4        40.9720   26.5240   27.5770 C.2   1184  GDP1184     0.2300
@<TRIPOS>BOND
     1     4     1    2
     2     2     1    1
     3     1     3    1
     4     1     5    1
     5     5     6    1
     6    23    22    2
     7    20    21    2
     8    20    19    1
     9    22    21    1
    10    22    24    2
    11    10     9    1
    12    10    11    1
    13    21    28    1
    14     6     9    1
    15     6     8    2
    16     6     7    1
    17    19    18    1
    18    12    11    1
    19    12    17    1
    20    24    25    2
    21    11    13    1
    22    18    28    1
    23    18    17    1
    24    28    27    2
    25    25    27    2
    26    25    26    1
    27    17    15    1
    28    13    15    1
    29    13    14    1
    30    15    16    1
