@<TRIPOS>MOLECULE
2gjx_NAG_A_1.pdb
 14 14 0 0 0
SMALL
GASTEIGER

@<TRIPOS>ATOM
      1  C1        91.9710    1.9210  -17.6390 C.3     1  NAG1        0.1665
      2  C2        91.7670    2.3660  -19.0890 C.3     1  NAG1        0.1576
      3  C3        90.3070    2.7190  -19.3620 C.3     1  NAG1        0.2069
      4  C4        89.3500    1.6510  -18.8380 C.3     1  NAG1        0.2134
      5  C5        89.7260    1.2330  -17.4130 C.3     1  NAG1        0.1809
      6  C6        88.9100    0.0340  -16.9480 C.3     1  NAG1        0.2141
      7  C7        93.2900    3.5940  -20.5420 C.2     1  NAG1        0.2420
      8  C8        93.5460    4.9790  -21.0580 C.3     1  NAG1        0.0964
      9  N2        92.6130    3.5070  -19.3970 N.am    1  NAG1       -0.2019
     10  O3        90.1130    2.8840  -20.7490 O.3     1  NAG1       -0.2184
     11  O4        88.0400    2.1890  -18.8490 O.3     1  NAG1       -0.2176
     12  O5        91.0840    0.8670  -17.3550 O.3     1  NAG1       -0.3489
     13  O6        89.6180   -1.1500  -17.2400 O.3     1  NAG1       -0.2176
     14  O7        93.7000    2.6130  -21.1630 O.2     1  NAG1       -0.2733
@<TRIPOS>BOND
     1    14     7    2
     2     8     7    1
     3    10     3    1
     4     7     9   am
     5     9     2    1
     6     3     2    1
     7     3     4    1
     8     2     1    1
     9    11     4    1
    10     4     5    1
    11     1    12    1
    12     5    12    1
    13     5     6    1
    14    13     6    1
