@<TRIPOS>MOLECULE
2gjx_NDG_B_1.pdb
 14 14 0 0 0
SMALL
GASTEIGER

@<TRIPOS>ATOM
      1  C1       108.8630   23.2630   44.7290 C.3     8  NDG8        0.1665
      2  C2       109.1700   24.6790   44.2020 C.3     8  NDG8        0.1576
      3  C3       108.0150   25.3930   43.4560 C.3     8  NDG8        0.2069
      4  C4       106.5990   25.0450   43.9320 C.3     8  NDG8        0.2134
      5  C5       106.6120   23.8960   44.9340 C.3     8  NDG8        0.1809
      6  C6       105.2250   23.2780   45.0870 C.3     8  NDG8        0.2141
      7  C7       109.9940   26.8040   45.0660 C.2     8  NDG8        0.2420
      8  C8       109.2340   27.8310   45.8560 C.3     8  NDG8        0.0964
      9  O        107.5160   22.9130   44.4840 O.3     8  NDG8       -0.3489
     10  O3       108.1160   25.1310   42.0740 O.3     8  NDG8       -0.2184
     11  O4       105.9780   26.1910   44.4980 O.3     8  NDG8       -0.2176
     12  O6       104.7900   22.7620   43.8460 O.3     8  NDG8       -0.2176
     13  O7       110.8620   27.1570   44.2700 O.2     8  NDG8       -0.2733
     14  N2       109.6710   25.5250   45.2750 N.am    8  NDG8       -0.2019
@<TRIPOS>BOND
     1    10     3    1
     2     3     4    1
     3     3     2    1
     4    12     6    1
     5     4    11    1
     6     4     5    1
     7     2     1    1
     8     2    14    1
     9    13     7    2
    10     9     1    1
    11     9     5    1
    12     5     6    1
    13     7    14   am
    14     7     8    1
