@<TRIPOS>MOLECULE
2gk1_NAG_A_1.pdb
 14 14 0 0 0
SMALL
GASTEIGER

@<TRIPOS>ATOM
      1  C1       -68.2240   56.1780  -18.1560 C.3     1  NAG1        0.1665
      2  C2       -68.5340   56.2740  -19.6220 C.3     1  NAG1        0.1576
      3  C3       -69.9730   56.5560  -19.8430 C.3     1  NAG1        0.2069
      4  C4       -70.8310   55.5630  -19.1210 C.3     1  NAG1        0.2134
      5  C5       -70.4220   55.4500  -17.6540 C.3     1  NAG1        0.1809
      6  C6       -71.2140   54.3610  -16.9490 C.3     1  NAG1        0.2141
      7  C7       -67.0890   57.1070  -21.3930 C.2     1  NAG1        0.2420
      8  C8       -66.8290   58.3240  -22.2360 C.3     1  NAG1        0.0964
      9  N2       -67.7260   57.3100  -20.2320 N.am    1  NAG1       -0.2019
     10  O3       -70.2550   56.5060  -21.2210 O.3     1  NAG1       -0.2184
     11  O4       -72.1760   55.9600  -19.2020 O.3     1  NAG1       -0.2176
     12  O5       -69.0180   55.1520  -17.5690 O.3     1  NAG1       -0.3489
     13  O6       -71.0380   53.1360  -17.6290 O.3     1  NAG1       -0.2176
     14  O7       -66.7250   55.9860  -21.7770 O.2     1  NAG1       -0.2733
@<TRIPOS>BOND
     1     8     7    1
     2    14     7    2
     3     7     9   am
     4    10     3    1
     5     9     2    1
     6     3     2    1
     7     3     4    1
     8     2     1    1
     9    11     4    1
    10     4     5    1
    11     1    12    1
    12     5    12    1
    13     5     6    1
    14    13     6    1
