@<TRIPOS>MOLECULE
2gk1_NGT_A_1.pdb
 14 15 0 0 0
SMALL
GASTEIGER

@<TRIPOS>ATOM
      1  C1       -74.8870   67.9980   13.9880 C.3    21  NGT21       0.1925
      2  C2       -74.2600   69.4410   14.0530 C.3    21  NGT21       0.1740
      3  C3       -72.7540   69.4030   14.5450 C.3    21  NGT21       0.2101
      4  C4       -72.5080   68.3500   15.6130 C.3    21  NGT21       0.2137
      5  C5       -73.0020   66.9990   15.1390 C.3    21  NGT21       0.1820
      6  C6       -72.7380   65.8670   16.1190 C.3    21  NGT21       0.2142
      7  C7       -74.4620   69.1380   11.7700 C.2    21  NGT21       0.0815
      8  C8       -74.5910   69.4250   10.3090 C.3    21  NGT21       0.0587
      9  N2       -74.3150   70.0100   12.7030 N.2    21  NGT21      -0.2643
     10  S1       -74.5180   67.4340   12.2690 S.3    21  NGT21      -0.0689
     11  O3       -72.3730   70.6850   15.0180 O.3    21  NGT21      -0.2181
     12  O4       -71.1200   68.2920   15.8950 O.3    21  NGT21      -0.2176
     13  O5       -74.4350   67.0480   14.9000 O.3    21  NGT21      -0.3400
     14  O6       -73.3630   64.6530   15.6770 O.3    21  NGT21      -0.2176
@<TRIPOS>BOND
     1     8     7    1
     2     7    10    1
     3     7     9    2
     4    10     1    1
     5     9     2    1
     6     1     2    1
     7     1    13    1
     8     2     3    1
     9     3    11    1
    10     3     4    1
    11    13     5    1
    12     5     4    1
    13     5     6    1
    14     4    12    1
    15    14     6    1
