@<TRIPOS>MOLECULE
2gk6_ADP_A_1.pdb
 27 29 0 0 0
SMALL
GASTEIGER

@<TRIPOS>ATOM
      1  PB         1.4230   -9.8230   10.3660 P.3   1001  ADP1001     0.5373
      2  O1B        0.3870   -8.9550    9.7640 O.3   1001  ADP1001    -0.1143
      3  O2B        1.4050  -11.2190    9.7390 O.2   1001  ADP1001    -0.2221
      4  O3B        2.8130   -9.2270   10.1950 O.3   1001  ADP1001    -0.1143
      5  PA         0.5760   -8.7640   12.8030 P.3   1001  ADP1001     0.2231
      6  O1A        1.0830   -7.4670   12.3380 O.2   1001  ADP1001    -0.5169
      7  O2A       -0.9570   -8.7780   12.8470 O.3   1001  ADP1001    -0.4370
      8  O3A        1.1260   -9.9890   11.9180 O.3   1001  ADP1001    -0.2261
      9  O5'        1.2310   -9.1160   14.2150 O.3   1001  ADP1001    -0.3111
     10  C5'        0.5670   -8.5470   15.2980 C.3   1001  ADP1001     0.1813
     11  C4'        1.0370   -9.1950   16.5830 C.3   1001  ADP1001     0.1821
     12  O4'        2.4210   -9.1910   16.8370 O.3   1001  ADP1001    -0.3135
     13  C3'        0.3540   -8.4940   17.7550 C.3   1001  ADP1001     0.2184
     14  O3'       -0.5020   -9.4330   18.3870 O.3   1001  ADP1001    -0.2174
     15  C2'        1.4650   -7.7920   18.5090 C.3   1001  ADP1001     0.2570
     16  O2'        1.3880   -8.0450   19.9020 O.3   1001  ADP1001    -0.2130
     17  C1'        2.7570   -8.3350   17.9100 C.3   1001  ADP1001     0.3186
     18  N9         3.6370   -7.2320   17.4820 N.pl3 1001  ADP1001    -0.1439
     19  C8         3.9700   -6.8390   16.2110 C.3   1001  ADP1001     0.3377
     20  N7         4.8110   -5.7820   16.2950 N.2   1001  ADP1001    -0.2095
     21  C5         5.0220   -5.4970   17.6000 C.2   1001  ADP1001     0.2526
     22  C6         5.7870   -4.5320   18.2520 C.2   1001  ADP1001     0.4393
     23  N6         6.6920   -3.8250   17.5820 N.pl3 1001  ADP1001     0.2180
     24  N1         5.7930   -4.4930   19.6310 N.2   1001  ADP1001     0.0021
     25  C2         5.0570   -5.4050   20.3630 C.3   1001  ADP1001     0.5254
     26  N3         4.3020   -6.3590   19.7140 N.2   1001  ADP1001    -0.0055
     27  C4         4.2890   -6.4040   18.3560 C.2   1001  ADP1001     0.3518
@<TRIPOS>BOND
     1     3     1    2
     2     2     1    1
     3     4     1    1
     4     1     8    1
     5     8     5    1
     6     6     5    2
     7     5     7    1
     8     5     9    1
     9     9    10    1
    10    10    11    1
    11    19    20    1
    12    19    18    1
    13    20    21    2
    14    11    12    1
    15    11    13    1
    16    12    17    1
    17    18    17    1
    18    18    27    1
    19    23    22    1
    20    21    22    1
    21    21    27    1
    22    13    14    1
    23    13    15    1
    24    17    15    1
    25    22    24    2
    26    27    26    2
    27    15    16    1
    28    24    25    1
    29    26    25    1
