@<TRIPOS>MOLECULE
2gke_ZDP_A_1.pdb
 14 13 0 0 0
SMALL
GASTEIGER

@<TRIPOS>ATOM
      1  OAE       21.9130   18.9110    7.4020 O.co2 700  ZDP700     -0.2441
      2  CAP       21.8820   17.9440    6.6000 C.2   700  ZDP700      0.3819
      3  OAG       21.7030   18.1320    5.3710 O.co2 700  ZDP700     -0.2441
      4  CAS       22.0850   16.5610    7.1190 C.3   700  ZDP700      0.1943
      5  NAB       21.6110   15.5910    6.1290 N.3   700  ZDP700     -0.1208
      6  CAK       23.5920   16.3610    7.3860 C.3   700  ZDP700      0.0307
      7  CAJ       23.9400   14.9720    7.9540 C.3   700  ZDP700      0.0041
      8  CAM       23.5300   14.8230    9.4240 C.3   700  ZDP700      0.0287
      9  CAT       23.9130   13.4690   10.0450 C.3   700  ZDP700      0.1699
     10  NAC       22.8830   12.4380    9.7080 N.3   700  ZDP700     -0.1229
     11  CAQ       23.9560   13.5630   11.5630 C.2   700  ZDP700      0.3799
     12  OAH       24.1720   12.4980   12.1730 O.co2 700  ZDP700     -0.2441
     13  OAF       23.7570   14.6740   12.1580 O.co2 700  ZDP700     -0.2441
     14  CAN       25.2160   12.9430    9.4100 C.3   700  ZDP700      0.0306
@<TRIPOS>BOND
     1     3     2   ar
     2     5     4    1
     3     2     4    1
     4     2     1   ar
     5     4     6    1
     6     6     7    1
     7     7     8    1
     8    14     9    1
     9     8     9    1
    10    10     9    1
    11     9    11    1
    12    11    13   ar
    13    11    12   ar
