@<TRIPOS>MOLECULE
2gkj_ZDR_A_1.pdb
 14 13 0 0 0
SMALL
GASTEIGER

@<TRIPOS>ATOM
      1  CAN       21.6960   12.7830    9.9840 C.3   700  ZDR700      0.0306
      2  CAT       23.1000   13.4110    9.9710 C.3   700  ZDR700      0.1699
      3  NAC       23.9210   12.5440    9.2280 N.3   700  ZDR700     -0.1229
      4  CAQ       23.5820   13.5440   11.3440 C.2   700  ZDR700      0.3799
      5  OAF       23.6140   14.6280   11.9840 O.co2 700  ZDR700     -0.2441
      6  OAH       24.0400   12.4870   11.8440 O.co2 700  ZDR700     -0.2441
      7  CAM       22.9930   14.7420    9.3270 C.3   700  ZDR700      0.0287
      8  CAJ       23.5540   14.8470    7.8960 C.3   700  ZDR700      0.0041
      9  CAK       23.3600   16.2500    7.2820 C.3   700  ZDR700      0.0307
     10  CAS       21.9620   16.5030    6.7060 C.3   700  ZDR700      0.1943
     11  NAB       21.7030   15.6430    5.5710 N.3   700  ZDR700     -0.1208
     12  CAP       21.8490   17.9290    6.2140 C.2   700  ZDR700      0.3819
     13  OAE       21.8460   18.8290    7.0740 O.co2 700  ZDR700     -0.2441
     14  OAG       21.7810   18.1940    4.9840 O.co2 700  ZDR700     -0.2441
@<TRIPOS>BOND
     1    14    12   ar
     2    11    10    1
     3    12    10    1
     4    12    13   ar
     5    10     9    1
     6     9     8    1
     7     8     7    1
     8     3     2    1
     9     7     2    1
    10     2     1    1
    11     2     4    1
    12     4     6   ar
    13     4     5   ar
