@<TRIPOS>MOLECULE
2gkl_PD2_A_1.pdb
 12 12 0 0 0
SMALL
GASTEIGER

@<TRIPOS>ATOM
      1  O42       19.3660   49.2270   66.3240 O.co2   2  PD22       -0.2406
      2  C41       18.2170   49.0580   66.8030 C.2     2  PD22        0.3879
      3  O41       17.2940   49.8860   66.6170 O.co2   2  PD22       -0.2406
      4  C4        17.9230   47.8450   67.6490 C.ar    2  PD22        0.0830
      5  C5        16.6120   47.4010   67.7940 C.ar    2  PD22        0.0273
      6  C6        16.3330   46.2900   68.5930 C.ar    2  PD22        0.0993
      7  C3        18.9400   47.1580   68.3170 C.ar    2  PD22        0.0325
      8  C2        18.6080   46.0370   69.0900 C.ar    2  PD22        0.1610
      9  N1        17.3200   45.6470   69.2100 N.ar    2  PD22       -0.2372
     10  C21       19.6640   45.2600   69.8330 C.2     2  PD22        0.4051
     11  O21       20.8630   45.6440   69.7830 O.co2   2  PD22       -0.2388
     12  O22       19.3010   44.2530   70.4800 O.co2   2  PD22       -0.2388
@<TRIPOS>BOND
     1     1     2   ar
     2     3     2   ar
     3     2     4    1
     4     4     5   ar
     5     4     7   ar
     6     5     6   ar
     7     7     8   ar
     8     6     9   ar
     9     8     9   ar
    10     8    10    1
    11    11    10   ar
    12    10    12   ar
