@<TRIPOS>MOLECULE
2gkm_HEM_A_1.pdb
 43 50 0 0 0
SMALL
GASTEIGER

@<TRIPOS>ATOM
      1 FE        -17.0220   19.0430  -16.3920 Fe    144  HEM144      0.0000
      2  CHA      -16.2480   21.2720  -18.8660 C.2   144  HEM144      0.0000
      3  CHB      -15.1170   20.8000  -14.1920 C.2   144  HEM144      0.0000
      4  CHC      -17.9950   16.9300  -13.8540 C.2   144  HEM144      0.0000
      5  CHD      -18.8030   17.1280  -18.6330 C.2   144  HEM144      0.0000
      6  NA       -15.9460   20.7640  -16.5070 N.2   144  HEM144      0.0000
      7  C1A      -15.6480   21.4700  -17.6460 C.2   144  HEM144      0.0000
      8  C2A      -14.6300   22.4610  -17.3400 C.2   144  HEM144      0.0000
      9  C3A      -14.3230   22.3220  -16.0430 C.2   144  HEM144      0.0000
     10  C4A      -15.1270   21.2500  -15.4970 C.2   144  HEM144      0.0000
     11  CMA      -13.2680   23.1360  -15.2600 C.3   144  HEM144      0.0000
     12  CAA      -14.0150   23.4840  -18.3360 C.3   144  HEM144      0.0000
     13  CBA      -14.8800   24.7450  -18.3740 C.3   144  HEM144      0.0000
     14  CGA      -14.4280   25.7040  -19.4500 C.2   144  HEM144      0.0000
     15  O1A      -14.1530   26.9100  -19.1790 O.co2 144  HEM144      0.0000
     16  O2A      -14.3450   25.2670  -20.6070 O.co2 144  HEM144      0.0000
     17  NB       -16.6600   18.8970  -14.3740 N.ar  144  HEM144      0.0000
     18  C1B      -15.7910   19.7170  -13.6850 C.ar  144  HEM144      0.0000
     19  C2B      -15.6910   19.1970  -12.3370 C.ar  144  HEM144      0.0000
     20  C3B      -16.4860   18.1170  -12.2350 C.ar  144  HEM144      0.0000
     21  C4B      -17.1140   17.9180  -13.5300 C.ar  144  HEM144      0.0000
     22  CMB      -14.8180   19.8170  -11.2250 C.3   144  HEM144      0.0000
     23  CAB      -16.7150   17.2470  -10.9900 C.2   144  HEM144      0.0000
     24  CBB      -16.3180   15.9640  -10.9710 C.2   144  HEM144      0.0000
     25  NC       -18.1740   17.3750  -16.2640 N.2   144  HEM144      0.0000
     26  C1C      -18.4460   16.6430  -15.1240 C.2   144  HEM144      0.0000
     27  C2C      -19.2680   15.5070  -15.4920 C.2   144  HEM144      0.0000
     28  C3C      -19.4850   15.5680  -16.8230 C.2   144  HEM144      0.0000
     29  C4C      -18.7890   16.7290  -17.3170 C.2   144  HEM144      0.0000
     30  CMC      -19.7870   14.4730  -14.4730 C.3   144  HEM144      0.0000
     31  CAC      -20.2820   14.6190  -17.7550 C.2   144  HEM144      0.0000
     32  CBC      -20.3700   13.2980  -17.4710 C.2   144  HEM144      0.0000
     33  ND       -17.5060   19.2040  -18.3920 N.ar  144  HEM144      0.0000
     34  C1D      -18.1720   18.2340  -19.1310 C.ar  144  HEM144      0.0000
     35  C2D      -18.0740   18.5430  -20.5370 C.ar  144  HEM144      0.0000
     36  C3D      -17.2940   19.8430  -20.6030 C.ar  144  HEM144      0.0000
     37  C4D      -16.9650   20.1730  -19.2390 C.ar  144  HEM144      0.0000
     38  CMD      -18.6860   17.7330  -21.7010 C.3   144  HEM144      0.0000
     39  CAD      -16.8390   20.6400  -21.8440 C.3   144  HEM144      0.0000
     40  CBD      -17.9330   21.4290  -22.5000 C.3   144  HEM144      0.0000
     41  CGD      -17.2470   21.8400  -23.7800 C.2   144  HEM144      0.0000
     42  O1D      -17.3170   21.0440  -24.7490 O.co2 144  HEM144      0.0000
     43  O2D      -16.5980   22.9200  -23.8010 O.co2 144  HEM144      0.0000
@<TRIPOS>BOND
     1    42    41   ar
     2    43    41   ar
     3    41    40    1
     4    40    39    1
     5    39    36    1
     6    38    35    1
     7    16    14   ar
     8    36    35   ar
     9    36    37   ar
    10    35    34   ar
    11    14    15   ar
    12    14    13    1
    13    37     2    2
    14    37    33   ar
    15    34     5    2
    16    34    33   ar
    17     2     7    1
    18     5    29    1
    19    33     1    1
    20    13    12    1
    21    12     8    1
    22    31    32    2
    23    31    28    1
    24     7     8    1
    25     7     6    2
    26     8     9    2
    27    29    28    1
    28    29    25    2
    29    28    27    2
    30     6     1    1
    31     6    10    1
    32     1    25    1
    33     1    17    1
    34    25    26    1
    35     9    10    1
    36     9    11    1
    37    10     3    2
    38    27    26    1
    39    27    30    1
    40    26     4    2
    41    17    18   ar
    42    17    21   ar
    43     3    18    1
    44     4    21    1
    45    18    19   ar
    46    21    20   ar
    47    19    20   ar
    48    19    22    1
    49    20    23    1
    50    23    24    2
