@<TRIPOS>MOLECULE
2gkn_HEM_A_1.pdb
 43 50 0 0 0
SMALL
GASTEIGER

@<TRIPOS>ATOM
      1 FE        -17.0150   19.2090  -16.5070 Fe    144  HEM144      0.0000
      2  CHA      -16.1720   21.5390  -18.8620 C.2   144  HEM144      0.0000
      3  CHB      -14.8250   20.7810  -14.2740 C.2   144  HEM144      0.0000
      4  CHC      -18.1440   17.2440  -13.9620 C.2   144  HEM144      0.0000
      5  CHD      -18.7730   17.3750  -18.7990 C.2   144  HEM144      0.0000
      6  NA       -15.7430   20.8770  -16.5480 N.2   144  HEM144      0.0000
      7  C1A      -15.5400   21.6820  -17.6470 C.2   144  HEM144      0.0000
      8  C2A      -14.5630   22.6970  -17.3030 C.2   144  HEM144      0.0000
      9  C3A      -14.1840   22.4860  -16.0310 C.2   144  HEM144      0.0000
     10  C4A      -14.9190   21.3360  -15.5310 C.2   144  HEM144      0.0000
     11  CMA      -13.1580   23.3140  -15.2190 C.3   144  HEM144      0.0000
     12  CAA      -14.0460   23.8070  -18.2640 C.3   144  HEM144      0.0000
     13  CBA      -14.9490   25.0320  -18.2500 C.3   144  HEM144      0.0000
     14  CGA      -14.5320   25.9850  -19.3370 C.2   144  HEM144      0.0000
     15  O1A      -14.3990   27.2030  -19.0480 O.co2 144  HEM144      0.0000
     16  O2A      -14.3340   25.5350  -20.4970 O.co2 144  HEM144      0.0000
     17  NB       -16.5590   19.0460  -14.4770 N.ar  144  HEM144      0.0000
     18  C1B      -15.6310   19.7820  -13.7620 C.ar  144  HEM144      0.0000
     19  C2B      -15.6680   19.3160  -12.3900 C.ar  144  HEM144      0.0000
     20  C3B      -16.5840   18.3420  -12.2990 C.ar  144  HEM144      0.0000
     21  C4B      -17.1610   18.1490  -13.6160 C.ar  144  HEM144      0.0000
     22  CMB      -14.7970   19.8500  -11.2400 C.3   144  HEM144      0.0000
     23  CAB      -16.9710   17.5550  -11.0220 C.2   144  HEM144      0.0000
     24  CBB      -16.8280   16.2270  -10.9930 C.2   144  HEM144      0.0000
     25  NC       -18.2490   17.6130  -16.3910 N.2   144  HEM144      0.0000
     26  C1C      -18.5530   16.9190  -15.2400 C.2   144  HEM144      0.0000
     27  C2C      -19.3660   15.7820  -15.6100 C.2   144  HEM144      0.0000
     28  C3C      -19.5480   15.8100  -16.9450 C.2   144  HEM144      0.0000
     29  C4C      -18.8420   16.9690  -17.4690 C.2   144  HEM144      0.0000
     30  CMC      -19.9180   14.7500  -14.5890 C.3   144  HEM144      0.0000
     31  CAC      -20.3570   14.8010  -17.8040 C.2   144  HEM144      0.0000
     32  CBC      -20.1300   13.4810  -17.7340 C.2   144  HEM144      0.0000
     33  ND       -17.4730   19.4590  -18.5370 N.ar  144  HEM144      0.0000
     34  C1D      -18.0860   18.4710  -19.3040 C.ar  144  HEM144      0.0000
     35  C2D      -17.8760   18.8020  -20.7050 C.ar  144  HEM144      0.0000
     36  C3D      -17.0690   20.1080  -20.7080 C.ar  144  HEM144      0.0000
     37  C4D      -16.8590   20.4300  -19.3190 C.ar  144  HEM144      0.0000
     38  CMD      -18.3630   18.0190  -21.9370 C.3   144  HEM144      0.0000
     39  CAD      -16.5050   20.9190  -21.8990 C.3   144  HEM144      0.0000
     40  CBD      -17.5240   21.4680  -22.8700 C.3   144  HEM144      0.0000
     41  CGD      -16.7080   21.9340  -24.0410 C.2   144  HEM144      0.0000
     42  O1D      -16.6040   21.1740  -25.0290 O.co2 144  HEM144      0.0000
     43  O2D      -16.1490   23.0560  -23.9740 O.co2 144  HEM144      0.0000
@<TRIPOS>BOND
     1    42    41   ar
     2    41    43   ar
     3    41    40    1
     4    40    39    1
     5    38    35    1
     6    39    36    1
     7    36    35   ar
     8    36    37   ar
     9    35    34   ar
    10    16    14   ar
    11    14    15   ar
    12    14    13    1
    13    37     2    2
    14    37    33   ar
    15    34     5    2
    16    34    33   ar
    17     2     7    1
    18     5    29    1
    19    33     1    1
    20    12    13    1
    21    12     8    1
    22    31    32    2
    23    31    28    1
    24     7     8    1
    25     7     6    2
    26    29    28    1
    27    29    25    2
    28     8     9    2
    29    28    27    2
    30     6     1    1
    31     6    10    1
    32     1    25    1
    33     1    17    1
    34    25    26    1
    35     9    10    1
    36     9    11    1
    37    27    26    1
    38    27    30    1
    39    10     3    2
    40    26     4    2
    41    17    18   ar
    42    17    21   ar
    43     3    18    1
    44     4    21    1
    45    18    19   ar
    46    21    20   ar
    47    19    20   ar
    48    19    22    1
    49    20    23    1
    50    23    24    2
