@<TRIPOS>MOLECULE
2gks_ADP_A_1.pdb
 27 29 0 0 0
SMALL
GASTEIGER

@<TRIPOS>ATOM
      1  PB       -26.4170   26.1760   62.0610 P.3   900  ADP900      0.5373
      2  O1B      -26.5470   24.7450   62.5260 O.3   900  ADP900     -0.1143
      3  O2B      -25.4700   27.0260   62.8650 O.3   900  ADP900     -0.1143
      4  O3B      -26.2140   26.3000   60.5720 O.2   900  ADP900     -0.2221
      5  PA       -28.1740   28.2480   63.0230 P.3   900  ADP900      0.2231
      6  O1A      -28.0220   28.1330   64.5200 O.3   900  ADP900     -0.4370
      7  O2A      -27.4610   29.3330   62.2580 O.2   900  ADP900     -0.5169
      8  O3A      -27.8710   26.8050   62.3630 O.3   900  ADP900     -0.2261
      9  O5'      -29.7650   28.3610   62.7950 O.3   900  ADP900     -0.3111
     10  C5'      -30.3970   28.9330   61.6470 C.3   900  ADP900      0.1813
     11  C4'      -31.7850   29.4450   62.0510 C.3   900  ADP900      0.1821
     12  O4'      -32.6640   28.3810   62.4630 O.3   900  ADP900     -0.3135
     13  C3'      -31.7000   30.4170   63.2260 C.3   900  ADP900      0.2184
     14  O3'      -32.2790   31.6780   62.8600 O.3   900  ADP900     -0.2174
     15  C2'      -32.4650   29.7240   64.3450 C.3   900  ADP900      0.2570
     16  O2'      -33.1200   30.6500   65.2160 O.3   900  ADP900     -0.2130
     17  C1'      -33.4520   28.8850   63.5490 C.3   900  ADP900      0.3186
     18  N9       -34.2240   27.8740   64.3390 N.pl3 900  ADP900     -0.1439
     19  C8       -35.5700   27.8940   64.4310 C.3   900  ADP900      0.3377
     20  N7       -36.0440   26.8790   65.2010 N.2   900  ADP900     -0.2095
     21  C5       -34.9780   26.1730   65.6280 C.2   900  ADP900      0.2526
     22  C6       -34.7700   24.9720   66.4800 C.2   900  ADP900      0.4393
     23  N6       -35.8230   24.3180   67.0280 N.pl3 900  ADP900      0.2180
     24  N1       -33.4940   24.5530   66.6940 N.2   900  ADP900      0.0021
     25  C2       -32.4430   25.2020   66.1480 C.3   900  ADP900      0.5254
     26  N3       -32.5580   26.2970   65.3590 N.2   900  ADP900     -0.0055
     27  C4       -33.7760   26.8300   65.0630 C.2   900  ADP900      0.3518
@<TRIPOS>BOND
     1     4     1    2
     2    10    11    1
     3    10     9    1
     4    11    12    1
     5    11    13    1
     6     1     8    1
     7     1     2    1
     8     1     3    1
     9     7     5    2
    10     8     5    1
    11    12    17    1
    12     9     5    1
    13    14    13    1
    14     5     6    1
    15    13    15    1
    16    17    18    1
    17    17    15    1
    18    18    19    1
    19    18    27    1
    20    15    16    1
    21    19    20    1
    22    27    26    2
    23    27    21    1
    24    20    21    2
    25    26    25    1
    26    21    22    1
    27    25    24    1
    28    22    24    2
    29    22    23    1
