@<TRIPOS>MOLECULE
2gl0_ADN_A_1.pdb
 19 21 0 0 0
SMALL
GASTEIGER

@<TRIPOS>ATOM
      1  O5'       18.6640   18.0410   12.2420 O.3   901  ADN901     -0.2176
      2  C5'       18.0650   19.2950   11.9860 C.3   901  ADN901      0.2143
      3  C4'       17.1780   18.8790   10.8360 C.3   901  ADN901      0.1851
      4  O4'       15.9370   18.4640   11.3880 O.3   901  ADN901     -0.3134
      5  C3'       16.8200   20.0210    9.9220 C.3   901  ADN901      0.2186
      6  O3'       17.6380   19.8210    8.8030 O.3   901  ADN901     -0.2174
      7  C2'       15.3300   19.8540    9.6280 C.3   901  ADN901      0.2570
      8  O2'       15.0560   18.7430    8.8310 O.3   901  ADN901     -0.2130
      9  C1'       14.8340   19.1950   10.8240 C.3   901  ADN901      0.3186
     10  N9        14.3520   20.2020   11.7710 N.pl3 901  ADN901     -0.1439
     11  C8        15.0600   21.1970   12.3440 C.3   901  ADN901      0.3377
     12  N7        14.2660   21.9180   13.1750 N.2   901  ADN901     -0.2095
     13  C5        13.0370   21.3850   13.1270 C.2   901  ADN901      0.2526
     14  C6        11.7380   21.6960   13.7580 C.2   901  ADN901      0.4393
     15  N6        11.5950   22.7330   14.6620 N.pl3 901  ADN901      0.2180
     16  N1        10.7150   20.8500   13.3990 N.2   901  ADN901      0.0021
     17  C2        10.8640   19.8180   12.5150 C.3   901  ADN901      0.5254
     18  N3        11.9900   19.4770   11.9120 N.2   901  ADN901     -0.0055
     19  C4        13.0870   20.2290   12.2010 C.2   901  ADN901      0.3518
@<TRIPOS>BOND
     1     6     5    1
     2     8     7    1
     3     7     5    1
     4     7     9    1
     5     5     3    1
     6     9     4    1
     7     9    10    1
     8     3     4    1
     9     3     2    1
    10    10    19    1
    11    10    11    1
    12    18    19    2
    13    18    17    1
    14     2     1    1
    15    19    13    1
    16    11    12    1
    17    17    16    1
    18    13    12    2
    19    13    14    1
    20    16    14    2
    21    14    15    1
