@<TRIPOS>MOLECULE
2gl3_HEM_A_1.pdb
 43 50 0 0 0
SMALL
GASTEIGER

@<TRIPOS>ATOM
      1 FE        -16.8730   19.0330  -16.4150 Fe    144  HEM144      0.0000
      2  CHA      -16.2000   21.2790  -18.8730 C.2   144  HEM144      0.0000
      3  CHB      -14.8050   20.6760  -14.2890 C.2   144  HEM144      0.0000
      4  CHC      -17.8470   16.9480  -13.7920 C.2   144  HEM144      0.0000
      5  CHD      -18.5940   17.0500  -18.6060 C.2   144  HEM144      0.0000
      6  NA       -15.7560   20.6940  -16.5350 N.2   144  HEM144      0.0000
      7  C1A      -15.5500   21.4410  -17.6650 C.2   144  HEM144      0.0000
      8  C2A      -14.5350   22.4270  -17.3730 C.2   144  HEM144      0.0000
      9  C3A      -14.1350   22.2650  -16.1110 C.2   144  HEM144      0.0000
     10  C4A      -14.8850   21.1520  -15.5640 C.2   144  HEM144      0.0000
     11  CMA      -13.0590   23.0950  -15.3660 C.3   144  HEM144      0.0000
     12  CAA      -14.0130   23.4630  -18.3850 C.3   144  HEM144      0.0000
     13  CBA      -14.8910   24.7090  -18.3400 C.3   144  HEM144      0.0000
     14  CGA      -14.4050   25.6890  -19.3740 C.2   144  HEM144      0.0000
     15  O1A      -14.2330   26.8890  -19.0400 O.co2 144  HEM144      0.0000
     16  O2A      -14.1860   25.2610  -20.5360 O.co2 144  HEM144      0.0000
     17  NB       -16.4140   18.8350  -14.3950 N.ar  144  HEM144      0.0000
     18  C1B      -15.5200   19.6310  -13.7390 C.ar  144  HEM144      0.0000
     19  C2B      -15.4490   19.1820  -12.3660 C.ar  144  HEM144      0.0000
     20  C3B      -16.2890   18.1430  -12.2140 C.ar  144  HEM144      0.0000
     21  C4B      -16.9140   17.9140  -13.4970 C.ar  144  HEM144      0.0000
     22  CMB      -14.5250   19.8180  -11.2990 C.3   144  HEM144      0.0000
     23  CAB      -16.5670   17.3250  -10.9410 C.2   144  HEM144      0.0000
     24  CBB      -16.0310   16.1040  -10.8070 C.2   144  HEM144      0.0000
     25  NC       -18.0110   17.3170  -16.2200 N.2   144  HEM144      0.0000
     26  C1C      -18.2920   16.6290  -15.0640 C.2   144  HEM144      0.0000
     27  C2C      -19.1110   15.4990  -15.4090 C.2   144  HEM144      0.0000
     28  C3C      -19.3130   15.5280  -16.7470 C.2   144  HEM144      0.0000
     29  C4C      -18.6230   16.6840  -17.2730 C.2   144  HEM144      0.0000
     30  CMC      -19.6350   14.5030  -14.3500 C.3   144  HEM144      0.0000
     31  CAC      -20.1230   14.5660  -17.6320 C.2   144  HEM144      0.0000
     32  CBC      -20.0460   13.2450  -17.4010 C.2   144  HEM144      0.0000
     33  ND       -17.3100   19.1380  -18.4430 N.ar  144  HEM144      0.0000
     34  C1D      -18.0680   18.1950  -19.1420 C.ar  144  HEM144      0.0000
     35  C2D      -18.2140   18.6150  -20.5160 C.ar  144  HEM144      0.0000
     36  C3D      -17.4470   19.9270  -20.5940 C.ar  144  HEM144      0.0000
     37  C4D      -16.9330   20.1830  -19.2620 C.ar  144  HEM144      0.0000
     38  CMD      -18.9390   17.8750  -21.6560 C.3   144  HEM144      0.0000
     39  CAD      -17.3180   20.8360  -21.8200 C.3   144  HEM144      0.0000
     40  CBD      -16.0730   20.6720  -22.6390 C.3   144  HEM144      0.0000
     41  CGD      -16.4200   21.5420  -23.8180 C.2   144  HEM144      0.0000
     42  O1D      -16.7840   20.9860  -24.8730 O.co2 144  HEM144      0.0000
     43  O2D      -16.3870   22.7930  -23.6850 O.co2 144  HEM144      0.0000
@<TRIPOS>BOND
     1    42    41   ar
     2    41    43   ar
     3    41    40    1
     4    40    39    1
     5    39    36    1
     6    38    35    1
     7    36    35   ar
     8    36    37   ar
     9    16    14   ar
    10    35    34   ar
    11    14    15   ar
    12    14    13    1
    13    37     2    2
    14    37    33   ar
    15    34     5    2
    16    34    33   ar
    17     2     7    1
    18     5    29    1
    19    33     1    1
    20    12    13    1
    21    12     8    1
    22     7     8    1
    23     7     6    2
    24    31    32    2
    25    31    28    1
    26     8     9    2
    27    29    28    1
    28    29    25    2
    29    28    27    2
    30     6     1    1
    31     6    10    1
    32     1    25    1
    33     1    17    1
    34    25    26    1
    35     9    10    1
    36     9    11    1
    37    10     3    2
    38    27    26    1
    39    27    30    1
    40    26     4    2
    41    17    18   ar
    42    17    21   ar
    43     3    18    1
    44     4    21    1
    45    18    19   ar
    46    21    20   ar
    47    19    20   ar
    48    19    22    1
    49    20    23    1
    50    23    24    2
