@<TRIPOS>MOLECULE
2gl6_ADP_A_1.pdb
 27 29 0 0 0
SMALL
GASTEIGER

@<TRIPOS>ATOM
      1  PB        21.3310  -29.7450   25.1290 P.3   1009  ADP1009     0.5373
      2  O1B       20.3560  -30.7830   24.5760 O.3   1009  ADP1009    -0.1143
      3  O2B       22.5560  -29.5750   24.2780 O.2   1009  ADP1009    -0.2221
      4  O3B       20.6270  -28.5080   25.5800 O.3   1009  ADP1009    -0.1143
      5  PA        21.4280  -30.2570   27.9690 P.3   1009  ADP1009     0.2231
      6  O1A       19.9740  -29.8850   27.9720 O.2   1009  ADP1009    -0.5169
      7  O2A       22.4390  -29.5020   28.8260 O.3   1009  ADP1009    -0.4370
      8  O3A       22.0090  -30.3560   26.4670 O.3   1009  ADP1009    -0.2261
      9  O5'       21.4780  -31.7960   28.4180 O.3   1009  ADP1009    -0.3111
     10  C5'       20.7250  -32.7800   27.6940 C.3   1009  ADP1009     0.1813
     11  C4'       21.3530  -34.1610   27.8530 C.3   1009  ADP1009     0.1821
     12  O4'       22.5360  -34.2660   27.0460 O.3   1009  ADP1009    -0.3135
     13  C3'       21.7720  -34.4250   29.2950 C.3   1009  ADP1009     0.2184
     14  O3'       21.3890  -35.7410   29.6950 O.3   1009  ADP1009    -0.2174
     15  C2'       23.2770  -34.2660   29.2810 C.3   1009  ADP1009     0.2570
     16  O2'       23.9140  -35.0850   30.2590 O.3   1009  ADP1009    -0.2130
     17  C1'       23.6280  -34.6820   27.8680 C.3   1009  ADP1009     0.3186
     18  N9        24.8990  -34.1100   27.3890 N.pl3 1009  ADP1009    -0.1439
     19  C8        25.1320  -32.8250   27.0610 C.3   1009  ADP1009     0.3377
     20  N7        26.4260  -32.6650   26.6470 N.2   1009  ADP1009    -0.2095
     21  C5        27.0250  -33.8750   26.7050 C.2   1009  ADP1009     0.2526
     22  C6        28.3600  -34.4370   26.4170 C.2   1009  ADP1009     0.4393
     23  N6        29.3860  -33.6860   25.9630 N.pl3 1009  ADP1009     0.2180
     24  N1        28.5510  -35.7610   26.6260 N.2   1009  ADP1009     0.0021
     25  C2        27.5740  -36.5730   27.0800 C.3   1009  ADP1009     0.5254
     26  N3        26.3380  -36.1190   27.3660 N.2   1009  ADP1009    -0.0055
     27  C4        26.0110  -34.8140   27.1930 C.2   1009  ADP1009     0.3518
@<TRIPOS>BOND
     1     3     1    2
     2     2     1    1
     3     1     4    1
     4     1     8    1
     5    23    22    1
     6    22    24    2
     7    22    21    1
     8     8     5    1
     9    24    25    1
    10    20    21    2
    11    20    19    1
    12    21    27    1
    13    12    11    1
    14    12    17    1
    15    19    18    1
    16    25    26    1
    17    27    26    2
    18    27    18    1
    19    18    17    1
    20    10    11    1
    21    10     9    1
    22    11    13    1
    23    17    15    1
    24     5     6    2
    25     5     9    1
    26     5     7    1
    27    15    13    1
    28    15    16    1
    29    13    14    1
