@<TRIPOS>MOLECULE
2gl9_ASN_D_1.pdb
 10 8 0 0 0
SMALL
GASTEIGER

@<TRIPOS>ATOM
      1  N         21.1940   24.3480   50.6350 N.2   597  ASN597     -0.0271
      2  N         20.8030   24.8310   51.0140 N.2   597  ASN597     -0.1438
      3  CA        20.7210   25.6860   50.9610 C.3   597  ASN597      0.2368
      4  C         21.4080   26.7160   50.0580 C.2   597  ASN597      0.3890
      5  O         21.1050   27.9180   50.1810 O.co2 597  ASN597     -0.2434
      6  CB        21.0140   25.9890   52.4320 C.3   597  ASN597      0.1101
      7  CG        21.0170   24.7310   53.3000 C.2   597  ASN597      0.2101
      8  OD1       21.9010   23.8820   53.1720 O.2   597  ASN597     -0.2882
      9  ND2       22.1670   26.2260   54.7420 N.3   597  ASN597      0.0000
     10  OXT       22.2480   26.3070   49.2310 O.co2 597  ASN597     -0.2434
@<TRIPOS>BOND
     1    10     4   ar
     2     4     5   ar
     3     4     3    1
     4     1     2    2
     5     3     2    1
     6     3     6    1
     7     6     7    1
     8     8     7    2
