@<TRIPOS>MOLECULE
2glm_SCB_A_1.pdb
 33 36 0 0 0
SMALL
GASTEIGER

@<TRIPOS>ATOM
      1  C1       -88.3550   62.6110  193.3390 C.3   3001  SCB3001     0.1742
      2  O1       -88.8490   63.7380  194.0550 O.3   3001  SCB3001    -0.3493
      3  C2       -87.9920   64.0750  195.1610 C.3   3001  SCB3001     0.1638
      4  C3       -88.7820   63.9070  196.4560 C.3   3001  SCB3001     0.1278
      5  N1       -88.9920   65.1890  197.1420 N.am  3001  SCB3001    -0.2518
      6  C4       -88.0240   66.1120  197.2430 C.2   3001  SCB3001     0.2377
      7  O2       -86.9160   65.9490  196.7610 O.2   3001  SCB3001    -0.2739
      8  C5       -88.3860   67.2620  197.9270 C.3   3001  SCB3001     0.1346
      9  C6       -87.5820   68.3760  198.1730 C.3   3001  SCB3001     0.0846
     10  C7       -86.1840   68.3570  198.0910 C.ar  3001  SCB3001     0.1242
     11  C8       -85.4510   67.6550  197.2290 C.ar  3001  SCB3001     0.0361
     12  C9       -84.1640   67.9120  197.4590 C.ar  3001  SCB3001     0.0403
     13  C10      -84.0990   68.7900  198.4550 C.ar  3001  SCB3001     0.1448
     14  O3       -85.3580   69.0880  198.8830 O.2   3001  SCB3001    -0.4577
     15  C11      -82.9880   69.3370  199.0730 C.ar  3001  SCB3001     0.0348
     16  C12      -83.1980   70.2470  200.0970 C.ar  3001  SCB3001     0.0039
     17  C13      -82.1220   70.8010  200.7660 C.ar  3001  SCB3001     0.0117
     18  C14      -80.8370   70.4330  200.4050 C.ar  3001  SCB3001     0.0640
     19 CL1       -79.4710   71.1180  201.2120 Cl    3001  SCB3001    -0.0820
     20  C15      -80.6220   69.5190  199.3840 C.ar  3001  SCB3001     0.0904
     21  C16      -81.7010   68.9550  198.7150 C.ar  3001  SCB3001     0.0105
     22  C17      -79.1740   69.1610  199.0590 C.2   3001  SCB3001     0.3886
     23  O4       -78.9430   68.2910  198.2050 O.co2 3001  SCB3001    -0.2405
     24  O5       -78.2920   69.7510  199.7100 O.co2 3001  SCB3001    -0.2405
     25  S1       -90.0010   67.0520  198.3990 S.3   3001  SCB3001    -0.0904
     26  C18      -90.1560   65.5210  197.7140 C.3   3001  SCB3001     0.2204
     27  N2       -91.2340   64.7440  197.7350 N.pl3 3001  SCB3001    -0.2091
     28  C19      -92.4780   65.1990  197.8960 C.ar  3001  SCB3001     0.0680
     29  C20      -92.7380   66.5420  198.0870 C.ar  3001  SCB3001     0.0162
     30  C21      -94.0440   66.9840  198.2490 C.ar  3001  SCB3001     0.0013
     31  C22      -95.0970   66.0890  198.2170 C.ar  3001  SCB3001     0.0001
     32  C23      -94.8420   64.7440  198.0280 C.ar  3001  SCB3001     0.0013
     33  C24      -93.5390   64.3050  197.8740 C.ar  3001  SCB3001     0.0162
@<TRIPOS>BOND
     1     1     2    1
     2     2     3    1
     3     3     4    1
     4     4     5    1
     5     7     6    2
     6     5     6   am
     7     5    26    1
     8    11    12   ar
     9    11    10   ar
    10     6     8    1
    11    12    13   ar
    12    26    27    1
    13    26    25    1
    14    27    28    1
    15    33    28   ar
    16    33    32   ar
    17    28    29   ar
    18     8     9    1
    19     8    25    1
    20    32    31   ar
    21    29    30   ar
    22    10     9    1
    23    10    14   ar
    24    23    22   ar
    25    31    30   ar
    26    13    14   ar
    27    13    15    1
    28    21    15   ar
    29    21    20   ar
    30    22    20    1
    31    22    24   ar
    32    15    16   ar
    33    20    18   ar
    34    16    17   ar
    35    18    17   ar
    36    18    19    1
