@<TRIPOS>MOLECULE
2gln_HEM_A_1.pdb
 43 50 0 0 0
SMALL
GASTEIGER

@<TRIPOS>ATOM
      1 FE          5.6870   12.4360   15.9940 Fe    144  HEM144      0.0000
      2  CHA        6.3610   10.1620   18.4720 C.2   144  HEM144      0.0000
      3  CHB        7.8220   10.8110   13.9030 C.2   144  HEM144      0.0000
      4  CHC        4.6710   14.4520   13.3800 C.2   144  HEM144      0.0000
      5  CHD        3.8470   14.3350   18.1770 C.2   144  HEM144      0.0000
      6  NA         6.8470   10.7780   16.1430 N.ar  144  HEM144      0.0000
      7  C1A        7.0260   10.0200   17.2760 C.ar  144  HEM144      0.0000
      8  C2A        8.0470    9.0390   17.0000 C.ar  144  HEM144      0.0000
      9  C3A        8.4650    9.2110   15.7380 C.ar  144  HEM144      0.0000
     10  C4A        7.7100   10.3110   15.1760 C.ar  144  HEM144      0.0000
     11  CMA        9.5530    8.3980   14.9920 C.3   144  HEM144      0.0000
     12  CAA        8.5250    8.0030   18.0300 C.3   144  HEM144      0.0000
     13  CBA        7.5870    6.8010   17.9420 C.3   144  HEM144      0.0000
     14  CGA        7.9420    5.8200   19.0260 C.2   144  HEM144      0.0000
     15  O1A        8.2680    4.6510   18.7090 O.co2 144  HEM144      0.0000
     16  O2A        7.9010    6.2020   20.2220 O.co2 144  HEM144      0.0000
     17  NB         6.1230   12.6000   14.0260 N.2   144  HEM144      0.0000
     18  C1B        7.0740   11.8310   13.3630 C.2   144  HEM144      0.0000
     19  C2B        7.1500   12.2790   12.0040 C.2   144  HEM144      0.0000
     20  C3B        6.2890   13.2880   11.8500 C.2   144  HEM144      0.0000
     21  C4B        5.6290   13.5070   13.1110 C.2   144  HEM144      0.0000
     22  CMB        8.0740   11.6900   10.9050 C.3   144  HEM144      0.0000
     23  CAB        6.0330   14.0480   10.5290 C.2   144  HEM144      0.0000
     24  CBB        6.1310   15.3760   10.4600 C.2   144  HEM144      0.0000
     25  NC         4.5050   14.0830   15.8130 N.ar  144  HEM144      0.0000
     26  C1C        4.2150   14.7640   14.6470 C.ar  144  HEM144      0.0000
     27  C2C        3.3630   15.8810   14.9710 C.ar  144  HEM144      0.0000
     28  C3C        3.1270   15.8610   16.3010 C.ar  144  HEM144      0.0000
     29  C4C        3.8450   14.7210   16.8550 C.ar  144  HEM144      0.0000
     30  CMC        2.8360   16.8580   13.8950 C.3   144  HEM144      0.0000
     31  CAC        2.2740   16.8350   17.1300 C.2   144  HEM144      0.0000
     32  CBC        2.3770   18.1700   16.9650 C.2   144  HEM144      0.0000
     33  ND         5.1380   12.2350   18.0260 N.2   144  HEM144      0.0000
     34  C1D        4.4540   13.2160   18.7270 C.2   144  HEM144      0.0000
     35  C2D        4.4960   12.8910   20.1290 C.2   144  HEM144      0.0000
     36  C3D        5.2860   11.5850   20.2160 C.2   144  HEM144      0.0000
     37  C4D        5.6480   11.2670   18.8660 C.2   144  HEM144      0.0000
     38  CMD        3.8700   13.6990   21.2780 C.3   144  HEM144      0.0000
     39  CAD        5.6910   10.7820   21.4590 C.3   144  HEM144      0.0000
     40  CBD        4.5810    9.9880   22.0980 C.3   144  HEM144      0.0000
     41  CGD        5.2360    9.4910   23.3570 C.2   144  HEM144      0.0000
     42  O1D        5.6520    8.3130   23.3620 O.co2 144  HEM144      0.0000
     43  O2D        5.3690   10.2740   24.3300 O.co2 144  HEM144      0.0000
@<TRIPOS>BOND
     1    24    23    2
     2    23    20    1
     3    22    19    1
     4    20    19    2
     5    20    21    1
     6    19    18    1
     7    21     4    2
     8    21    17    1
     9    18     3    1
    10    18    17    2
    11     4    26    1
    12    30    27    1
    13     3    10    2
    14    17     1    1
    15    26    27   ar
    16    26    25   ar
    17    27    28   ar
    18    11     9    1
    19    10     9   ar
    20    10     6   ar
    21     9     8   ar
    22    25     1    1
    23    25    29   ar
    24     1     6    1
    25     1    33    1
    26     6     7   ar
    27    28    29   ar
    28    28    31    1
    29    29     5    1
    30    32    31    2
    31     8     7   ar
    32     8    12    1
    33     7     2    2
    34    13    12    1
    35    13    14    1
    36    33    34    1
    37    33    37    2
    38     5    34    2
    39     2    37    1
    40    15    14   ar
    41    34    35    1
    42    37    36    1
    43    14    16   ar
    44    35    36    2
    45    35    38    1
    46    36    39    1
    47    39    40    1
    48    40    41    1
    49    41    42   ar
    50    41    43   ar
