@<TRIPOS>MOLECULE
2glp_BDE_A_1.pdb
 21 22 0 0 0
SMALL
GASTEIGER

@<TRIPOS>ATOM
      1  CAE      -92.7740   66.1710  104.8820 C.ar  3001  BDE3001     0.0078
      2  CAF      -93.9300   65.4310  105.1090 C.ar  3001  BDE3001     0.0208
      3  CAA      -93.7990   64.1170  105.5500 C.ar  3001  BDE3001     0.0989
      4  NAB      -92.5990   63.5940  105.7380 N.ar  3001  BDE3001    -0.2422
      5  CAC      -91.4790   64.2690  105.5300 C.ar  3001  BDE3001     0.1035
      6  CAD      -91.5270   65.5920  105.0990 C.ar  3001  BDE3001     0.0759
      7  CAG      -90.2710   66.4680  105.0480 C.2   3001  BDE3001     0.2875
      8  OAU      -90.3460   67.6210  105.4720 O.2   3001  BDE3001    -0.2664
      9  NAH      -89.1430   65.9260  104.5820 N.am  3001  BDE3001    -0.0753
     10  NAI      -88.0260   66.4060  104.7990 N.2   3001  BDE3001    -0.1542
     11  CAJ      -87.9040   67.5850  105.3870 C.2   3001  BDE3001     0.1229
     12  CAK      -86.7630   68.3560  105.5950 C.ar  3001  BDE3001     0.0609
     13  CAL      -85.4630   67.9460  105.2960 C.ar  3001  BDE3001     0.0147
     14  CAM      -84.3860   68.7500  105.6700 C.ar  3001  BDE3001     0.0742
     15 BRAT      -82.5780   68.2730  105.3590 Br    3001  BDE3001    -0.0457
     16  CAN      -84.6000   69.9540  106.3340 C.ar  3001  BDE3001     0.2110
     17  OAS      -83.5420   70.7160  106.7230 O.3   3001  BDE3001    -0.2854
     18  CAO      -85.8960   70.3640  106.6240 C.ar  3001  BDE3001     0.1128
     19 BRAR      -86.1770   71.9890  107.5560 Br    3001  BDE3001    -0.0423
     20  CAP      -86.9730   69.5660  106.2520 C.ar  3001  BDE3001     0.2064
     21  OAQ      -88.2390   69.9830  106.5290 O.3   3001  BDE3001    -0.2859
@<TRIPOS>BOND
     1     9    10    1
     2     9     7   am
     3    10    11    2
     4     1     6   ar
     5     1     2   ar
     6     7     6    1
     7     7     8    2
     8     6     5   ar
     9     2     3   ar
    10    13    12   ar
    11    13    14   ar
    12    15    14    1
    13    11    12    1
    14     5     4   ar
    15     3     4   ar
    16    12    20   ar
    17    14    16   ar
    18    20    21    1
    19    20    18   ar
    20    16    18   ar
    21    16    17    1
    22    18    19    1
