@<TRIPOS>MOLECULE
2glr_GTX_A_1.pdb
 26 25 0 0 0
SMALL
GASTEIGER

@<TRIPOS>ATOM
      1  N1        60.0490   10.3980    9.9900 N.3   210  GTX210     -0.1208
      2  CA1       59.7280    9.0110    9.9590 C.3   210  GTX210      0.1948
      3  C1        59.8170    8.6680    8.4800 C.2   210  GTX210      0.3819
      4  O11       60.0770    7.5100    8.1800 O.co2 210  GTX210     -0.2441
      5  O12       59.6840    9.5570    7.6290 O.co2 210  GTX210     -0.2441
      6  CB1       58.3170    8.8020   10.5250 C.3   210  GTX210      0.0402
      7  CG1       58.0010    7.3430   10.7600 C.3   210  GTX210      0.0889
      8  CD1       56.6630    7.0930   11.4050 C.2   210  GTX210      0.2418
      9  OE1       55.8460    7.9880   11.6170 O.2   210  GTX210     -0.2733
     10  N2        56.5050    5.8320   11.7710 N.am  210  GTX210     -0.1969
     11  CA2       55.2990    5.3150   12.3790 C.3   210  GTX210      0.1834
     12  C2        55.7250    4.2970   13.4040 C.2   210  GTX210      0.2626
     13  O2        56.6950    3.5810   13.1620 O.2   210  GTX210     -0.2714
     14  CB2       54.4360    4.5980   11.3550 C.3   210  GTX210      0.0886
     15  SG2       53.8120    5.5820    9.9610 S.3   210  GTX210     -0.1379
     16  C1S       52.1340    5.2960   10.5930 C.3   210  GTX210      0.0576
     17  C2S       51.6500    3.8590   10.4420 C.3   210  GTX210      0.0116
     18  C3S       50.6720    3.5340   11.5440 C.3   210  GTX210      0.0009
     19  C4S       49.5570    2.7230   10.9330 C.3   210  GTX210      0.0000
     20  C5S       49.6610    1.2320   11.1210 C.3   210  GTX210      0.0000
     21  C6S       49.2720    0.8330   12.5440 C.3   210  GTX210      0.0000
     22  N3        55.0070    4.2200   14.5140 N.am  210  GTX210     -0.1917
     23  CA3       55.2630    3.1880   15.4880 C.3   210  GTX210      0.2285
     24  C3        55.6310    3.7970   16.8200 C.2   210  GTX210      0.3865
     25  O31       55.5690    3.0720   17.8070 O.co2 210  GTX210     -0.2437
     26  O32       55.9590    4.9890   16.8650 O.co2 210  GTX210     -0.2437
@<TRIPOS>BOND
     1     5     3   ar
     2     4     3   ar
     3     3     2    1
     4     2     1    1
     5     2     6    1
     6    15    16    1
     7    15    14    1
     8    17    16    1
     9    17    18    1
    10     6     7    1
    11     7     8    1
    12    19    20    1
    13    19    18    1
    14    20    21    1
    15    14    11    1
    16     8     9    2
    17     8    10   am
    18    10    11    1
    19    11    12    1
    20    13    12    2
    21    12    22   am
    22    22    23    1
    23    23    24    1
    24    24    26   ar
    25    24    25   ar
