@<TRIPOS>MOLECULE
2glu_SAM_A_1.pdb
 27 29 0 0 0
SMALL
GASTEIGER

@<TRIPOS>ATOM
      1  N         10.0370   45.9430  108.7800 N.3   301  SAM301     -0.1208
      2  CA         9.6570   47.3790  108.6880 C.3   301  SAM301      0.1952
      3  C          8.2420   47.5000  108.1300 C.2   301  SAM301      0.3819
      4  O          7.6660   46.5100  107.6750 O.co2 301  SAM301     -0.2441
      5  OXT        7.6330   48.5800  108.1450 O.co2 301  SAM301     -0.2441
      6  CB        10.6410   48.1710  107.8390 C.3   301  SAM301      0.0414
      7  CG        12.0270   47.5350  107.7450 C.3   301  SAM301      0.0503
      8  SD        13.3140   48.3560  108.7260 S.3   301  SAM301     -0.1761
      9  CE        14.1550   49.2360  107.3670 C.3   301  SAM301      0.0590
     10  C5'       14.5680   47.0940  108.9260 C.3   301  SAM301      0.0806
     11  C4'       14.5000   46.6010  110.3430 C.3   301  SAM301      0.1622
     12  O4'       15.3740   45.5210  110.5080 O.3   301  SAM301     -0.3153
     13  C3'       14.9250   47.6610  111.3300 C.3   301  SAM301      0.2168
     14  O3'       13.8090   47.9980  112.1250 O.3   301  SAM301     -0.2175
     15  C2'       16.0550   47.0090  112.0940 C.3   301  SAM301      0.2569
     16  O2'       15.9640   47.3820  113.4440 O.3   301  SAM301     -0.2130
     17  C1'       15.8230   45.5330  111.8190 C.3   301  SAM301      0.3185
     18  N9        16.9420   44.5770  111.7910 N.pl3 301  SAM301     -0.1439
     19  C8        18.2080   44.7140  111.3030 C.3   301  SAM301      0.3377
     20  N7        18.8480   43.5260  111.4780 N.2   301  SAM301     -0.2095
     21  C5        18.0190   42.6340  112.0410 C.2   301  SAM301      0.2526
     22  C6        18.1350   41.2960  112.4270 C.2   301  SAM301      0.4393
     23  N6        19.2660   40.5940  112.2870 N.pl3 301  SAM301      0.2180
     24  N1        17.0490   40.6620  112.9820 N.2   301  SAM301      0.0021
     25  C2        15.8580   41.3170  113.1540 C.3   301  SAM301      0.5254
     26  N3        15.7500   42.6300  112.7710 N.2   301  SAM301     -0.0055
     27  C4        16.8110   43.2820  112.2310 C.2   301  SAM301      0.3518
@<TRIPOS>BOND
     1     9     8    1
     2     4     3   ar
     3     7     6    1
     4     7     8    1
     5     6     2    1
     6     3     5   ar
     7     3     2    1
     8     2     1    1
     9     8    10    1
    10    10    11    1
    11    11    12    1
    12    11    13    1
    13    12    17    1
    14    19    20    1
    15    19    18    1
    16    13    15    1
    17    13    14    1
    18    20    21    2
    19    18    17    1
    20    18    27    1
    21    17    15    1
    22    21    27    1
    23    21    22    1
    24    15    16    1
    25    27    26    2
    26    23    22    1
    27    22    24    2
    28    26    25    1
    29    24    25    1
