@<TRIPOS>MOLECULE
2glx_NDP_A_1.pdb
 48 52 0 0 0
SMALL
GASTEIGER

@<TRIPOS>ATOM
      1  PA        19.5690   38.5560   74.9150 P.3   1500  NDP1500     0.2189
      2  O1A       18.8870   38.7060   76.2210 O.3   1500  NDP1500    -0.4371
      3  O2A       19.8980   39.7240   74.0400 O.2   1500  NDP1500    -0.5170
      4  O5B       18.8160   37.4740   73.9800 O.3   1500  NDP1500    -0.3112
      5  C5B       18.2190   36.2960   74.5030 C.3   1500  NDP1500     0.1813
      6  C4B       16.6950   36.2770   74.2690 C.3   1500  NDP1500     0.1820
      7  O4B       16.0420   37.4560   74.7410 O.3   1500  NDP1500    -0.3136
      8  C3B       16.3100   36.2060   72.8240 C.3   1500  NDP1500     0.2157
      9  O3B       16.2070   34.8180   72.4880 O.3   1500  NDP1500    -0.2175
     10  C2B       14.9780   36.9690   72.7010 C.3   1500  NDP1500     0.2314
     11  O2B       13.8440   36.0950   72.5900 O.3   1500  NDP1500    -0.2630
     12  C1B       14.8150   37.6510   74.0280 C.3   1500  NDP1500     0.3158
     13  N9A       14.4990   39.0920   73.8760 N.pl3 1500  NDP1500    -0.1439
     14  C8A       15.1130   39.9880   73.0860 C.3   1500  NDP1500     0.3377
     15  N7A       14.5440   41.2040   73.2630 N.2   1500  NDP1500    -0.2095
     16  C5A       13.5390   41.0260   74.1330 C.2   1500  NDP1500     0.2526
     17  C6A       12.5550   41.9340   74.7480 C.2   1500  NDP1500     0.4393
     18  N6A       12.5440   43.2510   74.3780 N.pl3 1500  NDP1500     0.2180
     19  N1A       11.6890   41.4170   75.6660 N.2   1500  NDP1500     0.0021
     20  C2A       11.7100   40.1040   75.9800 C.3   1500  NDP1500     0.5254
     21  N3A       12.6070   39.2510   75.4270 N.2   1500  NDP1500    -0.0055
     22  C4A       13.5300   39.6990   74.5290 C.2   1500  NDP1500     0.3518
     23  O3        20.9430   37.7910   75.3250 O.3   1500  NDP1500    -0.2703
     24  PN        22.3820   37.6860   74.5790 P.3   1500  NDP1500     0.2189
     25  O1N       22.2410   37.8290   73.1180 O.2   1500  NDP1500    -0.5170
     26  O2N       23.3550   38.5170   75.3400 O.3   1500  NDP1500    -0.4371
     27  O5D       22.7110   36.1490   74.8400 O.3   1500  NDP1500    -0.3112
     28  C5D       21.9670   35.0440   74.3090 C.3   1500  NDP1500     0.1813
     29  C4D       22.7800   33.7280   74.4860 C.3   1500  NDP1500     0.1799
     30  O4D       24.0400   33.8370   73.8010 O.3   1500  NDP1500    -0.3327
     31  C3D       23.1090   33.2440   75.8800 C.3   1500  NDP1500     0.2158
     32  O3D       23.0960   31.7940   75.7900 O.3   1500  NDP1500    -0.2175
     33  C2D       24.5340   33.7430   76.0700 C.3   1500  NDP1500     0.2309
     34  O2D       25.2900   32.8530   76.8850 O.3   1500  NDP1500    -0.2158
     35  C1D       25.1210   33.6470   74.6990 C.3   1500  NDP1500     0.2263
     36  N1N       26.1670   34.6460   74.4500 N.pl3 1500  NDP1500    -0.2787
     37  C2N       27.3270   34.2450   73.8970 C.3   1500  NDP1500     0.1244
     38  C3N       28.3460   35.1590   73.6820 C.2   1500  NDP1500     0.0544
     39  C7N       29.6430   34.7090   73.0400 C.2   1500  NDP1500     0.2818
     40  O7N       30.4080   35.5700   72.6240 O.2   1500  NDP1500    -0.2670
     41  N7N       29.8660   33.4150   72.7560 N.am  1500  NDP1500    -0.0839
     42  C4N       28.1200   36.4230   73.8980 C.2   1500  NDP1500     0.0033
     43  C5N       27.0130   36.8350   74.4270 C.2   1500  NDP1500     0.0157
     44  C6N       25.9610   35.9400   74.7040 C.2   1500  NDP1500     0.0633
     45  P2B       13.2820   35.6090   71.1760 P.3   1500  NDP1500     0.5328
     46  O1X       12.9040   36.9030   70.5180 O.3   1500  NDP1500    -0.1145
     47  O2X       14.3460   34.9280   70.3620 O.2   1500  NDP1500    -0.2224
     48  O3X       12.2370   34.6210   71.6070 O.3   1500  NDP1500    -0.1145
@<TRIPOS>BOND
     1    47    45    2
     2    46    45    1
     3    45    48    1
     4    45    11    1
     5     9     8    1
     6    11    10    1
     7    40    39    2
     8    10     8    1
     9    10    12    1
    10    41    39   am
    11     8     6    1
    12    39    38    1
    13    14    15    1
    14    14    13    1
    15    25    24    2
    16    15    16    2
    17    38    37    1
    18    38    42    2
    19    30    29    1
    20    30    35    1
    21    13    12    1
    22    13    22    1
    23    37    36    1
    24    42    43    1
    25     4     5    1
    26     4     1    1
    27    12     7    1
    28     3     1    2
    29    16    22    1
    30    16    17    1
    31     6     5    1
    32     6     7    1
    33    28    29    1
    34    28    27    1
    35    18    17    1
    36    43    44    2
    37    36    35    1
    38    36    44    1
    39    29    31    1
    40    22    21    2
    41    24    27    1
    42    24    23    1
    43    24    26    1
    44    35    33    1
    45    17    19    2
    46     1    23    1
    47     1     2    1
    48    21    20    1
    49    19    20    1
    50    32    31    1
    51    31    33    1
    52    33    34    1
