@<TRIPOS>MOLECULE
2gm1_2AZ_A_1.pdb
 36 40 0 0 0
SMALL
GASTEIGER

@<TRIPOS>ATOM
      1  C1         6.3970   40.8070   28.9060 C.3   371  2AZ371      0.0022
      2  C9         7.8920   39.7690   30.7090 C.3   371  2AZ371      0.1341
      3  C11        7.9790   38.3350   30.0640 C.ar  371  2AZ371      0.1612
      4  C14        8.0670   35.7620   29.1930 C.ar  371  2AZ371      0.1493
      5  C15        7.7720   34.4930   28.9000 C.ar  371  2AZ371      0.0815
      6  C16        6.4170   34.1960   29.3330 C.ar  371  2AZ371      0.0338
      7  C21        9.2360   36.6080   28.9650 C.ar  371  2AZ371      0.2806
      8  C27       10.2090   41.0440   28.1940 C.ar  371  2AZ371     -0.0024
      9  C31        9.6720   41.4030   25.8460 C.ar  371  2AZ371     -0.0000
     10  C33        9.5000   40.0260   25.6590 C.ar  371  2AZ371     -0.0003
     11  C35        9.6610   39.1650   26.7530 C.ar  371  2AZ371     -0.0024
     12  C4         6.5230   40.3570   30.3090 C.3   371  2AZ371      0.0256
     13  C6         6.3720   41.8060   30.0220 C.3   371  2AZ371      0.0022
     14  N12        6.8820   37.5070   30.1670 N.ar  371  2AZ371     -0.1499
     15  N13        6.9060   36.3170   29.8070 N.ar  371  2AZ371     -0.2216
     16  C18        5.8640   35.2940   29.8830 C.ar  371  2AZ371      0.1015
     17 CL2         8.7610   33.4300   28.0650 Cl    371  2AZ371     -0.0805
     18  N22        9.1260   37.8830   29.4190 N.ar  371  2AZ371     -0.2759
     19  C23       10.2680   38.7380   29.1660 C.3   371  2AZ371      0.1370
     20  C26       10.0190   39.6640   28.0210 C.ar  371  2AZ371      0.0005
     21  C29       10.0350   41.9060   27.1090 C.ar  371  2AZ371     -0.0003
     22  O37       10.2380   36.1850   28.3980 O.2   371  2AZ371     -0.2652
     23  N38        8.1570   39.7310   32.2190 N.am  371  2AZ371     -0.2708
     24  C39        7.2140   38.9430   33.0780 C.3   371  2AZ371      0.0956
     25  C42        7.7600   37.9830   34.2010 C.3   371  2AZ371      0.0420
     26  C45        9.1530   37.4080   33.9630 C.3   371  2AZ371      0.1111
     27  N48        9.3340   36.0730   34.4940 N.3   371  2AZ371     -0.1313
     28  C51        9.1350   40.4410   32.9320 C.2   371  2AZ371      0.2493
     29  O52        9.1880   40.3440   34.1530 O.2   371  2AZ371     -0.2699
     30  C53       10.1120   41.3110   32.2470 C.ar  371  2AZ371      0.0536
     31  C54       11.3610   40.7850   31.8630 C.ar  371  2AZ371      0.0042
     32  C56       12.2940   41.6210   31.2110 C.ar  371  2AZ371     -0.0041
     33  C58       12.0100   42.9890   30.9640 C.ar  371  2AZ371     -0.0218
     34  C59       10.7530   43.5090   31.3460 C.ar  371  2AZ371     -0.0041
     35  C61        9.8130   42.6830   31.9900 C.ar  371  2AZ371      0.0042
     36  C63       13.0520   43.8680   30.3400 C.3   371  2AZ371      0.0310
@<TRIPOS>BOND
     1    10     9   ar
     2    10    11   ar
     3     9    21   ar
     4    11    20   ar
     5    21     8   ar
     6    20     8   ar
     7    20    19    1
     8    17     5    1
     9    22     7    2
    10     5     4   ar
    11     5     6   ar
    12     1    13    1
    13     1    12    1
    14     7     4   ar
    15     7    18   ar
    16    19    18    1
    17     4    15   ar
    18     6    16   ar
    19    18     3   ar
    20    15    16   ar
    21    15    14   ar
    22    13    12    1
    23     3    14   ar
    24     3     2    1
    25    12     2    1
    26    36    33    1
    27     2    23    1
    28    33    32   ar
    29    33    34   ar
    30    32    31   ar
    31    34    35   ar
    32    31    30   ar
    33    35    30   ar
    34    23    28   am
    35    23    24    1
    36    30    28    1
    37    28    29    2
    38    24    25    1
    39    26    25    1
    40    26    27    1
