@<TRIPOS>MOLECULE
2gm1_ADP_A_1.pdb
 27 29 0 0 0
SMALL
GASTEIGER

@<TRIPOS>ATOM
      1  PB        14.8740   29.8410   39.0870 P.3   372  ADP372      0.5373
      2  O1B       14.0310   29.2140   40.1380 O.3   372  ADP372     -0.1143
      3  O2B       15.9800   28.9230   38.7040 O.3   372  ADP372     -0.1143
      4  O3B       14.1060   30.1480   37.9150 O.2   372  ADP372     -0.2221
      5  PA        15.1000   32.6650   39.3240 P.3   372  ADP372      0.2231
      6  O1A       15.4210   33.0090   37.9230 O.2   372  ADP372     -0.5169
      7  O2A       13.6690   32.8780   39.5850 O.3   372  ADP372     -0.4370
      8  O3A       15.4740   31.1850   39.6520 O.3   372  ADP372     -0.2261
      9  O5'       16.0000   33.5490   40.2290 O.3   372  ADP372     -0.3111
     10  C5'       15.6480   33.6300   41.6440 C.3   372  ADP372      0.1813
     11  C4'       16.0600   34.9220   42.3470 C.3   372  ADP372      0.1821
     12  O4'       17.4880   35.0950   42.1680 O.3   372  ADP372     -0.3135
     13  C3'       15.3730   36.1790   41.7110 C.3   372  ADP372      0.2184
     14  O3'       15.5680   37.3040   42.5590 O.3   372  ADP372     -0.2174
     15  C2'       16.3550   36.2760   40.5230 C.3   372  ADP372      0.2570
     16  O2'       16.3070   37.5720   39.8270 O.3   372  ADP372     -0.2130
     17  C1'       17.7140   36.1750   41.2610 C.3   372  ADP372      0.3186
     18  N9        18.8360   35.9140   40.3280 N.pl3 372  ADP372     -0.1439
     19  C8        18.9490   34.7690   39.5730 C.3   372  ADP372      0.3377
     20  N7        20.1180   34.7410   38.8930 N.2   372  ADP372     -0.2095
     21  C5        20.7940   35.8890   39.2030 C.2   372  ADP372      0.2526
     22  C6        22.0100   36.5510   38.9080 C.2   372  ADP372      0.4393
     23  N6        22.8900   36.0670   38.0110 N.pl3 372  ADP372      0.2180
     24  N1        22.3510   37.7760   39.4570 N.2   372  ADP372      0.0021
     25  C2        21.5600   38.4540   40.3240 C.3   372  ADP372      0.5254
     26  N3        20.3510   37.8730   40.6420 N.2   372  ADP372     -0.0055
     27  C4        19.9770   36.6410   40.1080 C.2   372  ADP372      0.3518
@<TRIPOS>BOND
     1     4     1    2
     2     6     5    2
     3    23    22    1
     4     3     1    1
     5    20    21    2
     6    20    19    1
     7    22    21    1
     8    22    24    2
     9     1     8    1
    10     1     2    1
    11    21    27    1
    12     5     7    1
    13     5     8    1
    14     5     9    1
    15    24    25    1
    16    19    18    1
    17    16    15    1
    18    27    18    1
    19    27    26    2
    20     9    10    1
    21    25    26    1
    22    18    17    1
    23    15    17    1
    24    15    13    1
    25    17    12    1
    26    10    11    1
    27    13    11    1
    28    13    14    1
    29    12    11    1
