@<TRIPOS>MOLECULE
2gm3_AMP_A_1.pdb
 23 25 0 0 0
SMALL
GASTEIGER

@<TRIPOS>ATOM
      1  P         25.7010    9.8710   54.7430 P.3   176  AMP176      0.5327
      2  O1P       27.0490    9.8210   54.2920 O.3   176  AMP176     -0.1145
      3  O2P       24.7190   10.2910   53.7140 O.2   176  AMP176     -0.2224
      4  O3P       25.2060    8.7430   55.5120 O.3   176  AMP176     -0.1145
      5  O5'       25.5810   11.0440   55.8140 O.3   176  AMP176     -0.2675
      6  C5'       25.8010   12.3810   55.4230 C.3   176  AMP176      0.1860
      7  C4'       26.0660   13.1380   56.6970 C.3   176  AMP176      0.1823
      8  O4'       27.3370   12.7380   57.3140 O.3   176  AMP176     -0.3135
      9  C3'       26.1850   14.6200   56.4790 C.3   176  AMP176      0.2184
     10  O3'       24.8380   15.1750   56.4540 O.3   176  AMP176     -0.2174
     11  C2'       26.9300   15.0390   57.7370 C.3   176  AMP176      0.2570
     12  O2'       25.9870   15.1890   58.7990 O.3   176  AMP176     -0.2130
     13  C1'       27.8590   13.8610   58.0070 C.3   176  AMP176      0.3186
     14  N9        29.1340   14.0980   57.3020 N.pl3 176  AMP176     -0.1439
     15  C8        29.5180   13.6320   56.0910 C.3   176  AMP176      0.3377
     16  N7        30.7530   14.0860   55.8150 N.2   176  AMP176     -0.2095
     17  C5        31.1700   14.8040   56.8650 C.2   176  AMP176      0.2526
     18  C6        32.3380   15.5010   57.1890 C.2   176  AMP176      0.4393
     19  N6        33.3780   15.5740   56.3780 N.pl3 176  AMP176      0.2180
     20  N1        32.3970   16.1290   58.3570 N.2   176  AMP176      0.0021
     21  C2        31.4030   16.1240   59.2220 C.3   176  AMP176      0.5254
     22  N3        30.2770   15.4730   58.9680 N.2   176  AMP176     -0.0055
     23  C4        30.1380   14.8080   57.8050 C.2   176  AMP176      0.3518
@<TRIPOS>BOND
     1     3     1    2
     2     2     1    1
     3     1     4    1
     4     1     5    1
     5     6     5    1
     6     6     7    1
     7    16    15    1
     8    16    17    2
     9    15    14    1
    10    19    18    1
    11    10     9    1
    12     9     7    1
    13     9    11    1
    14     7     8    1
    15    17    18    1
    16    17    23    1
    17    18    20    2
    18    14    23    1
    19    14    13    1
    20     8    13    1
    21    11    13    1
    22    11    12    1
    23    23    22    2
    24    20    21    1
    25    22    21    1
