@<TRIPOS>MOLECULE
2gm8_HMH_A_1.pdb
 10 10 0 0 0
SMALL
GASTEIGER

@<TRIPOS>ATOM
      1  CM2       20.4660  -24.9050   -4.6440 C.3   301  HMH301      0.1291
      2  N1A       19.4270  -22.7500   -5.2400 N.2   301  HMH301     -0.1861
      3  C2A       19.2460  -24.0000   -4.7960 C.1   301  HMH301      0.0663
      4  N3A       18.0190  -24.4370   -4.4820 N.2   301  HMH301     -0.3368
      5  C4A       16.9480  -23.6350   -4.5900 C.2   301  HMH301      0.2301
      6  N4A       15.7240  -24.0680   -4.2870 N.pl3 301  HMH301     -0.0924
      7  C5A       17.1120  -22.3380   -5.0510 C.2   301  HMH301      0.0783
      8  C6A       18.4010  -21.9280   -5.3710 C.2   301  HMH301      0.1124
      9  C7A       15.9650  -21.3360   -5.2120 C.3   301  HMH301      0.2141
     10  O1        15.9100  -20.4430   -4.0880 O.3   301  HMH301     -0.2150
@<TRIPOS>BOND
     1     8     2    1
     2     8     7    2
     3     2     3    2
     4     9     7    1
     5     9    10    1
     6     7     5    1
     7     3     1    1
     8     3     4    2
     9     5     4    2
    10     5     6    1
