@<TRIPOS>MOLECULE
2gm9_3TH_A_1.pdb
 23 26 0 0 0
SMALL
GASTEIGER

@<TRIPOS>ATOM
      1 CL          8.4090  109.4230   20.0190 Cl      1  3TH1       -0.0977
      2  C2         9.3650  109.2080   21.4500 C.3     1  3TH1        0.1551
      3  C3         9.0730  109.6900   22.7380 C.2     1  3TH1        0.0002
      4  C4        10.0940  109.2700   23.5910 C.2     1  3TH1        0.0184
      5  C5        10.3880  109.4250   24.9590 C.3     1  3TH1        0.0929
      6  C6        11.6020  108.7310   25.1520 C.2     1  3TH1        0.1687
      7  N7        11.9340  108.2100   23.9010 N.2     1  3TH1       -0.3953
      8  C9        11.0330  108.5370   22.9750 C.2     1  3TH1        0.1543
      9  S10       10.8210  108.2610   21.3320 S.3     1  3TH1       -0.0624
     10  C11       12.4830  108.4900   26.3220 C.2     1  3TH1        0.2916
     11  O12       13.6500  108.0820   26.1080 O.2     1  3TH1       -0.2659
     12  N13       12.0030  108.6990   27.6230 N.am    1  3TH1       -0.1834
     13  C14       12.8180  108.4690   28.8370 C.3     1  3TH1        0.2132
     14  C15       12.0530  107.9280   30.0480 C.3     1  3TH1        0.0513
     15  C16       12.9410  107.8980   31.2730 C.3     1  3TH1        0.0781
     16  C17       12.8360  106.8850   32.2470 C.2     1  3TH1       -0.0193
     17  C18       13.6900  106.8680   33.3500 C.2     1  3TH1       -0.0041
     18  C19       14.6550  107.8770   33.5210 C.2     1  3TH1        0.0020
     19  C20       14.7740  108.9100   32.5790 C.2     1  3TH1        0.0288
     20  C21       13.9190  108.9140   31.4610 C.2     1  3TH1        0.1254
     21  N22       14.0530  109.9110   30.4900 N.2     1  3TH1       -0.3392
     22  C23       13.5610  109.7660   29.2100 C.1     1  3TH1        0.1997
     23  O24       13.7340  110.6710   28.4100 O.2     1  3TH1       -0.2124
@<TRIPOS>BOND
     1     1     2    1
     2     9     2    1
     3     9     8    1
     4     2     3    1
     5     3     4    2
     6     8     4    1
     7     8     7    2
     8     4     5    1
     9     7     6    2
    10     5     6    1
    11     6    10    1
    12    11    10    2
    13    10    12   am
    14    12    13    1
    15    23    22    2
    16    13    22    1
    17    13    14    1
    18    22    21    2
    19    14    15    1
    20    21    20    2
    21    15    20    1
    22    15    16    1
    23    20    19    1
    24    16    17    2
    25    19    18    2
    26    17    18    1
