@<TRIPOS>MOLECULE
2gm9_PLR_A_1.pdb
 15 15 0 0 0
SMALL
GASTEIGER

@<TRIPOS>ATOM
      1  N1        25.4080  102.0120    1.2310 N.ar  900  PLR900     -0.2452
      2  C2        24.7200  103.1860    1.4640 C.ar  900  PLR900      0.0978
      3  C2A       25.1690  104.1480    2.5330 C.3   900  PLR900      0.0555
      4  C3        23.6090  103.4950    0.6980 C.ar  900  PLR900      0.2049
      5  O3        22.7520  104.5140    1.1060 O.3   900  PLR900     -0.2857
      6  C4        23.1970  102.5930   -0.3050 C.ar  900  PLR900      0.0182
      7  C4A       21.9890  102.9500   -1.1240 C.3   900  PLR900      0.0342
      8  C5        23.8990  101.3960   -0.5320 C.ar  900  PLR900      0.0261
      9  C6        25.0280  101.1290    0.2430 C.ar  900  PLR900      0.0965
     10  C5A       23.5500  100.4900   -1.7000 C.3   900  PLR900      0.1815
     11  O4P       24.1650  100.9590   -2.8850 O.3   900  PLR900     -0.2653
     12  P         24.6060   99.9250   -4.0730 P.3   900  PLR900      0.5329
     13  O1P       25.3910  100.8050   -5.0540 O.2   900  PLR900     -0.2224
     14  O2P       25.4800   98.8390   -3.5030 O.3   900  PLR900     -0.1145
     15  O3P       23.3600   99.3530   -4.6820 O.3   900  PLR900     -0.1145
@<TRIPOS>BOND
     1    13    12    2
     2    15    12    1
     3    12    14    1
     4    12    11    1
     5    11    10    1
     6    10     8    1
     7     7     6    1
     8     8     6   ar
     9     8     9   ar
    10     6     4   ar
    11     9     1   ar
    12     4     5    1
    13     4     2   ar
    14     1     2   ar
    15     2     3    1
