@<TRIPOS>MOLECULE
2gmh_UQ5_A_1.pdb
 38 38 0 0 0
SMALL
GASTEIGER

@<TRIPOS>ATOM
      1  C1        57.4040   18.2810   73.2640 C.2   612  UQ5612      0.0198
      2  C2        56.9870   19.5600   72.6290 C.2   612  UQ5612      0.2282
      3  C3        57.7720   20.8130   72.7700 C.2   612  UQ5612      0.2140
      4  C4        58.9580   20.7590   73.5860 C.2   612  UQ5612      0.2140
      5  C5        59.3550   19.4540   74.1890 C.2   612  UQ5612      0.2285
      6  C6        58.5080   18.1910   74.0340 C.2   612  UQ5612      0.0235
      7  C1M       56.5480   17.0300   73.0830 C.3   612  UQ5612      0.0343
      8  C3M       56.2840   22.8470   72.6400 C.3   612  UQ5612      0.2528
      9  C4M       59.1000   22.9340   74.5870 C.3   612  UQ5612      0.2528
     10  C7        58.9440   16.8720   74.7070 C.3   612  UQ5612      0.0548
     11  C8        60.2580   16.3750   75.0540 C.2   612  UQ5612     -0.0298
     12  C9        61.4320   16.2250   74.2050 C.2   612  UQ5612     -0.0475
     13  C10       61.3250   16.5840   72.7670 C.3   612  UQ5612      0.0260
     14  C11       62.6710   15.6870   74.7550 C.3   612  UQ5612      0.0264
     15  C12       63.3800   17.0120   74.8520 C.3   612  UQ5612      0.0297
     16  C13       64.2850   17.3530   75.9180 C.2   612  UQ5612     -0.0342
     17  C14       64.0720   18.3620   76.8670 C.2   612  UQ5612     -0.0478
     18  C15       62.7910   19.2020   76.8120 C.3   612  UQ5612      0.0260
     19  C16       65.1420   18.6110   77.8890 C.3   612  UQ5612      0.0263
     20  C17       64.7480   19.0320   79.2960 C.3   612  UQ5612      0.0297
     21  C18       65.1530   18.3220   80.5410 C.2   612  UQ5612     -0.0342
     22  C19       66.2160   17.3900   80.8750 C.2   612  UQ5612     -0.0478
     23  C20       67.1540   16.9710   79.8800 C.3   612  UQ5612      0.0260
     24  C21       66.3020   16.8540   82.3670 C.3   612  UQ5612      0.0263
     25  C22       67.6610   16.5230   82.9630 C.3   612  UQ5612      0.0297
     26  C23       67.9870   15.1660   82.8930 C.2   612  UQ5612     -0.0343
     27  C24       68.3020   14.2440   83.9120 C.2   612  UQ5612     -0.0482
     28  C25       68.3130   14.7100   85.3960 C.3   612  UQ5612      0.0260
     29  C26       68.6200   12.7520   83.6550 C.3   612  UQ5612      0.0217
     30  C27       69.4910   12.2540   84.7730 C.3   612  UQ5612      0.0043
     31  C28       70.9820   12.2900   84.7090 C.3   612  UQ5612      0.0003
     32  C29       71.9080   13.3720   84.1470 C.3   612  UQ5612      0.0000
     33  C30       71.9610   13.7690   82.6480 C.3   612  UQ5612      0.0000
     34  C31       72.9050   14.2380   84.9110 C.3   612  UQ5612      0.0000
     35  O2        56.0070   19.6850   71.9310 O.2   612  UQ5612     -0.2836
     36  O3        57.1720   21.9700   72.0460 O.2   612  UQ5612     -0.4652
     37  O4        59.6750   21.9390   73.7200 O.2   612  UQ5612     -0.4652
     38  O5        60.3610   19.3500   74.9060 O.2   612  UQ5612     -0.2835
@<TRIPOS>BOND
     1    35     2    2
     2    36     8    1
     3    36     3    1
     4     2     3    1
     5     2     1    1
     6    13    12    1
     7     3     4    2
     8     7     1    1
     9     1     6    2
    10     4    37    1
    11     4     5    1
    12    37     9    1
    13     6     5    1
    14     6    10    1
    15     5    38    2
    16    12    14    1
    17    12    11    2
    18    10    11    1
    19    14    15    1
    20    15    16    1
    21    16    17    2
    22    18    17    1
    23    17    19    1
    24    19    20    1
    25    20    21    1
    26    23    22    1
    27    21    22    2
    28    22    24    1
    29    24    25    1
    30    33    32    1
    31    26    25    1
    32    26    27    2
    33    29    27    1
    34    29    30    1
    35    27    28    1
    36    32    31    1
    37    32    34    1
    38    31    30    1
