@<TRIPOS>MOLECULE
2gmk_AMP_A_1.pdb
 23 25 0 0 0
SMALL
GASTEIGER

@<TRIPOS>ATOM
      1  P        -22.5540   -2.0320   -5.0630 P.3   940  AMP940      0.5327
      2  O1P      -22.7040   -3.4780   -5.4850 O.3   940  AMP940     -0.1145
      3  O2P      -23.8600   -1.2600   -5.0030 O.3   940  AMP940     -0.1145
      4  O3P      -21.4070   -1.3170   -5.7440 O.2   940  AMP940     -0.2224
      5  O5'      -22.0690   -2.1410   -3.5320 O.3   940  AMP940     -0.2675
      6  C5'      -21.6940   -0.9780   -2.7950 C.3   940  AMP940      0.1860
      7  C4'      -22.3920   -1.0440   -1.4490 C.3   940  AMP940      0.1823
      8  O4'      -22.1240   -2.3150   -0.8510 O.3   940  AMP940     -0.3135
      9  C3'      -21.8730    0.0120   -0.4880 C.3   940  AMP940      0.2184
     10  O3'      -22.7040    1.1790   -0.4790 O.3   940  AMP940     -0.2174
     11  C2'      -21.8550   -0.6780    0.8600 C.3   940  AMP940      0.2570
     12  O2'      -22.9700   -0.2790    1.6730 O.3   940  AMP940     -0.2130
     13  C1'      -21.9370   -2.1660    0.5560 C.3   940  AMP940      0.3186
     14  N9       -20.6770   -2.7860    1.0330 N.pl3 940  AMP940     -0.1439
     15  C8       -19.5310   -2.9710    0.3420 C.3   940  AMP940      0.3377
     16  N7       -18.5900   -3.5650    1.1270 N.2   940  AMP940     -0.2095
     17  C5       -19.1420   -3.7620    2.3460 C.2   940  AMP940      0.2526
     18  C6       -18.7200   -4.3410    3.6480 C.2   940  AMP940      0.4393
     19  N6       -17.4760   -4.8440    3.8240 N.pl3 940  AMP940      0.2180
     20  N1       -19.6140   -4.3490    4.6640 N.2   940  AMP940      0.0021
     21  C2       -20.8610   -3.8550    4.5230 C.3   940  AMP940      0.5254
     22  N3       -21.3170   -3.3180    3.3780 N.2   940  AMP940     -0.0055
     23  C4       -20.5160   -3.2430    2.2770 C.2   940  AMP940      0.3518
@<TRIPOS>BOND
     1     4     1    2
     2     2     1    1
     3     1     3    1
     4     1     5    1
     5     5     6    1
     6     6     7    1
     7     7     8    1
     8     7     9    1
     9     8    13    1
    10     9    10    1
    11     9    11    1
    12    15    14    1
    13    15    16    1
    14    13    11    1
    15    13    14    1
    16    11    12    1
    17    14    23    1
    18    16    17    2
    19    23    17    1
    20    23    22    2
    21    17    18    1
    22    22    21    1
    23    18    19    1
    24    18    20    2
    25    21    20    1
