@<TRIPOS>MOLECULE
2gmm_MAN_A_1.pdb
 11 11 0 0 0
SMALL
GASTEIGER

@<TRIPOS>ATOM
      1  C1        -1.8170   17.0040   -1.8070 C.3   253  MAN253      0.1777
      2  C2        -0.7260   16.7580   -2.8500 C.3   253  MAN253      0.2141
      3  C3         0.6530   16.9710   -2.2340 C.3   253  MAN253      0.2173
      4  C4         0.7490   18.3240   -1.5210 C.3   253  MAN253      0.2142
      5  C5        -0.4540   18.5850   -0.6040 C.3   253  MAN253      0.1810
      6  C6        -0.5000   20.0260   -0.1430 C.3   253  MAN253      0.2141
      7  O2        -0.8950   17.6530   -3.9400 O.3   253  MAN253     -0.2176
      8  O3         1.6300   16.9230   -3.2620 O.3   253  MAN253     -0.2175
      9  O4         1.9370   18.3520   -0.7460 O.3   253  MAN253     -0.2176
     10  O5        -1.6950   18.3280   -1.3030 O.3   253  MAN253     -0.3481
     11  O6        -0.9410   20.8830   -1.1860 O.3   253  MAN253     -0.2176
@<TRIPOS>BOND
     1     7     2    1
     2     8     3    1
     3     2     3    1
     4     2     1    1
     5     3     4    1
     6     1    10    1
     7     4     9    1
     8     4     5    1
     9    10     5    1
    10    11     6    1
    11     5     6    1
