@<TRIPOS>MOLECULE
2gmp_NAG_A_1.pdb
 14 14 0 0 0
SMALL
GASTEIGER

@<TRIPOS>ATOM
      1  C1        -1.9060   15.8810   -2.9070 C.3   253  NAG253      0.1665
      2  C2        -0.6850   16.7870   -3.2160 C.3   253  NAG253      0.1576
      3  C3        -0.9690   17.7880   -4.3490 C.3   253  NAG253      0.2069
      4  C4        -1.5730   17.0810   -5.5580 C.3   253  NAG253      0.2134
      5  C5        -2.8350   16.3540   -5.1070 C.3   253  NAG253      0.1809
      6  C6        -3.5370   15.6310   -6.2410 C.3   253  NAG253      0.2141
      7  C7         0.9620   17.8000   -1.7590 C.2   253  NAG253      0.2420
      8  C8         1.2470   18.5810   -0.4860 C.3   253  NAG253      0.0964
      9  N2        -0.3130   17.5270   -2.0220 N.am  253  NAG253     -0.2019
     10  O3         0.2390   18.4320   -4.7300 O.3   253  NAG253     -0.2184
     11  O4        -1.8860   18.0250   -6.5720 O.3   253  NAG253     -0.2176
     12  O5        -2.4900   15.3650   -4.1110 O.3   253  NAG253     -0.3489
     13  O6        -4.3760   14.5960   -5.7500 O.3   253  NAG253     -0.2176
     14  O7         1.8910   17.4520   -2.4870 O.2   253  NAG253     -0.2733
@<TRIPOS>BOND
     1    11     4    1
     2     6    13    1
     3     6     5    1
     4     4     5    1
     5     4     3    1
     6     5    12    1
     7    10     3    1
     8     3     2    1
     9    12     1    1
    10     2     1    1
    11     2     9    1
    12    14     7    2
    13     9     7   am
    14     7     8    1
