@<TRIPOS>MOLECULE
2gmp_MAN_A_1.pdb
 12 12 0 0 0
SMALL
GASTEIGER

@<TRIPOS>ATOM
      1  C1        -2.4470   15.5200    0.9790 C.3   254  MAN254      0.3024
      2  C2        -2.6890   15.4280   -0.5230 C.3   254  MAN254      0.2434
      3  C3        -3.4490   14.1460   -0.8960 C.3   254  MAN254      0.2199
      4  C4        -2.9020   12.9020   -0.1660 C.3   254  MAN254      0.2144
      5  C5        -2.5110   13.1580    1.2970 C.3   254  MAN254      0.1836
      6  C6        -1.9330   12.2820    2.2910 C.3   254  MAN254      0.2142
      7  O1        -3.6580   15.5630    1.6510 O.3   254  MAN254     -0.1869
      8  O2        -1.4460   15.4570   -1.2030 O.3   254  MAN254     -0.2148
      9  O3        -3.3080   13.9140   -2.3140 O.3   254  MAN254     -0.2174
     10  O4        -3.8790   11.8720   -0.2020 O.3   254  MAN254     -0.2176
     11  O5        -1.7300   14.3650    1.4170 O.3   254  MAN254     -0.3236
     12  O6        -1.1650   12.7990    2.9900 O.3   254  MAN254     -0.2176
@<TRIPOS>BOND
     1     9     3    1
     2     8     2    1
     3     3     2    1
     4     3     4    1
     5     2     1    1
     6    10     4    1
     7     4     5    1
     8     1    11    1
     9     1     7    1
    10     5    11    1
    11     5     6    1
    12     6    12    1
