@<TRIPOS>MOLECULE
2gmr_SPN_M_1.pdb
 43 42 0 0 0
SMALL
GASTEIGER

@<TRIPOS>ATOM
      1  CMA       -6.3670   16.6050   29.6500 C.3   312  SPN312      0.1745
      2  O1        -6.6080   17.8370   28.9620 O.3   312  SPN312     -0.3489
      3  CM1       -5.8720   18.7670   30.8950 C.3   312  SPN312      0.0372
      4  CM2       -6.3800   20.0380   28.6240 C.3   312  SPN312      0.0372
      5  C1        -5.7190   18.8820   29.3760 C.3   312  SPN312      0.1437
      6  C2        -4.3830   18.3400   28.8590 C.2   312  SPN312      0.1747
      7  O2        -3.3550   18.5350   29.5070 O.2   312  SPN312     -0.2936
      8  C3        -4.3220   17.5640   27.5410 C.3   312  SPN312      0.0670
      9  C4        -3.0990   17.9720   26.7160 C.3   312  SPN312      0.0078
     10  C5        -2.9150   17.0820   25.4840 C.3   312  SPN312      0.0004
     11  CM3       -4.1640   17.0970   24.6010 C.3   312  SPN312      0.0000
     12  C6        -1.6760   17.5450   24.7120 C.3   312  SPN312      0.0003
     13  C7        -1.4410   16.7190   23.4450 C.3   312  SPN312      0.0043
     14  C8        -0.2550   17.0850   22.8180 C.3   312  SPN312      0.0217
     15  C9         0.3530   16.4220   21.7580 C.2   312  SPN312     -0.0478
     16  CM4       -0.3100   15.1820   21.1540 C.3   312  SPN312      0.0260
     17  C10        1.5500   16.8880   21.2220 C.2   312  SPN312     -0.0299
     18  C11        2.2390   16.2970   20.1700 C.3   312  SPN312      0.0507
     19  C12        3.3090   17.0890   19.7670 C.2   312  SPN312     -0.0296
     20  C13        4.2590   16.7490   18.8080 C.2   312  SPN312     -0.0435
     21  CM5        4.1790   15.3900   18.1090 C.3   312  SPN312      0.0264
     22  C14        5.3800   17.7350   18.4710 C.3   312  SPN312      0.0477
     23  C15        6.1500   17.2860   17.4030 C.2   312  SPN312     -0.0218
     24  C16        7.1210   18.1120   16.8430 C.2   312  SPN312     -0.0049
     25  C17        7.3290   19.3920   17.3410 C.2   312  SPN312     -0.0088
     26  C18        8.2970   20.2400   16.8040 C.2   312  SPN312     -0.0436
     27  CM6        9.1970   19.7690   15.6620 C.3   312  SPN312      0.0264
     28  C19        8.4620   21.5150   17.3340 C.3   312  SPN312      0.0267
     29  C20        9.3780   22.4700   16.9090 C.3   312  SPN312      0.0297
     30  C21        9.0580   23.7100   17.4460 C.2   312  SPN312     -0.0342
     31  C22        9.9420   24.7610   17.6770 C.2   312  SPN312     -0.0478
     32  CM7       11.4260   24.5990   17.3430 C.3   312  SPN312      0.0260
     33  C23        9.4330   26.0720   18.2780 C.3   312  SPN312      0.0263
     34  C24        9.7550   27.2760   17.3880 C.3   312  SPN312      0.0297
     35  C25        9.2520   28.4430   17.9520 C.2   312  SPN312     -0.0342
     36  C26        8.3560   29.3400   17.3810 C.2   312  SPN312     -0.0478
     37  CM8        7.7930   29.0850   15.9810 C.3   312  SPN312      0.0260
     38  C27        7.9130   30.5740   18.1700 C.3   312  SPN312      0.0263
     39  C28        8.2780   31.8880   17.4750 C.3   312  SPN312      0.0297
     40  C29        9.6540   32.0720   17.3990 C.2   312  SPN312     -0.0342
     41  C30       10.5100   32.3930   18.4480 C.2   312  SPN312     -0.0478
     42  CM9        9.9660   32.5760   19.8660 C.3   312  SPN312      0.0260
     43  CMB       12.0060   32.5790   18.1860 C.3   312  SPN312      0.0260
@<TRIPOS>BOND
     1    27    26    1
     2    37    36    1
     3    26    28    1
     4    26    25    2
     5    24    25    1
     6    24    23    2
     7    29    28    1
     8    29    30    1
     9    32    31    1
    10    36    35    2
    11    36    38    1
    12    34    35    1
    13    34    33    1
    14    40    39    1
    15    40    41    2
    16    23    22    1
    17    30    31    2
    18    39    38    1
    19    31    33    1
    20    21    20    1
    21    43    41    1
    22    41    42    1
    23    22    20    1
    24    20    19    2
    25    19    18    1
    26    18    17    1
    27    16    15    1
    28    17    15    2
    29    15    14    1
    30    14    13    1
    31    13    12    1
    32    11    10    1
    33    12    10    1
    34    10     9    1
    35     9     8    1
    36     8     6    1
    37     4     5    1
    38     6     5    1
    39     6     7    2
    40     2     5    1
    41     2     1    1
    42     5     3    1
