@<TRIPOS>MOLECULE
2gms_P0P_A_1.pdb
 17 17 0 0 0
SMALL
GASTEIGER

@<TRIPOS>ATOM
      1  O3        -3.4950   -3.3920    5.3230 O.3   400  P0P400     -0.2854
      2  N1        -0.8910   -4.7400    7.3310 N.ar  400  P0P400     -0.2452
      3  C2        -1.9540   -4.6870    6.5530 C.ar  400  P0P400      0.0980
      4  C2A       -2.6860   -5.9460    6.1570 C.3   400  P0P400      0.0555
      5  C3        -2.4050   -3.4770    6.1040 C.ar  400  P0P400      0.2122
      6  C4        -1.7280   -2.3190    6.4810 C.ar  400  P0P400      0.1085
      7  C4A       -2.2620   -0.9850    6.0120 C.3   400  P0P400      0.4514
      8  O4A       -3.5930   -1.1400    5.5880 O.2   400  P0P400     -0.2616
      9  O4B       -1.4990   -0.4840    4.9570 O.2   400  P0P400     -0.2616
     10  C5        -0.5430   -2.3830    7.2500 C.ar  400  P0P400      0.0335
     11  C6        -0.2130   -3.6410    7.6900 C.ar  400  P0P400      0.0967
     12  C5A       -0.0370   -1.1760    7.6300 C.3   400  P0P400      0.1818
     13  O4P       -0.4890   -0.3270    8.5850 O.3   400  P0P400     -0.2653
     14  P          0.1610    1.1300    8.4810 P.3   400  P0P400      0.5329
     15  O1P       -0.2620    1.6830    7.1770 O.2   400  P0P400     -0.2224
     16  O2P       -0.5140    1.9630    9.6860 O.3   400  P0P400     -0.1145
     17  O3P        1.7650    1.1270    8.6200 O.3   400  P0P400     -0.1145
@<TRIPOS>BOND
     1     9     7    1
     2     1     5    1
     3     8     7    1
     4     7     6    1
     5     5     6   ar
     6     5     3   ar
     7     4     3    1
     8     6    10   ar
     9     3     2   ar
    10    15    14    2
    11    10    12    1
    12    10    11   ar
    13     2    11   ar
    14    12    13    1
    15    14    13    1
    16    14    17    1
    17    14    16    1
