@<TRIPOS>MOLECULE
2gmt_HIN_B_1.pdb
 21 21 0 0 0
SMALL
GASTEIGER

@<TRIPOS>ATOM
      1  C1        35.3650   74.7870   83.9100 C.3   247  HIN247      0.0083
      2  C2        36.4900   74.3190   84.8930 C.3   247  HIN247      0.0663
      3  C3        35.9370   73.6570   86.1350 C.2   247  HIN247      0.1706
      4  C4        35.7170   74.5270   87.3310 C.3   247  HIN247      0.1566
      5  N5        34.6320   73.9390   88.0490 N.am  247  HIN247     -0.1979
      6  C6        33.3860   74.3880   88.0120 C.2   247  HIN247      0.2616
      7  C7        32.5030   73.4990   88.8750 C.3   247  HIN247      0.1728
      8  N8        31.0740   73.7110   88.7530 N.am  247  HIN247     -0.1978
      9  C9        30.2030   72.9570   89.4240 C.2   247  HIN247      0.2423
     10  C10       28.6970   73.2850   89.2530 C.3   247  HIN247      0.0964
     11  C11       32.9590   72.0400   88.7770 C.3   247  HIN247      0.0334
     12  C12       36.9320   74.3630   88.2480 C.3   247  HIN247      0.0555
     13  C1'       36.8990   75.3960   89.3120 C.ar  247  HIN247     -0.0200
     14  C2'       36.6230   76.7120   88.9290 C.ar  247  HIN247     -0.0042
     15  C3'       36.6210   77.7180   89.8980 C.ar  247  HIN247     -0.0003
     16  C4'       36.8890   77.3920   91.2400 C.ar  247  HIN247     -0.0000
     17  C5'       37.0680   76.0870   91.6450 C.ar  247  HIN247     -0.0003
     18  C6'       37.1070   75.0920   90.6640 C.ar  247  HIN247     -0.0042
     19  O3        35.8730   72.4240   86.2660 O.2   247  HIN247     -0.2943
     20  O6        32.9830   75.3840   87.3530 O.2   247  HIN247     -0.2715
     21  O9        30.5350   72.0070   90.1410 O.2   247  HIN247     -0.2733
@<TRIPOS>BOND
     1     1     2    1
     2     2     3    1
     3     3    19    2
     4     3     4    1
     5     4     5    1
     6     4    12    1
     7    20     6    2
     8     6     5   am
     9     6     7    1
    10    12    13    1
    11     8     7    1
    12     8     9   am
    13    11     7    1
    14    14    13   ar
    15    14    15   ar
    16    10     9    1
    17    13    18   ar
    18     9    21    2
    19    15    16   ar
    20    18    17   ar
    21    16    17   ar
