@<TRIPOS>MOLECULE
2gmu_PDG_A_1.pdb
 25 25 0 0 0
SMALL
GASTEIGER

@<TRIPOS>ATOM
      1  N1        -0.8450   -4.7180    7.3680 N.ar  500  PDG500     -0.2452
      2  C2        -1.9000   -4.7770    6.5720 C.ar  500  PDG500      0.0978
      3  C2A       -2.5170   -6.1050    6.2170 C.3   500  PDG500      0.0555
      4  C3        -2.4410   -3.6150    6.0590 C.ar  500  PDG500      0.2067
      5  O3        -3.5230   -3.6220    5.2480 O.3   500  PDG500     -0.2856
      6  C4        -1.8600   -2.4100    6.4000 C.ar  500  PDG500      0.0421
      7  C4A       -2.4940   -1.1160    5.8370 C.3   500  PDG500      0.1547
      8  C5        -0.7130   -2.3490    7.2130 C.ar  500  PDG500      0.0280
      9  C6        -0.2760   -3.5600    7.7170 C.ar  500  PDG500      0.0965
     10  C5A       -0.2700   -1.0980    7.6070 C.3   500  PDG500      0.1816
     11  OP4       -0.6080   -0.2670    8.6210 O.3   500  PDG500     -0.2653
     12  P          0.0620    1.1770    8.4710 P.3   500  PDG500      0.5329
     13  OP1       -0.3570    1.7790    7.1840 O.2   500  PDG500     -0.2224
     14  OP2       -0.5000    2.0400    9.7190 O.3   500  PDG500     -0.1145
     15  OP3        1.6820    1.1190    8.5480 O.3   500  PDG500     -0.1145
     16  NA        -1.7840   -0.6900    4.6650 N.2   500  PDG500     -0.2632
     17  CAA       -1.9250    0.6170    4.2330 C.2   500  PDG500      0.1340
     18  CBA       -1.2030    1.1570    2.9840 C.3   500  PDG500      0.0641
     19  CGA       -1.6510    2.6190    2.7630 C.3   500  PDG500      0.1205
     20  CDA       -0.7000    3.6080    3.4800 C.2   500  PDG500      0.3653
     21  OE1       -0.1270    3.3000    4.5920 O.co2 500  PDG500     -0.2456
     22  OE2       -0.4870    4.7590    2.9610 O.co2 500  PDG500     -0.2456
     23  CA        -2.8250    1.5650    5.0220 C.2   500  PDG500      0.4007
     24  OA        -4.0520    1.7210    4.6650 O.co2 500  PDG500     -0.2392
     25  OXT       -2.3320    2.1970    6.0240 O.co2 500  PDG500     -0.2392
@<TRIPOS>BOND
     1    19    18    1
     2    19    20    1
     3    22    20   ar
     4    18    17    1
     5    20    21   ar
     6    17    16    2
     7    17    23    1
     8    24    23   ar
     9    16     7    1
    10    23    25   ar
    11     5     4    1
    12     7     6    1
    13     4     6   ar
    14     4     2   ar
    15     3     2    1
    16     6     8   ar
    17     2     1   ar
    18    13    12    2
    19     8    10    1
    20     8     9   ar
    21     1     9   ar
    22    10    11    1
    23    12    15    1
    24    12    11    1
    25    12    14    1
