@<TRIPOS>MOLECULE
2gmv_PEP_A_1.pdb
 10 9 0 0 0
SMALL
GASTEIGER

@<TRIPOS>ATOM
      1  C1        19.2640    6.4040   21.4450 C.2   702  PEP702      0.4216
      2  O1        18.2320    6.4070   22.1040 O.co2 702  PEP702     -0.2371
      3  O2'       19.3880    7.4340   20.5690 O.co2 702  PEP702     -0.2371
      4  C2        20.2460    5.2880   21.3400 C.2   702  PEP702      0.2283
      5  C3        21.5240    5.5100   20.9920 C.2   702  PEP702      0.0477
      6  O2        19.6380    4.0670   21.3600 O.2   702  PEP702     -0.3930
      7  P         19.9210    2.8100   22.3450 P.3   702  PEP702      0.5889
      8  O1P       18.9010    2.4060   23.2870 O.3   702  PEP702     -0.1039
      9  O2P       20.2760    1.7010   21.2630 O.2   702  PEP702     -0.2114
     10  O3P       21.2900    3.1740   23.0640 O.3   702  PEP702     -0.1039
@<TRIPOS>BOND
     1     3     1   ar
     2     5     4    2
     3     9     7    2
     4     4     6    1
     5     4     1    1
     6     6     7    1
     7     1     2   ar
     8     7    10    1
     9     7     8    1
