@<TRIPOS>MOLECULE
2gmv_UN8_A_1.pdb
 40 44 0 0 0
SMALL
GASTEIGER

@<TRIPOS>ATOM
      1  O2        21.8840   -3.3890   46.2810 O.2   703  UN8703     -0.1471
      2  S1        23.1200   -4.0540   46.2720 S.O2  703  UN8703      0.1066
      3  O1        23.9360   -4.3240   47.3720 O.2   703  UN8703     -0.1471
      4  C1        24.2070   -3.2650   45.1030 C.2   703  UN8703      0.1980
      5  C2        24.1620   -2.0160   44.4040 C.3   703  UN8703      0.1412
      6  N5        25.4010   -1.7600   43.8020 N.3   703  UN8703     -0.2443
      7  C4        25.7780   -0.6540   42.9610 C.3   703  UN8703      0.0916
      8  C3        26.2430   -2.8120   44.2270 C.3   703  UN8703      0.2025
      9  N7        25.5720   -3.6530   45.0360 N.2   703  UN8703     -0.2359
     10  N4        22.8180   -5.6470   45.7660 N.pl3 703  UN8703     -0.0954
     11  C8        22.3270   -6.1050   44.5150 C.ar  703  UN8703      0.0910
     12  C9        22.6110   -7.3960   43.9870 C.ar  703  UN8703      0.0178
     13  C30       22.1800   -7.8080   42.7220 C.ar  703  UN8703     -0.0018
     14  C7        21.5770   -5.2840   43.6490 C.ar  703  UN8703      0.0178
     15  C6        21.1330   -5.7060   42.3990 C.ar  703  UN8703     -0.0018
     16  C5        21.4070   -6.9880   41.8890 C.ar  703  UN8703     -0.0051
     17  C16       20.9950   -7.3780   40.4980 C.3   703  UN8703      0.1511
     18  C14       21.9070   -6.6990   39.4940 C.1   703  UN8703      0.1200
     19  N15       23.1300   -7.2250   39.0510 N.2   703  UN8703     -0.3341
     20  C55       23.6890   -6.2850   38.1850 C.ar  703  UN8703      0.2464
     21  C56       24.9180   -6.3550   37.3990 C.ar  703  UN8703      0.2993
     22  O57       25.7200   -7.2940   37.4390 O.2   703  UN8703     -0.2638
     23  C54       22.7800   -5.1810   38.1460 C.ar  703  UN8703      0.2462
     24  N13       21.6810   -5.4560   38.9730 N.2   703  UN8703     -0.3226
     25  N53       23.0770   -4.0620   37.3740 N.ar  703  UN8703     -0.2534
     26  C59       22.1160   -2.9860   37.1320 C.3   703  UN8703      0.1131
     27  C10       21.4340   -3.1380   35.7690 C.3   703  UN8703      0.0247
     28  C11       20.5680   -1.9700   35.3480 C.3   703  UN8703      0.0020
     29  C12       20.0280   -2.2460   33.9640 C.3   703  UN8703      0.0001
     30  C52       24.2670   -4.1270   36.5830 C.ar  703  UN8703      0.3360
     31  O58       24.5610   -3.1490   35.8580 O.2   703  UN8703     -0.2461
     32  N51       25.2190   -5.1950   36.6850 N.ar  703  UN8703     -0.2422
     33  C17       26.2050   -5.1460   35.6180 C.3   703  UN8703      0.1426
     34  C18       27.5480   -4.6870   36.0910 C.ar  703  UN8703      0.0281
     35  C19       28.7090   -5.4250   35.8220 C.ar  703  UN8703      0.1380
     36  F24       28.6140   -6.5740   35.1180 F     703  UN8703     -0.2044
     37  C20       29.9700   -4.9720   36.2510 C.ar  703  UN8703      0.0294
     38  C21       30.0770   -3.7890   36.9740 C.ar  703  UN8703      0.0023
     39  C22       28.9290   -3.0470   37.2560 C.ar  703  UN8703     -0.0001
     40  C23       27.6840   -3.4900   36.8120 C.ar  703  UN8703     -0.0002
@<TRIPOS>BOND
     1    29    28    1
     2    36    35    1
     3    28    27    1
     4    33    34    1
     5    33    32    1
     6    27    26    1
     7    35    34   ar
     8    35    37   ar
     9    31    30    2
    10    34    40   ar
    11    37    38   ar
    12    30    32   ar
    13    30    25   ar
    14    32    21   ar
    15    40    39   ar
    16    38    39   ar
    17    26    25    1
    18    25    23   ar
    19    21    22    2
    20    21    20   ar
    21    23    20   ar
    22    23    24    2
    23    20    19    2
    24    24    18    2
    25    19    18    2
    26    18    17    1
    27    17    16    1
    28    16    15   ar
    29    16    13   ar
    30    15    14   ar
    31    13    12   ar
    32     7     6    1
    33    14    11   ar
    34     6     8    1
    35     6     5    1
    36    12    11   ar
    37     8     9    1
    38     5     4    1
    39    11    10    1
    40     9     4    2
    41     4     2    1
    42    10     2    1
    43     2     1    2
    44     2     3    2
