@<TRIPOS>MOLECULE
2gmx_877_A_1.pdb
 27 28 0 0 0
SMALL
GASTEIGER

@<TRIPOS>ATOM
      1  C1        27.6200   93.1450   24.9470 C.ar  901  877901      0.0463
      2  C2        26.2810   92.9500   25.4440 C.ar  901  877901      0.1359
      3  C3        25.7530   91.6140   25.5350 C.ar  901  877901      0.0240
      4  C4        26.5600   90.5100   25.1230 C.ar  901  877901      0.0366
      5  C5        27.8820   90.6800   24.6290 C.ar  901  877901      0.1447
      6  C6        28.4280   92.0310   24.5380 C.ar  901  877901      0.0715
      7  C9        24.3470   91.3570   26.0570 C.3   901  877901      0.1166
      8  C10       24.3480   91.2490   27.5840 C.2   901  877901      0.2522
      9  N13       24.2730   92.4600   28.1940 N.am  901  877901     -0.1488
     10  C14       24.2430   92.8150   29.5190 C.2   901  877901      0.2100
     11  O15       24.4100   90.1570   28.1160 O.2   901  877901     -0.2725
     12  N16       24.6920   94.0870   29.7310 N.2   901  877901     -0.3530
     13  C17       24.7220   94.6190   31.0080 C.2   901  877901      0.2735
     14  C18       24.2910   93.8600   32.1330 C.3   901  877901      0.2187
     15  C19       23.8180   92.5230   31.9230 C.2   901  877901      0.0946
     16  C20       23.7970   91.9970   30.6050 C.2   901  877901      0.0649
     17  O22       28.6300   89.5620   24.2360 O.3   901  877901     -0.4709
     18  C23       29.3240   88.9340   25.3090 C.3   901  877901      0.2525
     19  O27       25.4200   93.9980   25.8620 O.3   901  877901     -0.4717
     20  C28       25.9320   94.9490   26.7880 C.3   901  877901      0.2525
     21  N33       23.3880   91.7310   32.9470 N.pl3 901  877901     -0.1310
     22  C34       24.3320   94.4510   33.4580 C.1   901  877901      0.0888
     23  O36       25.1870   95.9310   31.2230 O.2   901  877901     -0.4538
     24  C37       24.5030   96.9640   30.5230 C.3   901  877901      0.2080
     25  C38       25.2860   97.4790   29.2950 C.3   901  877901      0.0513
     26 BR         30.2260   92.3880   23.8840 Br    901  877901     -0.0457
     27  N1        24.3590   94.9510   34.5030 N.1   901  877901     -0.1950
@<TRIPOS>BOND
     1    26     6    1
     2    17     5    1
     3    17    18    1
     4     6     5   ar
     5     6     1   ar
     6     5     4   ar
     7     1     2   ar
     8     4     3   ar
     9     2     3   ar
    10     2    19    1
    11     3     7    1
    12    19    20    1
    13     7     8    1
    14     8    11    2
    15     8     9   am
    16     9    10    1
    17    25    24    1
    18    10    12    2
    19    10    16    1
    20    12    13    2
    21    24    23    1
    22    16    15    2
    23    13    23    1
    24    13    14    1
    25    15    14    1
    26    15    21    1
    27    14    22    1
    28    22    27    3
