@<TRIPOS>MOLECULE
2gn2_C5P_A_1.pdb
 21 22 0 0 0
SMALL
GASTEIGER

@<TRIPOS>ATOM
      1  O3P      -16.5610  -68.4020  -35.7800 O.3   400  C5P400     -0.1145
      2  P        -15.3410  -68.3150  -36.6170 P.3   400  C5P400      0.5327
      3  O1P      -15.6930  -68.6570  -38.0530 O.2   400  C5P400     -0.2224
      4  O2P      -14.6840  -66.9820  -36.4080 O.3   400  C5P400     -0.1145
      5  O5'      -14.3210  -69.4340  -36.0570 O.3   400  C5P400     -0.2675
      6  C5'      -14.7360  -70.8020  -36.0280 C.3   400  C5P400      0.1859
      7  C4'      -13.6650  -71.6840  -35.3860 C.3   400  C5P400      0.1801
      8  O4'      -12.4350  -71.5660  -36.1120 O.3   400  C5P400     -0.3320
      9  C3'      -13.3630  -71.2830  -33.9460 C.3   400  C5P400      0.2158
     10  O3'      -13.1990  -72.4300  -33.1280 O.3   400  C5P400     -0.2175
     11  C2'      -12.0400  -70.5520  -34.0300 C.3   400  C5P400      0.2319
     12  O2'      -11.2550  -70.6670  -32.8460 O.3   400  C5P400     -0.2157
     13  C1'      -11.3800  -71.2560  -35.2030 C.3   400  C5P400      0.2400
     14  N1       -10.3340  -70.4750  -35.8640 N.am  400  C5P400     -0.1778
     15  C2        -9.0890  -71.0830  -36.1160 C.1   400  C5P400      0.2756
     16  N3        -8.1090  -70.3960  -36.7260 N.2   400  C5P400     -0.3024
     17  C4        -8.3280  -69.1190  -37.1060 C.2   400  C5P400      0.2346
     18  C5        -9.5470  -68.4940  -36.8690 C.2   400  C5P400      0.0687
     19  C6       -10.5480  -69.2070  -36.2380 C.2   400  C5P400      0.0836
     20  O2        -8.8750  -72.2610  -35.7770 O.2   400  C5P400     -0.1925
     21  N4        -7.3420  -68.4400  -37.7120 N.pl3 400  C5P400     -0.0921
@<TRIPOS>BOND
     1     3     2    2
     2    21    17    1
     3    17    18    1
     4    17    16    2
     5    18    19    2
     6    16    15    2
     7     2     4    1
     8     2     5    1
     9     2     1    1
    10    19    14    1
    11    15    14   am
    12    15    20    2
    13     8     7    1
    14     8    13    1
    15     5     6    1
    16     6     7    1
    17    14    13    1
    18     7     9    1
    19    13    11    1
    20    11     9    1
    21    11    12    1
    22     9    10    1
