@<TRIPOS>MOLECULE
2gn3_MMA_B_1.pdb
 13 13 0 0 0
SMALL
GASTEIGER

@<TRIPOS>ATOM
      1  C1        47.7460    4.4260  -42.7230 C.3   300  MMA300      0.2695
      2  C2        47.6540    4.8160  -41.2440 C.3   300  MMA300      0.2406
      3  C3        48.2020    3.6890  -40.3640 C.3   300  MMA300      0.2198
      4  C4        47.5090    2.3640  -40.6990 C.3   300  MMA300      0.2144
      5  C5        47.6070    2.0810  -42.2040 C.3   300  MMA300      0.1835
      6  C6        46.8350    0.8320  -42.6120 C.3   300  MMA300      0.2142
      7  C7        49.3340    4.0030  -44.4570 C.3   300  MMA300      0.1769
      8  O1        49.0750    4.2590  -43.0820 O.3   300  MMA300     -0.3259
      9  O2        46.3000    5.0720  -40.9030 O.3   300  MMA300     -0.2149
     10  O3        47.9940    4.0040  -38.9940 O.3   300  MMA300     -0.2174
     11  O4        48.1280    1.3110  -39.9770 O.3   300  MMA300     -0.2176
     12  O5        47.0530    3.1860  -42.9550 O.3   300  MMA300     -0.3256
     13  O6        45.4340    1.0150  -42.4490 O.3   300  MMA300     -0.2176
@<TRIPOS>BOND
     1     7     8    1
     2     8     1    1
     3    12     1    1
     4    12     5    1
     5     1     2    1
     6     6    13    1
     7     6     5    1
     8     5     4    1
     9     2     9    1
    10     2     3    1
    11     4     3    1
    12     4    11    1
    13     3    10    1
