@<TRIPOS>MOLECULE
2gn3_MAN_A_1.pdb
 11 11 0 0 0
SMALL
GASTEIGER

@<TRIPOS>ATOM
      1  C1        -2.9090   16.2550    1.3190 C.3   300  MAN300      0.1777
      2  C2        -2.7740   15.8100   -0.1400 C.3   300  MAN300      0.2141
      3  C3        -3.2590   14.3660   -0.2950 C.3   300  MAN300      0.2173
      4  C4        -2.5090   13.4530    0.6800 C.3   300  MAN300      0.2142
      5  C5        -2.6610   13.9880    2.1060 C.3   300  MAN300      0.1810
      6  C6        -1.8490   13.1970    3.1120 C.3   300  MAN300      0.2141
      7  O2        -1.4170   15.9030   -0.5410 O.3   300  MAN300     -0.2176
      8  O3        -3.0430   13.9300   -1.6310 O.3   300  MAN300     -0.2175
      9  O4        -3.0290   12.1340    0.6040 O.3   300  MAN300     -0.2176
     10  O5        -2.2010   15.3550    2.1720 O.3   300  MAN300     -0.3481
     11  O6        -0.4600   13.3100    2.8450 O.3   300  MAN300     -0.2176
@<TRIPOS>BOND
     1     8     3    1
     2     7     2    1
     3     3     2    1
     4     3     4    1
     5     2     1    1
     6     9     4    1
     7     4     5    1
     8     1    10    1
     9     5    10    1
    10     5     6    1
    11    11     6    1
