@<TRIPOS>MOLECULE
2gn4_NDP_A_1.pdb
 48 52 0 0 0
SMALL
GASTEIGER

@<TRIPOS>ATOM
      1  PA        14.5580   39.9270   -2.2420 P.3   334  NDP334      0.2189
      2  O1A       15.9880   39.1980   -2.4380 O.2   334  NDP334     -0.5170
      3  O2A       14.2630   40.3990   -0.7370 O.3   334  NDP334     -0.4371
      4  O5B       14.3550   41.2350   -3.1760 O.3   334  NDP334     -0.3112
      5  C5B       13.4500   42.2200   -2.7360 C.3   334  NDP334      0.1813
      6  C4B       13.8720   43.5080   -3.3840 C.3   334  NDP334      0.1820
      7  O4B       12.8740   44.4810   -3.1370 O.3   334  NDP334     -0.3136
      8  C3B       15.1590   43.9990   -2.7830 C.3   334  NDP334      0.2157
      9  O3B       16.0010   44.3220   -3.9030 O.3   334  NDP334     -0.2175
     10  C2B       14.8110   45.2750   -2.0710 C.3   334  NDP334      0.2314
     11  O2B       15.8350   46.2170   -2.3970 O.3   334  NDP334     -0.2630
     12  C1B       13.5180   45.6840   -2.7460 C.3   334  NDP334      0.3158
     13  N9A       12.5890   46.4880   -1.9200 N.pl3 334  NDP334     -0.1439
     14  C8A       12.1180   46.1150   -0.7030 C.3   334  NDP334      0.3377
     15  N7A       11.2880   47.0840   -0.2520 N.2   334  NDP334     -0.2095
     16  C5A       11.3100   48.0460   -1.2920 C.2   334  NDP334      0.2526
     17  C6A       10.6090   49.2970   -1.3610 C.2   334  NDP334      0.4393
     18  N6A        9.8010   49.6540   -0.3160 N.pl3 334  NDP334      0.2180
     19  N1A       10.7970   50.0670   -2.4880 N.2   334  NDP334      0.0021
     20  C2A       11.6510   49.5790   -3.4770 C.3   334  NDP334      0.5254
     21  N3A       12.3330   48.4120   -3.4640 N.2   334  NDP334     -0.0055
     22  C4A       12.1320   47.6520   -2.3240 C.2   334  NDP334      0.3518
     23  O3        13.3010   39.0240   -2.6330 O.3   334  NDP334     -0.2703
     24  PN        13.1580   38.0370   -3.8880 P.3   334  NDP334      0.2189
     25  O1N       14.1510   38.3930   -5.1010 O.2   334  NDP334     -0.5170
     26  O2N       13.3750   36.5830   -3.2430 O.3   334  NDP334     -0.4371
     27  O5D       11.5940   38.0890   -4.2580 O.3   334  NDP334     -0.3112
     28  C5D       11.2340   38.9490   -5.3160 C.3   334  NDP334      0.1813
     29  C4D        9.7230   38.9640   -5.4420 C.3   334  NDP334      0.1799
     30  O4D        9.2590   37.6260   -5.6250 O.3   334  NDP334     -0.3324
     31  C3D        9.0910   39.5090   -4.1880 C.3   334  NDP334      0.2158
     32  O3D        8.0100   40.3310   -4.6190 O.3   334  NDP334     -0.2175
     33  C2D        8.5350   38.3200   -3.4860 C.3   334  NDP334      0.2312
     34  O2D        7.2740   38.6520   -2.9120 O.3   334  NDP334     -0.2158
     35  C1D        8.3200   37.3260   -4.5930 C.3   334  NDP334      0.2299
     36  N1N        8.3890   35.9040   -4.1710 N.pl3 334  NDP334     -0.2608
     37  C2N        9.4810   35.4190   -3.4620 C.2   334  NDP334      0.0678
     38  C3N        9.7680   34.0960   -3.5020 C.2   334  NDP334      0.0537
     39  C7N       10.9140   33.5780   -2.6850 C.2   334  NDP334      0.2818
     40  O7N       10.8880   32.4950   -2.1180 O.2   334  NDP334     -0.2670
     41  N7N       11.9980   34.4080   -2.6350 N.am  334  NDP334     -0.0839
     42  C4N        8.8940   33.1710   -4.3360 C.3   334  NDP334      0.0597
     43  C5N        7.5440   33.7860   -4.6500 C.2   334  NDP334     -0.0051
     44  C6N        7.3490   35.1070   -4.5570 C.2   334  NDP334      0.0630
     45  P2B       16.1850   47.4190   -1.3700 P.3   334  NDP334      0.5328
     46  O1X       17.6280   48.0500   -1.6200 O.2   334  NDP334     -0.2224
     47  O2X       14.9860   48.4630   -1.5660 O.3   334  NDP334     -0.1145
     48  O3X       15.9650   46.8300    0.1160 O.3   334  NDP334     -0.1145
@<TRIPOS>BOND
     1    30    29    1
     2    30    35    1
     3    29    28    1
     4    29    31    1
     5    28    27    1
     6    25    24    2
     7    43    44    2
     8    43    42    1
     9    32    31    1
    10    35    36    1
    11    35    33    1
    12    44    36    1
    13    42    38    1
    14    27    24    1
    15    31    33    1
    16    36    37    1
    17     9     8    1
    18    24    26    1
    19    24    23    1
    20    38    37    2
    21    38    39    1
    22    33    34    1
    23    20    21    1
    24    20    19    1
    25    21    22    2
    26     6     7    1
    27     6     8    1
    28     6     5    1
    29     4     5    1
    30     4     1    1
    31     7    12    1
    32     8    10    1
    33    12    10    1
    34    12    13    1
    35    39    41   am
    36    39    40    2
    37    23     1    1
    38    19    17    2
    39     2     1    2
    40    11    10    1
    41    11    45    1
    42    22    13    1
    43    22    16    1
    44     1     3    1
    45    13    14    1
    46    46    45    2
    47    47    45    1
    48    45    48    1
    49    17    16    1
    50    17    18    1
    51    16    15    2
    52    14    15    1
