@<TRIPOS>MOLECULE
2gn4_UD1_A_1.pdb
 39 41 0 0 0
SMALL
GASTEIGER

@<TRIPOS>ATOM
      1  C1'        9.3890   31.7950    1.2130 C.3   335  UD1335      0.2633
      2  C2'        9.7260   33.2700    1.0220 C.3   335  UD1335      0.1845
      3  C3'        8.4620   34.0460    0.6940 C.3   335  UD1335      0.2094
      4  C4'        7.8800   33.4510   -0.5650 C.3   335  UD1335      0.2136
      5  C5'        7.4990   31.9990   -0.2920 C.3   335  UD1335      0.1834
      6  C6'        6.9230   31.3780   -1.5420 C.3   335  UD1335      0.2142
      7  C7'       11.7030   34.1690    2.1750 C.2   335  UD1335      0.2420
      8  C8'       12.1840   34.9190    3.3920 C.3   335  UD1335      0.0964
      9  N2'       10.3720   33.8090    2.2280 N.am  335  UD1335     -0.1992
     10  O1'        8.4620   31.6290    2.2820 O.3   335  UD1335     -0.2864
     11  O3'        8.8060   35.3990    0.4370 O.3   335  UD1335     -0.2183
     12  O4'        6.7150   34.1880   -0.9240 O.3   335  UD1335     -0.2176
     13  O5'        8.6720   31.2380    0.0820 O.3   335  UD1335     -0.3260
     14  O6'        6.0900   30.3010   -1.1390 O.3   335  UD1335     -0.2176
     15  O7'       12.4330   33.9090    1.2370 O.2   335  UD1335     -0.2733
     16  N1        12.1840   26.2480    7.9990 N.am  335  UD1335     -0.1766
     17  C2        12.7690   25.3130    8.8510 C.1   335  UD1335      0.2845
     18  N3        13.7290   25.7770    9.7300 N.2   335  UD1335     -0.2452
     19  C4        14.1650   27.0990    9.8380 C.1   335  UD1335      0.2182
     20  C5        13.5010   28.0570    8.8930 C.2   335  UD1335      0.1242
     21  C6        12.5620   27.5670    8.0430 C.2   335  UD1335      0.0929
     22  O2        12.4580   24.1390    8.8350 O.2   335  UD1335     -0.1918
     23  O4        15.0220   27.4460   10.6400 O.2   335  UD1335     -0.2085
     24  C1B       11.1590   25.7910    7.0440 C.3   335  UD1335      0.2401
     25  C2B        9.8760   26.5780    7.1100 C.3   335  UD1335      0.2319
     26  O2'        8.9750   25.9440    8.0100 O.3   335  UD1335     -0.2157
     27  C3B        9.3430   26.5830    5.7200 C.3   335  UD1335      0.2158
     28  C4B       10.5350   26.2750    4.8470 C.3   335  UD1335      0.1799
     29  O4B       11.6220   25.8820    5.6940 O.3   335  UD1335     -0.3320
     30  O3B        8.4130   25.5260    5.5570 O.3   335  UD1335     -0.2175
     31  C5B       10.9490   27.4990    4.0570 C.3   335  UD1335      0.1813
     32  O5B       11.2440   28.5260    4.9750 O.3   335  UD1335     -0.3112
     33  PA        11.5570   29.9950    4.3780 P.3   335  UD1335      0.2189
     34  O1A       11.6830   31.1490    5.5010 O.3   335  UD1335     -0.4371
     35  O2A       12.8890   29.7790    3.4890 O.2   335  UD1335     -0.5170
     36  O3A       10.4030   30.2480    3.2800 O.3   335  UD1335     -0.2703
     37  PB         8.8340   30.5750    3.4740 P.3   335  UD1335      0.2208
     38  O1B        8.4540   31.0830    4.9620 O.3   335  UD1335     -0.4371
     39  O2B        8.0920   29.2100    3.0270 O.2   335  UD1335     -0.5170
@<TRIPOS>BOND
     1     6    14    1
     2     6     5    1
     3    12     4    1
     4     4     5    1
     5     4     3    1
     6     5    13    1
     7    13     1    1
     8    11     3    1
     9     3     2    1
    10     2     1    1
    11     2     9    1
    12     1    10    1
    13    15     7    2
    14     7     9   am
    15     7     8    1
    16    10    37    1
    17    39    37    2
    18    36    37    1
    19    36    33    1
    20    37    38    1
    21    35    33    2
    22    31    28    1
    23    31    32    1
    24    33    32    1
    25    33    34    1
    26    28    29    1
    27    28    27    1
    28    30    27    1
    29    29    24    1
    30    27    25    1
    31    24    25    1
    32    24    16    1
    33    25    26    1
    34    16    21    1
    35    16    17   am
    36    21    20    2
    37    22    17    2
    38    17    18    2
    39    20    19    1
    40    18    19    2
    41    19    23    2
