@<TRIPOS>MOLECULE
2gn6_UD1_A_1.pdb
 39 41 0 0 0
SMALL
GASTEIGER

@<TRIPOS>ATOM
      1  C1'        9.5110   30.4330    1.7090 C.3   335  UD1335      0.2633
      2  C2'        9.7580   31.9270    1.5400 C.3   335  UD1335      0.1845
      3  C3'        8.4910   32.6350    1.0750 C.3   335  UD1335      0.2094
      4  C4'        7.8980   31.9340   -0.1340 C.3   335  UD1335      0.2136
      5  C5'        7.6580   30.4670    0.2050 C.3   335  UD1335      0.1834
      6  C6'        7.0760   29.7380   -0.9820 C.3   335  UD1335      0.2142
      7  C7'       11.4890   33.0210    2.8890 C.2   335  UD1335      0.2420
      8  C8'       11.5370   34.4860    3.2480 C.3   335  UD1335      0.0964
      9  N2'       10.2180   32.5020    2.8090 N.am  335  UD1335     -0.1992
     10  O1'        8.5370   30.2080    2.7240 O.3   335  UD1335     -0.2864
     11  O3'        8.8340   33.9610    0.7000 O.3   335  UD1335     -0.2183
     12  O4'        6.6500   32.5490   -0.4310 O.3   335  UD1335     -0.2176
     13  O5'        8.9030   29.8400    0.5450 O.3   335  UD1335     -0.3260
     14  O6'        6.3410   28.6290   -0.4840 O.3   335  UD1335     -0.2176
     15  O7'       12.4860   32.3620    2.6980 O.2   335  UD1335     -0.2733
     16  N1        11.4690   23.7470    7.3580 N.am  335  UD1335     -0.1766
     17  C2        11.9460   22.7600    8.2250 C.1   335  UD1335      0.2845
     18  N3        12.8770   23.1540    9.1760 N.2   335  UD1335     -0.2452
     19  C4        13.3790   24.4450    9.3430 C.1   335  UD1335      0.2182
     20  C5        12.8290   25.4590    8.3830 C.2   335  UD1335      0.1242
     21  C6        11.9170   25.0420    7.4620 C.2   335  UD1335      0.0929
     22  O2        11.5700   21.6030    8.1610 O.2   335  UD1335     -0.1918
     23  O4        14.2020   24.7270   10.2040 O.2   335  UD1335     -0.2085
     24  C1B       10.4810   23.3710    6.3190 C.3   335  UD1335      0.2401
     25  C2B        9.1190   23.9850    6.5270 C.3   335  UD1335      0.2319
     26  O2'        8.2810   23.0310    7.1750 O.3   335  UD1335     -0.2157
     27  C3B        8.5970   24.3050    5.1720 C.3   335  UD1335      0.2158
     28  C4B        9.7660   24.1440    4.2390 C.3   335  UD1335      0.1799
     29  O4B       10.9120   23.7680    5.0140 O.3   335  UD1335     -0.3320
     30  O3B        7.6140   23.3510    4.8050 O.3   335  UD1335     -0.2175
     31  C5B       10.0300   25.4530    3.5030 C.3   335  UD1335      0.1813
     32  O5B       11.2170   26.0520    3.9860 O.3   335  UD1335     -0.3112
     33  PA        11.1480   27.6200    4.4210 P.3   335  UD1335      0.2189
     34  O1A       10.7720   27.8780    5.9680 O.3   335  UD1335     -0.4371
     35  O2A       12.5900   28.2070    4.0000 O.2   335  UD1335     -0.5170
     36  O3A       10.1340   28.3020    3.3660 O.3   335  UD1335     -0.2703
     37  PB         8.6200   28.8250    3.5700 P.3   335  UD1335      0.2208
     38  O1B        8.1670   28.9690    5.1120 O.3   335  UD1335     -0.4371
     39  O2B        7.7330   27.7790    2.7160 O.2   335  UD1335     -0.5170
@<TRIPOS>BOND
     1     6    14    1
     2     6     5    1
     3    12     4    1
     4     4     5    1
     5     4     3    1
     6     5    13    1
     7    13     1    1
     8    11     3    1
     9     3     2    1
    10     2     1    1
    11     2     9    1
    12     1    10    1
    13    15     7    2
    14    39    37    2
    15    10    37    1
    16     9     7   am
    17     7     8    1
    18    36    37    1
    19    36    33    1
    20    31    32    1
    21    31    28    1
    22    37    38    1
    23    32    33    1
    24    35    33    2
    25    28    29    1
    26    28    27    1
    27    33    34    1
    28    30    27    1
    29    29    24    1
    30    27    25    1
    31    24    25    1
    32    24    16    1
    33    25    26    1
    34    16    21    1
    35    16    17   am
    36    21    20    2
    37    22    17    2
    38    17    18    2
    39    20    19    1
    40    18    19    2
    41    19    23    2
