@<TRIPOS>MOLECULE
2gn6_NAP_A_1.pdb
 48 52 0 0 0
SMALL
GASTEIGER

@<TRIPOS>ATOM
      1  PA        14.0300   38.8370   -2.2100 P.3   334  NAP334      0.2189
      2  O1A       15.4340   38.0400   -2.2760 O.2   334  NAP334     -0.5170
      3  O2A       13.4850   39.1460   -0.7180 O.3   334  NAP334     -0.4371
      4  O5B       14.0660   40.2780   -2.9300 O.3   334  NAP334     -0.3112
      5  C5B       13.1240   41.2440   -2.5320 C.3   334  NAP334      0.1813
      6  C4B       13.5070   42.5190   -3.2400 C.3   334  NAP334      0.1820
      7  O4B       12.4850   43.4920   -3.0420 O.3   334  NAP334     -0.3136
      8  C3B       14.7850   43.0770   -2.6760 C.3   334  NAP334      0.2157
      9  O3B       15.6870   43.2270   -3.7760 O.3   334  NAP334     -0.2175
     10  C2B       14.4300   44.4000   -2.1120 C.3   334  NAP334      0.2314
     11  O2B       15.4470   45.3260   -2.4760 O.3   334  NAP334     -0.2630
     12  C1B       13.1210   44.7460   -2.7500 C.3   334  NAP334      0.3158
     13  N9A       12.2460   45.5750   -1.8730 N.pl3 334  NAP334     -0.1439
     14  C8A       11.8440   45.2100   -0.6340 C.3   334  NAP334      0.3377
     15  N7A       11.0640   46.1800   -0.1330 N.2   334  NAP334     -0.2095
     16  C5A       11.0340   47.1460   -1.1680 C.2   334  NAP334      0.2526
     17  C6A       10.3410   48.4100   -1.1860 C.2   334  NAP334      0.4393
     18  N6A        9.6080   48.7690   -0.0960 N.pl3 334  NAP334      0.2180
     19  N1A       10.4630   49.1830   -2.3150 N.2   334  NAP334      0.0021
     20  C2A       11.2490   48.6840   -3.3560 C.3   334  NAP334      0.5254
     21  N3A       11.9170   47.5040   -3.3860 N.2   334  NAP334     -0.0055
     22  C4A       11.7830   46.7450   -2.2470 C.2   334  NAP334      0.3518
     23  O3        12.8080   38.0980   -2.9220 O.3   334  NAP334     -0.2703
     24  PN        12.8160   37.0720   -4.1450 P.3   334  NAP334      0.2189
     25  O1N       13.7310   37.5240   -5.3790 O.2   334  NAP334     -0.5170
     26  O2N       13.2480   35.6770   -3.4680 O.3   334  NAP334     -0.4371
     27  O5D       11.2700   36.8570   -4.4910 O.3   334  NAP334     -0.3112
     28  C5D       10.6080   37.9460   -5.0750 C.3   334  NAP334      0.1813
     29  C4D        9.1780   37.5340   -5.3190 C.3   334  NAP334      0.1799
     30  O4D        9.1590   36.1830   -5.8010 O.3   334  NAP334     -0.3327
     31  C3D        8.3940   37.5620   -4.0490 C.3   334  NAP334      0.2158
     32  O3D        7.6090   38.7460   -4.0180 O.3   334  NAP334     -0.2175
     33  C2D        7.5430   36.3510   -4.0910 C.3   334  NAP334      0.2309
     34  O2D        6.1870   36.7170   -4.2970 O.3   334  NAP334     -0.2158
     35  C1D        8.0150   35.5290   -5.2470 C.3   334  NAP334      0.2263
     36  N1N        8.3060   34.1370   -4.7890 N.pl3 334  NAP334     -0.2787
     37  C2N        9.3990   33.9370   -3.9430 C.3   334  NAP334      0.1244
     38  C3N        9.6140   32.5990   -3.5230 C.2   334  NAP334      0.0544
     39  C7N       10.7530   32.2360   -2.6010 C.2   334  NAP334      0.2818
     40  O7N       11.0300   31.0870   -2.2980 O.2   334  NAP334     -0.2670
     41  N7N       11.4390   33.3060   -2.0900 N.am  334  NAP334     -0.0839
     42  C4N        8.7280   31.5660   -3.9790 C.2   334  NAP334      0.0033
     43  C5N        7.6350   31.8690   -4.8460 C.2   334  NAP334      0.0157
     44  C6N        7.4220   33.1960   -5.2580 C.2   334  NAP334      0.0633
     45  P2B       15.9520   46.3680   -1.3610 P.3   334  NAP334      0.5328
     46  O1X       17.3770   47.0070   -1.7090 O.2   334  NAP334     -0.2224
     47  O2X       14.7490   47.4330   -1.2530 O.3   334  NAP334     -0.1145
     48  O3X       15.8870   45.6010    0.0520 O.3   334  NAP334     -0.1145
@<TRIPOS>BOND
     1    30    29    1
     2    30    35    1
     3    25    24    2
     4    29    28    1
     5    29    31    1
     6    44    43    2
     7    44    36    1
     8    35    36    1
     9    35    33    1
    10    28    27    1
    11    43    42    1
    12    36    37    1
    13    27    24    1
    14    34    33    1
    15    24    26    1
    16    24    23    1
    17    33    31    1
    18    31    32    1
    19    42    38    2
    20    37    38    1
    21     9     8    1
    22    38    39    1
    23    21    20    1
    24    21    22    2
    25    20    19    1
    26     6     7    1
    27     6     8    1
    28     6     5    1
    29     7    12    1
    30     4     5    1
    31     4     1    1
    32    23     1    1
    33    12    10    1
    34    12    13    1
    35     8    10    1
    36    39    40    2
    37    39    41   am
    38    11    10    1
    39    11    45    1
    40    19    17    2
    41     2     1    2
    42    22    13    1
    43    22    16    1
    44     1     3    1
    45    13    14    1
    46    46    45    2
    47    45    47    1
    48    45    48    1
    49    17    16    1
    50    17    18    1
    51    16    15    2
    52    14    15    1
