@<TRIPOS>MOLECULE
2gn7_MAN_A_1.pdb
 11 11 0 0 0
SMALL
GASTEIGER

@<TRIPOS>ATOM
      1  C1        -3.5790   15.4770    2.4150 C.3   253  MAN253      0.1777
      2  C2        -3.3450   15.3670    0.9030 C.3   253  MAN253      0.2141
      3  C3        -3.6560   13.9460    0.4080 C.3   253  MAN253      0.2173
      4  C4        -2.8520   12.9160    1.2080 C.3   253  MAN253      0.2142
      5  C5        -3.1480   13.0810    2.7060 C.3   253  MAN253      0.1810
      6  C6        -2.2730   12.1680    3.5650 C.3   253  MAN253      0.2141
      7  O2        -1.9920   15.6850    0.6010 O.3   253  MAN253     -0.2176
      8  O3        -3.3430   13.8350   -0.9770 O.3   253  MAN253     -0.2175
      9  O4        -3.2180   11.6070    0.7830 O.3   253  MAN253     -0.2176
     10  O5        -2.8910   14.4460    3.1340 O.3   253  MAN253     -0.3481
     11  O6        -0.9390   12.6520    3.6380 O.3   253  MAN253     -0.2176
@<TRIPOS>BOND
     1     8     3    1
     2     3     2    1
     3     3     4    1
     4     7     2    1
     5     9     4    1
     6     2     1    1
     7     4     5    1
     8     1    10    1
     9     5    10    1
    10     5     6    1
    11     6    11    1
