@<TRIPOS>MOLECULE
2gn8_UDP_A_1.pdb
 25 26 0 0 0
SMALL
GASTEIGER

@<TRIPOS>ATOM
      1  N1        42.5010   -6.9860    6.1170 N.am  335  UDP335     -0.1766
      2  C2        42.4210   -8.1280    6.9160 C.1   335  UDP335      0.2845
      3  N3        43.4320   -8.3170    7.8460 N.2   335  UDP335     -0.2452
      4  C4        44.5190   -7.4670    8.0530 C.1   335  UDP335      0.2182
      5  C5        44.5450   -6.2590    7.1660 C.2   335  UDP335      0.1242
      6  C6        43.5370   -6.1030    6.2660 C.2   335  UDP335      0.0929
      7  O2        41.5150   -8.9300    6.8130 O.2   335  UDP335     -0.1918
      8  O4        45.3820   -7.6910    8.8910 O.2   335  UDP335     -0.2085
      9  C1'       41.4590   -6.7510    5.0970 C.3   335  UDP335      0.2401
     10  C2'       40.7140   -5.4540    5.2760 C.3   335  UDP335      0.2319
     11  O2'       39.4840   -5.7240    5.9410 O.3   335  UDP335     -0.2157
     12  C3'       40.4710   -4.9240    3.9060 C.3   335  UDP335      0.2158
     13  C4'       41.3440   -5.7510    2.9980 C.3   335  UDP335      0.1799
     14  O4'       42.0240   -6.7250    3.7880 O.3   335  UDP335     -0.3320
     15  O3'       39.1190   -5.1580    3.5380 O.3   335  UDP335     -0.2175
     16  C5'       42.3730   -4.8890    2.3040 C.3   335  UDP335      0.1813
     17  O5'       43.2760   -4.4130    3.2740 O.3   335  UDP335     -0.3111
     18  PA        44.4880   -3.4810    2.7540 P.3   335  UDP335      0.2231
     19  O1A       45.3580   -2.7940    3.9280 O.3   335  UDP335     -0.4370
     20  O2A       45.3350   -4.4410    1.7630 O.2   335  UDP335     -0.5169
     21  O3A       43.7960   -2.4250    1.7440 O.3   335  UDP335     -0.2261
     22  PB        42.9640   -1.0770    2.0530 P.3   335  UDP335      0.5373
     23  O1B       43.0220   -0.5900    3.5920 O.3   335  UDP335     -0.1143
     24  O2B       41.4830   -1.4110    1.5050 O.3   335  UDP335     -0.1143
     25  O3B       43.5510   -0.0120    0.9870 O.2   335  UDP335     -0.2221
@<TRIPOS>BOND
     1    25    22    2
     2    24    22    1
     3    21    22    1
     4    21    18    1
     5    20    18    2
     6    22    23    1
     7    16    13    1
     8    16    17    1
     9    18    17    1
    10    18    19    1
    11    13    14    1
    12    13    12    1
    13    15    12    1
    14    14     9    1
    15    12    10    1
    16     9    10    1
    17     9     1    1
    18    10    11    1
    19     1     6    1
    20     1     2   am
    21     6     5    2
    22     7     2    2
    23     2     3    2
    24     5     4    1
    25     3     4    2
    26     4     8    2
