@<TRIPOS>MOLECULE
2gn8_NAP_A_1.pdb
 48 52 0 0 0
SMALL
GASTEIGER

@<TRIPOS>ATOM
      1  PA        53.1350    3.7310   -3.8680 P.3   334  NAP334      0.2189
      2  O1A       53.7640    2.2610   -4.0750 O.2   334  NAP334     -0.5170
      3  O2A       53.0640    4.2240   -2.3450 O.3   334  NAP334     -0.4371
      4  O5B       53.9380    4.8940   -4.6670 O.3   334  NAP334     -0.3112
      5  C5B       53.6130    6.2460   -4.4030 C.3   334  NAP334      0.1813
      6  C4B       54.8700    7.0320   -4.6640 C.3   334  NAP334      0.1820
      7  O4B       54.5950    8.4210   -4.5880 O.3   334  NAP334     -0.3136
      8  C3B       55.9090    6.7370   -3.6310 C.3   334  NAP334      0.2157
      9  O3B       56.8000    5.7630   -4.1740 O.3   334  NAP334     -0.2175
     10  C2B       56.5890    8.0330   -3.3840 C.3   334  NAP334      0.2314
     11  O2B       57.9270    7.9480   -3.8830 O.3   334  NAP334     -0.2630
     12  C1B       55.7970    9.0610   -4.1590 C.3   334  NAP334      0.3158
     13  N9A       55.4820   10.2720   -3.3370 N.pl3 334  NAP334     -0.1439
     14  C8A       54.8770   10.2400   -2.1240 C.3   334  NAP334      0.3377
     15  N7A       54.7480   11.5000   -1.6750 N.2   334  NAP334     -0.2095
     16  C5A       55.3210   12.2840   -2.7130 C.2   334  NAP334      0.2526
     17  C6A       55.4620   13.7180   -2.7810 C.2   334  NAP334      0.4393
     18  N6A       55.0020   14.4810   -1.7380 N.pl3 334  NAP334      0.2180
     19  N1A       56.0580   14.2410   -3.9040 N.2   334  NAP334      0.0021
     20  C2A       56.4810   13.3530   -4.8910 C.3   334  NAP334      0.5254
     21  N3A       56.3760   12.0080   -4.8790 N.2   334  NAP334     -0.0055
     22  C4A       55.7720   11.4930   -3.7410 C.2   334  NAP334      0.3518
     23  O3        51.6470    3.8880   -4.4010 O.3   334  NAP334     -0.2703
     24  PN        50.9600    3.1230   -5.6210 P.3   334  NAP334      0.2189
     25  O1N       51.9100    2.9230   -6.8940 O.2   334  NAP334     -0.5170
     26  O2N       50.4380    1.7620   -4.9450 O.3   334  NAP334     -0.4371
     27  O5D       49.6230    3.9700   -5.8970 O.3   334  NAP334     -0.3112
     28  C5D       49.7660    5.0740   -6.7520 C.3   334  NAP334      0.1813
     29  C4D       48.3880    5.5740   -7.1010 C.3   334  NAP334      0.1799
     30  O4D       47.5520    4.4530   -7.3940 O.3   334  NAP334     -0.3327
     31  C3D       47.7780    6.3080   -5.9500 C.3   334  NAP334      0.2158
     32  O3D       47.8430    7.7020   -6.2340 O.3   334  NAP334     -0.2175
     33  C2D       46.3720    5.8280   -5.8780 C.3   334  NAP334      0.2309
     34  O2D       45.4800    6.8780   -6.2560 O.3   334  NAP334     -0.2158
     35  C1D       46.2500    4.6990   -6.8560 C.3   334  NAP334      0.2263
     36  N1N       45.6790    3.4880   -6.1930 N.pl3 334  NAP334     -0.2787
     37  C2N       46.5400    2.6890   -5.4570 C.3   334  NAP334      0.1244
     38  C3N       45.9550    1.5600   -4.8430 C.2   334  NAP334      0.0544
     39  C7N       46.7850    0.6140   -4.0200 C.2   334  NAP334      0.2818
     40  O7N       46.3650   -0.4440   -3.5790 O.2   334  NAP334     -0.2670
     41  N7N       48.0640    1.0420   -3.7980 N.am  334  NAP334     -0.0839
     42  C4N       44.5520    1.3080   -5.0080 C.2   334  NAP334      0.0033
     43  C5N       43.7400    2.1870   -5.7870 C.2   334  NAP334      0.0157
     44  C6N       44.3290    3.3080   -6.3950 C.2   334  NAP334      0.0633
     45  P2B       59.0990    8.7560   -3.1010 P.3   334  NAP334      0.5328
     46  O1X       60.5470    8.5650   -3.7820 O.2   334  NAP334     -0.2224
     47  O2X       58.5860   10.2850   -3.0590 O.3   334  NAP334     -0.1145
     48  O3X       58.9990    8.2730   -1.5730 O.3   334  NAP334     -0.1145
@<TRIPOS>BOND
     1    30    29    1
     2    30    35    1
     3    29    28    1
     4    29    31    1
     5    25    24    2
     6    35    36    1
     7    35    33    1
     8    28    27    1
     9    44    36    1
    10    44    43    2
    11    34    33    1
    12    32    31    1
    13    36    37    1
    14    31    33    1
    15    27    24    1
    16    43    42    1
    17    24    26    1
    18    24    23    1
    19    37    38    1
    20    42    38    2
    21    20    21    1
    22    20    19    1
    23    21    22    2
    24    38    39    1
    25     4     5    1
    26     4     1    1
    27     6     7    1
    28     6     5    1
    29     6     8    1
    30     7    12    1
    31    23     1    1
    32     9     8    1
    33    12    10    1
    34    12    13    1
    35     2     1    2
    36    39    41   am
    37    39    40    2
    38    19    17    2
    39    11    10    1
    40    11    45    1
    41     1     3    1
    42    46    45    2
    43    22    13    1
    44    22    16    1
    45     8    10    1
    46    13    14    1
    47    45    47    1
    48    45    48    1
    49    17    16    1
    50    17    18    1
    51    16    15    2
    52    14    15    1
