@<TRIPOS>MOLECULE
2gn9_NAP_A_1.pdb
 48 52 0 0 0
SMALL
GASTEIGER

@<TRIPOS>ATOM
      1  PA        14.7760   40.1950   -2.1880 P.3   334  NAP334      0.2189
      2  O1A       16.1560   39.4100   -2.4300 O.2   334  NAP334     -0.5170
      3  O2A       14.4660   40.5480   -0.6380 O.3   334  NAP334     -0.4371
      4  O5B       14.6830   41.6010   -2.9980 O.3   334  NAP334     -0.3112
      5  C5B       13.6200   42.4800   -2.7060 C.3   334  NAP334      0.1813
      6  C4B       13.9840   43.8200   -3.3070 C.3   334  NAP334      0.1820
      7  O4B       12.9230   44.7420   -3.0760 O.3   334  NAP334     -0.3136
      8  C3B       15.2130   44.3710   -2.6360 C.3   334  NAP334      0.2157
      9  O3B       16.1800   44.5540   -3.6600 O.3   334  NAP334     -0.2175
     10  C2B       14.8170   45.7050   -2.0980 C.3   334  NAP334      0.2314
     11  O2B       15.7880   46.6800   -2.4920 O.3   334  NAP334     -0.2630
     12  C1B       13.5080   46.0040   -2.7830 C.3   334  NAP334      0.3158
     13  N9A       12.6150   46.8600   -1.9600 N.pl3 334  NAP334     -0.1439
     14  C8A       12.1860   46.5240   -0.7240 C.3   334  NAP334      0.3377
     15  N7A       11.4050   47.5080   -0.2600 N.2   334  NAP334     -0.2095
     16  C5A       11.4010   48.4570   -1.3120 C.2   334  NAP334      0.2526
     17  C6A       10.7210   49.7250   -1.3590 C.2   334  NAP334      0.4393
     18  N6A        9.9770   50.1090   -0.2760 N.pl3 334  NAP334      0.2180
     19  N1A       10.8670   50.4800   -2.5030 N.2   334  NAP334      0.0021
     20  C2A       11.6640   49.9590   -3.5250 C.3   334  NAP334      0.5254
     21  N3A       12.3240   48.7750   -3.5260 N.2   334  NAP334     -0.0055
     22  C4A       12.1640   48.0310   -2.3700 C.2   334  NAP334      0.3518
     23  O3        13.5020   39.3790   -2.6820 O.3   334  NAP334     -0.2703
     24  PN        13.3460   38.5530   -4.0380 P.3   334  NAP334      0.2189
     25  O1N       14.2820   39.1010   -5.2440 O.2   334  NAP334     -0.5170
     26  O2N       13.6420   37.0270   -3.5900 O.3   334  NAP334     -0.4371
     27  O5D       11.7560   38.5720   -4.3380 O.3   334  NAP334     -0.3112
     28  C5D       11.3160   39.4810   -5.3240 C.3   334  NAP334      0.1813
     29  C4D        9.8090   39.4030   -5.4310 C.3   334  NAP334      0.1799
     30  O4D        9.4460   38.0660   -5.7780 O.3   334  NAP334     -0.3327
     31  C3D        9.1630   39.7400   -4.1190 C.3   334  NAP334      0.2158
     32  O3D        8.1910   40.7480   -4.3720 O.3   334  NAP334     -0.2175
     33  C2D        8.5190   38.4930   -3.6600 C.3   334  NAP334      0.2309
     34  O2D        7.2250   38.7780   -3.1560 O.3   334  NAP334     -0.2158
     35  C1D        8.4500   37.6050   -4.8690 C.3   334  NAP334      0.2263
     36  N1N        8.6860   36.1680   -4.5380 N.pl3 334  NAP334     -0.2787
     37  C2N        9.8110   35.8530   -3.7890 C.3   334  NAP334      0.1244
     38  C3N        9.9900   34.4870   -3.5030 C.2   334  NAP334      0.0544
     39  C7N       11.1660   34.0380   -2.7060 C.2   334  NAP334      0.2818
     40  O7N       11.1070   33.7100   -1.5320 O.2   334  NAP334     -0.2670
     41  N7N       12.3290   34.0270   -3.4280 N.am  334  NAP334     -0.0839
     42  C4N        9.0420   33.5220   -3.9810 C.2   334  NAP334      0.0033
     43  C5N        7.9080   33.9370   -4.7490 C.2   334  NAP334      0.0157
     44  C6N        7.7340   35.3060   -5.0320 C.2   334  NAP334      0.0633
     45  P2B       16.2660   47.7770   -1.3930 P.3   334  NAP334      0.5328
     46  O1X       17.6810   48.4670   -1.7390 O.2   334  NAP334     -0.2224
     47  O2X       15.0520   48.8250   -1.3130 O.3   334  NAP334     -0.1145
     48  O3X       16.2070   47.0070    0.0300 O.3   334  NAP334     -0.1145
@<TRIPOS>BOND
     1    30    29    1
     2    30    35    1
     3    29    28    1
     4    29    31    1
     5    28    27    1
     6    25    24    2
     7    44    43    2
     8    44    36    1
     9    35    36    1
    10    35    33    1
    11    43    42    1
    12    36    37    1
    13    32    31    1
    14    27    24    1
    15    31    33    1
    16    24    26    1
    17    24    23    1
    18    42    38    2
    19    37    38    1
    20    33    34    1
    21     9     8    1
    22    21    20    1
    23    21    22    2
    24    20    19    1
    25    38    39    1
    26    41    39   am
    27     6     7    1
    28     6     5    1
    29     6     8    1
    30     7    12    1
    31     4     5    1
    32     4     1    1
    33    12    10    1
    34    12    13    1
    35    39    40    2
    36    23     1    1
    37     8    10    1
    38    19    17    2
    39    11    10    1
    40    11    45    1
    41     2     1    2
    42    22    13    1
    43    22    16    1
    44     1     3    1
    45    13    14    1
    46    46    45    2
    47    45    47    1
    48    45    48    1
    49    17    16    1
    50    17    18    1
    51    16    15    2
    52    14    15    1
