@<TRIPOS>MOLECULE
2gn9_UPG_A_1.pdb
 36 38 0 0 0
SMALL
GASTEIGER

@<TRIPOS>ATOM
      1  N1        12.0360   26.0660    8.2550 N.am  335  UPG335     -0.1766
      2  C2        12.8550   25.2830    9.0660 C.1   335  UPG335      0.2845
      3  N3        13.7280   25.9500    9.9100 N.2   335  UPG335     -0.2452
      4  C4        13.8570   27.3380   10.0170 C.1   335  UPG335      0.2182
      5  C5        12.9480   28.1240    9.1220 C.2   335  UPG335      0.1242
      6  C6        12.1060   27.4380    8.3090 C.2   335  UPG335      0.0929
      7  O2        12.8170   24.0690    9.0460 O.2   335  UPG335     -0.1918
      8  O4        14.6510   27.8680   10.7820 O.2   335  UPG335     -0.2085
      9  C1C       11.1040   25.3920    7.3230 C.3   335  UPG335      0.2401
     10  C2C        9.7080   25.9720    7.3140 C.3   335  UPG335      0.2319
     11  O2C        8.8420   25.0860    8.0200 O.3   335  UPG335     -0.2157
     12  C3C        9.3020   26.0820    5.8840 C.3   335  UPG335      0.2158
     13  C4C       10.5560   25.8360    5.0880 C.3   335  UPG335      0.1799
     14  O4C       11.6060   25.4560    5.9830 O.3   335  UPG335     -0.3320
     15  O3C        8.3800   25.0460    5.5690 O.3   335  UPG335     -0.2175
     16  C5C       10.9760   27.0850    4.3260 C.3   335  UPG335      0.1813
     17  O5C       11.5060   28.0370    5.2340 O.3   335  UPG335     -0.3112
     18  PA        11.6660   29.5690    4.7030 P.3   335  UPG335      0.2189
     19  O1A       11.7430   30.6830    5.8670 O.3   335  UPG335     -0.4371
     20  O2A       12.9580   29.5330    3.7340 O.2   335  UPG335     -0.5170
     21  O3A       10.4500   29.7550    3.6750 O.3   335  UPG335     -0.2703
     22  PB         9.0040   30.4100    3.8950 P.3   335  UPG335      0.2208
     23  O1B        8.4230   30.2450    5.3930 O.3   335  UPG335     -0.4371
     24  O2B        8.1000   29.7160    2.7480 O.2   335  UPG335     -0.5170
     25  O3B        9.1890   31.9440    3.3930 O.3   335  UPG335     -0.2857
     26  C1'       10.2570   32.1960    2.4860 C.3   335  UPG335      0.2742
     27  C2'       10.9430   33.5180    2.8060 C.3   335  UPG335      0.2409
     28  C3'       10.0130   34.6990    2.5770 C.3   335  UPG335      0.2198
     29  C4'        9.3400   34.6050    1.2190 C.3   335  UPG335      0.2144
     30  C5'        8.6310   33.2610    1.1020 C.3   335  UPG335      0.1835
     31  C6'        7.9570   33.1360   -0.2440 C.3   335  UPG335      0.2142
     32  O2'       11.3240   33.5070    4.1760 O.3   335  UPG335     -0.2149
     33  O3'       10.7900   35.8870    2.6110 O.3   335  UPG335     -0.2174
     34  O4'        8.3680   35.6400    1.1390 O.3   335  UPG335     -0.2176
     35  O5'        9.5920   32.2040    1.2100 O.3   335  UPG335     -0.3254
     36  O6'        6.6420   33.6570   -0.1180 O.3   335  UPG335     -0.2176
@<TRIPOS>BOND
     1    31    36    1
     2    31    30    1
     3    30    35    1
     4    30    29    1
     5    34    29    1
     6    35    26    1
     7    29    28    1
     8    26    27    1
     9    26    25    1
    10    28    33    1
    11    28    27    1
    12    24    22    2
    13    27    32    1
    14    25    22    1
    15    21    22    1
    16    21    18    1
    17    20    18    2
    18    22    23    1
    19    16    13    1
    20    16    17    1
    21    18    17    1
    22    18    19    1
    23    13    12    1
    24    13    14    1
    25    15    12    1
    26    12    10    1
    27    14     9    1
    28    10     9    1
    29    10    11    1
    30     9     1    1
    31     1     6    1
    32     1     2   am
    33     6     5    2
    34     7     2    2
    35     2     3    2
    36     5     4    1
    37     3     4    2
    38     4     8    2
