@<TRIPOS>MOLECULE
2gna_GDU_A_1.pdb
 36 38 0 0 0
SMALL
GASTEIGER

@<TRIPOS>ATOM
      1  N1        11.7610   25.5520    8.2520 N.am  335  GDU335     -0.1766
      2  C2        12.4670   24.5770    8.9630 C.1   335  GDU335      0.2845
      3  N3        13.4290   25.0210    9.8520 N.2   335  GDU335     -0.2452
      4  C4        13.7560   26.3520   10.1000 C.1   335  GDU335      0.2182
      5  C5        12.9690   27.3530    9.3070 C.2   335  GDU335      0.1242
      6  C6        12.0310   26.8860    8.4420 C.2   335  GDU335      0.0929
      7  O2        12.2590   23.3900    8.8210 O.2   335  GDU335     -0.1918
      8  O4        14.6190   26.6760   10.9010 O.2   335  GDU335     -0.2085
      9  C1D       10.7240   25.1180    7.2850 C.3   335  GDU335      0.2401
     10  C2D        9.4150   25.8480    7.4270 C.3   335  GDU335      0.2319
     11  O2D        8.5610   25.0990    8.2770 O.3   335  GDU335     -0.2157
     12  C3D        8.8530   25.9430    6.0540 C.3   335  GDU335      0.2158
     13  C4D       10.0070   25.6470    5.1340 C.3   335  GDU335      0.1799
     14  O4D       11.1450   25.3150    5.9360 O.3   335  GDU335     -0.3320
     15  O3D        7.8810   24.9270    5.8620 O.3   335  GDU335     -0.2175
     16  C5D       10.3340   26.8570    4.2860 C.3   335  GDU335      0.1813
     17  O5D       10.8950   27.8400    5.1230 O.3   335  GDU335     -0.3112
     18  PA        10.2030   29.3010    5.0980 P.3   335  GDU335      0.2189
     19  O1A        8.5920   29.3120    5.2460 O.2   335  GDU335     -0.5170
     20  O2A       11.0000   30.0980    6.2560 O.3   335  GDU335     -0.4371
     21  O3A       10.7570   29.9480    3.7420 O.3   335  GDU335     -0.2703
     22  PB        12.2780   30.0080    3.2300 P.3   335  GDU335      0.2208
     23  O1B       13.2620   29.0100    4.0290 O.3   335  GDU335     -0.4371
     24  O2B       12.1740   29.7110    1.6370 O.2   335  GDU335     -0.5170
     25  O3B       12.6720   31.5840    3.3530 O.3   335  GDU335     -0.2857
     26  C1'       12.0270   32.4920    2.4620 C.3   335  GDU335      0.2742
     27  C2'       12.9270   33.6970    2.1820 C.3   335  GDU335      0.2409
     28  C3'       13.1660   34.5110    3.4540 C.3   335  GDU335      0.2198
     29  C4'       11.8480   34.8200    4.1600 C.3   335  GDU335      0.2144
     30  C5'       11.1100   33.5090    4.4350 C.3   335  GDU335      0.1835
     31  C6'        9.7950   33.7700    5.1410 C.3   335  GDU335      0.2142
     32  O2'       14.1830   33.2260    1.7070 O.3   335  GDU335     -0.2149
     33  O3'       13.7900   35.7400    3.0950 O.3   335  GDU335     -0.2174
     34  O4'       11.0470   35.6360    3.2980 O.3   335  GDU335     -0.2176
     35  O5'       10.8240   32.8470    3.1870 O.3   335  GDU335     -0.3254
     36  O6'       10.0520   33.7920    6.5410 O.3   335  GDU335     -0.2176
@<TRIPOS>BOND
     1    24    22    2
     2    32    27    1
     3    27    26    1
     4    27    28    1
     5    26    35    1
     6    26    25    1
     7    33    28    1
     8    35    30    1
     9    22    25    1
    10    22    21    1
    11    22    23    1
    12    34    29    1
    13    28    29    1
    14    21    18    1
    15    29    30    1
    16    16    17    1
    17    16    13    1
    18    30    31    1
    19    18    17    1
    20    18    19    2
    21    18    20    1
    22    13    14    1
    23    13    12    1
    24    31    36    1
    25    15    12    1
    26    14     9    1
    27    12    10    1
    28     9    10    1
    29     9     1    1
    30    10    11    1
    31     1     6    1
    32     1     2   am
    33     6     5    2
    34     7     2    2
    35     2     3    2
    36     5     4    1
    37     3     4    2
    38     4     8    2
