@<TRIPOS>MOLECULE
2gna_NAP_A_1.pdb
 48 52 0 0 0
SMALL
GASTEIGER

@<TRIPOS>ATOM
      1  PA        14.4280   40.2230   -2.0060 P.3   334  NAP334      0.2189
      2  O1A       15.9260   39.6370   -2.1280 O.2   334  NAP334     -0.5170
      3  O2A       14.0100   40.6770   -0.5120 O.3   334  NAP334     -0.4371
      4  O5B       14.1550   41.5020   -2.9660 O.3   334  NAP334     -0.3112
      5  C5B       13.3080   42.5300   -2.5080 C.3   334  NAP334      0.1813
      6  C4B       13.9120   43.8340   -2.9710 C.3   334  NAP334      0.1820
      7  O4B       12.9030   44.8340   -2.9610 O.3   334  NAP334     -0.3136
      8  C3B       14.9780   44.2680   -2.0080 C.3   334  NAP334      0.2157
      9  O3B       16.2210   44.1250   -2.6730 O.3   334  NAP334     -0.2175
     10  C2B       14.7160   45.7160   -1.7410 C.3   334  NAP334      0.2314
     11  O2B       15.7970   46.5040   -2.2250 O.3   334  NAP334     -0.2630
     12  C1B       13.5020   46.0610   -2.5550 C.3   334  NAP334      0.3158
     13  N9A       12.5590   46.9090   -1.7860 N.pl3 334  NAP334     -0.1439
     14  C8A       12.1000   46.5880   -0.5530 C.3   334  NAP334      0.3377
     15  N7A       11.2780   47.5530   -0.1350 N.2   334  NAP334     -0.2095
     16  C5A       11.2740   48.4780   -1.2090 C.2   334  NAP334      0.2526
     17  C6A       10.5570   49.7170   -1.3000 C.2   334  NAP334      0.4393
     18  N6A        9.7760   50.0890   -0.2440 N.pl3 334  NAP334      0.2180
     19  N1A       10.7070   50.4580   -2.4570 N.2   334  NAP334      0.0021
     20  C2A       11.5500   49.9450   -3.4510 C.3   334  NAP334      0.5254
     21  N3A       12.2520   48.7830   -3.4100 N.2   334  NAP334     -0.0055
     22  C4A       12.0830   48.0560   -2.2390 C.2   334  NAP334      0.3518
     23  O3        13.2810   39.1830   -2.4090 O.3   334  NAP334     -0.2703
     24  PN        13.0350   38.4080   -3.7900 P.3   334  NAP334      0.2189
     25  O1N       13.9420   38.9170   -5.0130 O.2   334  NAP334     -0.5170
     26  O2N       13.2510   36.8610   -3.3950 O.3   334  NAP334     -0.4371
     27  O5D       11.4380   38.5110   -4.0370 O.3   334  NAP334     -0.3112
     28  C5D       11.0080   39.4710   -4.9730 C.3   334  NAP334      0.1813
     29  C4D        9.5050   39.3580   -5.1580 C.3   334  NAP334      0.1799
     30  O4D        9.1860   38.0510   -5.6400 O.3   334  NAP334     -0.3327
     31  C3D        8.7890   39.5710   -3.8610 C.3   334  NAP334      0.2158
     32  O3D        7.7890   40.5590   -4.0980 O.3   334  NAP334     -0.2175
     33  C2D        8.1650   38.2790   -3.5220 C.3   334  NAP334      0.2309
     34  O2D        6.8130   38.5010   -3.1220 O.3   334  NAP334     -0.2158
     35  C1D        8.2330   37.4460   -4.7770 C.3   334  NAP334      0.2263
     36  N1N        8.6270   36.0270   -4.5160 N.pl3 334  NAP334     -0.2787
     37  C2N        9.6510   35.7920   -3.6060 C.3   334  NAP334      0.1244
     38  C3N        9.9880   34.4370   -3.3910 C.2   334  NAP334      0.0544
     39  C7N       11.0800   34.0580   -2.4250 C.2   334  NAP334      0.2818
     40  O7N       11.5240   32.9200   -2.3030 O.2   334  NAP334     -0.2670
     41  N7N       11.5480   35.1060   -1.6830 N.am  334  NAP334     -0.0839
     42  C4N        9.2790   33.4150   -4.1000 C.2   334  NAP334      0.0033
     43  C5N        8.2380   33.7530   -5.0200 C.2   334  NAP334      0.0157
     44  C6N        7.9100   35.1020   -5.2280 C.2   334  NAP334      0.0633
     45  P2B       16.3020   47.7360   -1.2980 P.3   334  NAP334      0.5328
     46  O1X       17.6570   48.4280   -1.8500 O.2   334  NAP334     -0.2224
     47  O2X       15.0370   48.7400   -1.2240 O.3   334  NAP334     -0.1145
     48  O3X       16.3950   47.1330    0.1890 O.3   334  NAP334     -0.1145
@<TRIPOS>BOND
     1    30    29    1
     2    30    35    1
     3    44    43    2
     4    44    36    1
     5    29    28    1
     6    29    31    1
     7    43    42    1
     8    25    24    2
     9    28    27    1
    10    35    36    1
    11    35    33    1
    12    36    37    1
    13    42    38    2
    14    32    31    1
    15    27    24    1
    16    31    33    1
    17    24    26    1
    18    24    23    1
    19    37    38    1
    20    33    34    1
    21    20    21    1
    22    20    19    1
    23    21    22    2
    24    38    39    1
    25     6     7    1
    26     6     5    1
    27     6     8    1
    28     4     5    1
    29     4     1    1
    30     7    12    1
    31     9     8    1
    32    12    13    1
    33    12    10    1
    34    19    17    2
    35    39    40    2
    36    39    41   am
    37    23     1    1
    38    22    13    1
    39    22    16    1
    40    11    10    1
    41    11    45    1
    42     2     1    2
    43     8    10    1
    44     1     3    1
    45    46    45    2
    46    13    14    1
    47    17    16    1
    48    17    18    1
    49    45    47    1
    50    45    48    1
    51    16    15    2
    52    14    15    1
