@<TRIPOS>MOLECULE
2gnb_MAN_A_1.pdb
 12 12 0 0 0
SMALL
GASTEIGER

@<TRIPOS>ATOM
      1  C1        -1.6780  -12.2410  -15.9210 C.3   300  MAN300      0.3024
      2  C2        -0.4990  -11.3830  -15.4370 C.3   300  MAN300      0.2434
      3  C3         0.3560  -12.1460  -14.4070 C.3   300  MAN300      0.2199
      4  C4        -0.5120  -12.7770  -13.3080 C.3   300  MAN300      0.2144
      5  C5        -1.6400  -13.5920  -13.9420 C.3   300  MAN300      0.1836
      6  C6        -2.5710  -14.2160  -12.9160 C.3   300  MAN300      0.2142
      7  O1        -1.1970  -13.3240  -16.6400 O.3   300  MAN300     -0.1869
      8  O2        -0.9730  -10.1670  -14.8770 O.3   300  MAN300     -0.2148
      9  O3         1.3000  -11.2640  -13.8190 O.3   300  MAN300     -0.2174
     10  O4         0.2850  -13.6260  -12.4940 O.3   300  MAN300     -0.2176
     11  O5        -2.4340  -12.7450  -14.8050 O.3   300  MAN300     -0.3236
     12  O6        -3.4340  -13.2460  -12.3450 O.3   300  MAN300     -0.2176
@<TRIPOS>BOND
     1     7     1    1
     2     1     2    1
     3     1    11    1
     4     2     8    1
     5     2     3    1
     6    11     5    1
     7     3     9    1
     8     3     4    1
     9     5     4    1
    10     5     6    1
    11     4    10    1
    12     6    12    1
