@<TRIPOS>MOLECULE
2gnd_MMA_A_1.pdb
 13 13 0 0 0
SMALL
GASTEIGER

@<TRIPOS>ATOM
      1  C1         6.3000   44.4910   29.6700 C.3   254  MMA254      0.2695
      2  C2         5.4260   43.4040   29.0280 C.3   254  MMA254      0.2406
      3  C3         5.0610   43.8150   27.5930 C.3   254  MMA254      0.2198
      4  C4         4.3950   45.1900   27.6000 C.3   254  MMA254      0.2144
      5  C5         5.3090   46.2060   28.2970 C.3   254  MMA254      0.1835
      6  C6         4.6610   47.5710   28.4200 C.3   254  MMA254      0.2142
      7  C7         8.4860   45.4560   29.5470 C.3   254  MMA254      0.1769
      8  O1         7.4960   44.6120   28.9730 O.3   254  MMA254     -0.3259
      9  O2         4.2420   43.2280   29.7980 O.3   254  MMA254     -0.2149
     10  O3         4.1670   42.8480   27.0070 O.3   254  MMA254     -0.2174
     11  O4         4.1370   45.6010   26.2660 O.3   254  MMA254     -0.2176
     12  O5         5.6210   45.7630   29.6400 O.3   254  MMA254     -0.3256
     13  O6         3.3150   47.4590   28.8640 O.3   254  MMA254     -0.2176
@<TRIPOS>BOND
     1    11     4    1
     2    10     3    1
     3     3     4    1
     4     3     2    1
     5     4     5    1
     6     5     6    1
     7     5    12    1
     8     6    13    1
     9     8     7    1
    10     8     1    1
    11     2     1    1
    12     2     9    1
    13    12     1    1
