@<TRIPOS>MOLECULE
2gnd_MAN_A_1.pdb
 11 11 0 0 0
SMALL
GASTEIGER

@<TRIPOS>ATOM
      1  C1         4.7220   42.0240   26.0170 C.3   253  MAN253      0.1777
      2  C2         3.6100   41.2130   25.3450 C.3   253  MAN253      0.2141
      3  C3         3.0130   40.2130   26.3430 C.3   253  MAN253      0.2173
      4  C4         4.1080   39.3330   26.9540 C.3   253  MAN253      0.2142
      5  C5         5.2300   40.2100   27.5370 C.3   253  MAN253      0.1810
      6  C6         6.4230   39.4050   28.0230 C.3   253  MAN253      0.2141
      7  O2         4.1330   40.5160   24.2250 O.3   253  MAN253     -0.2176
      8  O3         2.0540   39.3970   25.6910 O.3   253  MAN253     -0.2175
      9  O4         3.5400   38.5380   27.9850 O.3   253  MAN253     -0.2176
     10  O5         5.7160   41.1410   26.5380 O.3   253  MAN253     -0.3481
     11  O6         7.1630   38.8670   26.9360 O.3   253  MAN253     -0.2176
@<TRIPOS>BOND
     1     7     2    1
     2     2     1    1
     3     2     3    1
     4     8     3    1
     5     1    10    1
     6     3     4    1
     7    10     5    1
     8    11     6    1
     9     4     5    1
    10     4     9    1
    11     5     6    1
