@<TRIPOS>MOLECULE
2gnf_Y27_A_1.pdb
 18 19 0 0 0
SMALL
GASTEIGER

@<TRIPOS>ATOM
      1  O23        7.5170   10.0600   41.9260 O.2   501  Y27501     -0.2730
      2  C22        7.9880    9.7810   43.0660 C.2   501  Y27501      0.2451
      3  C31        9.4020    9.3230   43.3050 C.3   501  Y27501      0.0786
      4  C36        9.6040    7.9990   42.5540 C.3   501  Y27501      0.0092
      5  C35       11.0610    7.4850   42.6130 C.3   501  Y27501      0.0019
      6  C34       12.0440    8.5720   42.1270 C.3   501  Y27501      0.0176
      7  C33       11.9020    9.7720   43.0770 C.3   501  Y27501      0.0019
      8  C32       10.4620   10.3700   42.9070 C.3   501  Y27501      0.0092
      9  C41       13.5230    8.0650   42.0410 C.3   501  Y27501      0.0918
     10  C42       13.9640    7.4060   43.3560 C.3   501  Y27501      0.0205
     11  N43       13.7500    7.1170   40.9030 N.3   501  Y27501     -0.1329
     12  N21        7.2190    9.8130   44.2520 N.am  501  Y27501     -0.1791
     13  C14        5.7770    9.9740   44.2750 C.ar  501  Y27501      0.0765
     14  C15        5.1980    9.9890   45.5840 C.ar  501  Y27501      0.0373
     15  C16        3.8200   10.1310   45.6670 C.ar  501  Y27501      0.1002
     16  N11        3.0630   10.2640   44.5440 N.ar  501  Y27501     -0.2422
     17  C12        3.5640   10.2620   43.2940 C.ar  501  Y27501      0.1002
     18  C13        4.9340   10.1350   43.1070 C.ar  501  Y27501      0.0373
@<TRIPOS>BOND
     1    11     9    1
     2     1     2    2
     3     9     6    1
     4     9    10    1
     5     6     5    1
     6     6     7    1
     7     4     5    1
     8     4     3    1
     9     8     7    1
    10     8     3    1
    11     2     3    1
    12     2    12   am
    13    18    17   ar
    14    18    13   ar
    15    17    16   ar
    16    12    13    1
    17    13    14   ar
    18    16    15   ar
    19    14    15   ar
