@<TRIPOS>MOLECULE
2gnh_H52_A_1.pdb
 22 24 0 0 0
SMALL
GASTEIGER

@<TRIPOS>ATOM
      1  O1         9.3410   11.0100    4.5490 O.2   501  H52501     -0.1528
      2  S5         8.9860    9.7260    4.0600 S.O2  501  H52501      0.0633
      3  O2         8.8110    8.7120    5.0260 O.2   501  H52501     -0.1528
      4  N21       10.1230    9.2010    3.0980 N.3   501  H52501     -0.1554
      5  C22       10.4910    7.7530    3.0200 C.3   501  H52501      0.0969
      6  C2M        9.5580    6.9980    2.0900 C.3   501  H52501      0.0207
      7  C23       11.9370    7.5230    2.5640 C.3   501  H52501      0.1063
      8  N24       12.8430    8.3610    3.3140 N.3   501  H52501     -0.2165
      9  C25       13.2400    9.6450    2.7600 C.3   501  H52501      0.0902
     10  C26       12.0870   10.6390    2.8720 C.3   501  H52501      0.0379
     11  C27       10.8370   10.0940    2.1760 C.3   501  H52501      0.0973
     12  C5         7.5130    9.7830    3.2950 C.ar  501  H52501      0.1220
     13  C10        6.1920    9.8920    3.8840 C.ar  501  H52501      0.0177
     14  C4         5.8420    9.9820    5.2660 C.ar  501  H52501     -0.0014
     15  CM         6.8080   10.0190    6.4410 C.3   501  H52501      0.0327
     16  C9         5.0850    9.8670    3.0180 C.ar  501  H52501      0.0202
     17  C8         5.1980    9.7680    1.6290 C.ar  501  H52501      0.0016
     18  C7         6.4430    9.7240    1.0570 C.ar  501  H52501      0.0014
     19  C6         7.5750    9.7250    1.8830 C.ar  501  H52501      0.0199
     20  C1         3.7720    9.8980    3.5020 C.ar  501  H52501      0.0989
     21  N2         3.5130    9.9720    4.8060 N.ar  501  H52501     -0.2426
     22  C3         4.5040    9.9940    5.7070 C.ar  501  H52501      0.0946
@<TRIPOS>BOND
     1    18    17   ar
     2    18    19   ar
     3    17    16   ar
     4    19    12   ar
     5     6     5    1
     6    11    10    1
     7    11     4    1
     8     7     5    1
     9     7     8    1
    10     9    10    1
    11     9     8    1
    12    16    20   ar
    13    16    13   ar
    14     5     4    1
    15     4     2    1
    16    12    13   ar
    17    12     2    1
    18    20    21   ar
    19    13    14   ar
    20     2     1    2
    21     2     3    2
    22    21    22   ar
    23    14    22   ar
    24    14    15    1
