@<TRIPOS>MOLECULE
2gni_M77_A_1.pdb
 20 22 0 0 0
SMALL
GASTEIGER

@<TRIPOS>ATOM
      1  O1         8.6630   11.0830    5.1390 O.2   601  M77601     -0.1528
      2  S1         8.5630   10.0750    4.0780 S.O2  601  M77601      0.0633
      3  O2         9.5790   10.2220    3.0610 O.2   601  M77601     -0.1528
      4  N4         8.7470    8.5900    4.6610 N.3   601  M77601     -0.1540
      5  C22        8.6400    7.4430    3.7020 C.3   601  M77601      0.1146
      6  C21        9.8160    7.4110    2.7170 C.3   601  M77601      0.1078
      7  N17       11.1150    7.1450    3.4660 N.3   601  M77601     -0.2165
      8  C16       11.3480    7.9200    4.7470 C.3   601  M77601      0.0902
      9  C20       10.4640    7.5710    5.9470 C.3   601  M77601      0.0379
     10  C15        9.1740    8.4300    6.0430 C.3   601  M77601      0.0973
     11  C5         7.0820   10.0850    3.1460 C.ar  601  M77601      0.1223
     12  C6         7.2290   10.1470    1.7680 C.ar  601  M77601      0.0199
     13  C7         6.0790   10.1340    0.9240 C.ar  601  M77601      0.0014
     14  C8         4.8170   10.1030    1.5120 C.ar  601  M77601      0.0016
     15  C9         4.6530   10.0680    2.9120 C.ar  601  M77601      0.0205
     16  C10        5.7840   10.0280    3.7640 C.ar  601  M77601      0.0217
     17  C11        5.5290    9.9710    5.1760 C.ar  601  M77601      0.0220
     18  C14        3.3890   10.0080    3.5140 C.ar  601  M77601      0.0989
     19  N13        3.1880    9.9250    4.8300 N.ar  601  M77601     -0.2423
     20  C12        4.2550    9.9320    5.6800 C.ar  601  M77601      0.0989
@<TRIPOS>BOND
     1    13    14   ar
     2    13    12   ar
     3    14    15   ar
     4    12    11   ar
     5     6     7    1
     6     6     5    1
     7    15    18   ar
     8    15    16   ar
     9     3     2    2
    10    11    16   ar
    11    11     2    1
    12     7     8    1
    13    18    19   ar
    14     5     4    1
    15    16    17   ar
    16     2     4    1
    17     2     1    2
    18     4    10    1
    19     8     9    1
    20    19    20   ar
    21    17    20   ar
    22     9    10    1
