@<TRIPOS>MOLECULE
2gnj_Y27_A_1.pdb
 18 19 0 0 0
SMALL
GASTEIGER

@<TRIPOS>ATOM
      1  O23        7.3520    9.8870    1.4790 O.2   501  Y27501     -0.2730
      2  C22        7.7390    9.4660    2.5670 C.2   501  Y27501      0.2451
      3  C31        9.1180    8.9010    2.7550 C.3   501  Y27501      0.0786
      4  C36        9.3370    7.6300    1.9050 C.3   501  Y27501      0.0092
      5  C35       10.7730    7.1060    2.0930 C.3   501  Y27501      0.0019
      6  C34       11.8090    8.2240    1.8510 C.3   501  Y27501      0.0176
      7  C33       11.5840    9.3980    2.8210 C.3   501  Y27501      0.0019
      8  C32       10.1860    9.9780    2.4870 C.3   501  Y27501      0.0092
      9  C41       13.2700    7.7040    1.8660 C.3   501  Y27501      0.0918
     10  C42       13.6360    6.9610    3.1600 C.3   501  Y27501      0.0205
     11  N43       13.5380    6.8380    0.6630 N.3   501  Y27501     -0.1329
     12  N21        6.9210    9.4600    3.7290 N.am  501  Y27501     -0.1791
     13  C14        5.4690    9.6840    3.7930 C.ar  501  Y27501      0.0765
     14  C15        4.9070    9.6460    5.0690 C.ar  501  Y27501      0.0373
     15  C16        3.5360    9.8280    5.2290 C.ar  501  Y27501      0.1002
     16  N11        2.7480   10.0070    4.1890 N.ar  501  Y27501     -0.2422
     17  C12        3.2510   10.0480    2.9550 C.ar  501  Y27501      0.1002
     18  C13        4.6000    9.9220    2.7030 C.ar  501  Y27501      0.0373
@<TRIPOS>BOND
     1    11     9    1
     2     1     2    2
     3     6     9    1
     4     6     5    1
     5     6     7    1
     6     9    10    1
     7     4     5    1
     8     4     3    1
     9     8     3    1
    10     8     7    1
    11     2     3    1
    12     2    12   am
    13    18    17   ar
    14    18    13   ar
    15    17    16   ar
    16    12    13    1
    17    13    14   ar
    18    16    15   ar
    19    14    15   ar
