@<TRIPOS>MOLECULE
2gnk_ATP_A_1.pdb
 31 33 0 0 0
SMALL
GASTEIGER

@<TRIPOS>ATOM
      1  PG       -20.3380   34.6070    1.2180 P.3   200  ATP200      0.5373
      2  O1G      -21.2020   35.5290    0.4560 O.2   200  ATP200     -0.2221
      3  O2G      -19.0540   34.1510    0.6440 O.3   200  ATP200     -0.1143
      4  O3G      -21.1360   33.3060    1.6460 O.3   200  ATP200     -0.1143
      5  PB       -18.9070   36.4230    2.9910 P.3   200  ATP200      0.2277
      6  O1B      -18.9600   37.5580    2.0350 O.2   200  ATP200     -0.5168
      7  O2B      -19.0870   36.6910    4.4450 O.3   200  ATP200     -0.4368
      8  O3B      -19.9740   35.3180    2.5870 O.3   200  ATP200     -0.2258
      9  PA       -16.8750   34.2820    3.2450 P.3   200  ATP200      0.2189
     10  O1A      -17.4340   33.2160    2.3760 O.2   200  ATP200     -0.5170
     11  O2A      -16.9800   34.1580    4.7210 O.3   200  ATP200     -0.4371
     12  O3A      -17.5150   35.6690    2.7970 O.3   200  ATP200     -0.2700
     13  O5'      -15.3370   34.4630    2.8660 O.3   200  ATP200     -0.3112
     14  C5'      -14.3340   33.6480    3.4820 C.3   200  ATP200      0.1813
     15  C4'      -13.0380   34.4190    3.6590 C.3   200  ATP200      0.1821
     16  O4'      -12.3970   34.6090    2.3670 O.3   200  ATP200     -0.3135
     17  C3'      -13.1160   35.8320    4.2330 C.3   200  ATP200      0.2184
     18  O3'      -13.2010   35.8600    5.6540 O.3   200  ATP200     -0.2174
     19  C2'      -11.7750   36.4030    3.8100 C.3   200  ATP200      0.2570
     20  O2'      -10.7480   35.9620    4.6670 O.3   200  ATP200     -0.2130
     21  C1'      -11.5950   35.7800    2.4230 C.3   200  ATP200      0.3186
     22  N9       -12.0270   36.6670    1.3560 N.pl3 200  ATP200     -0.1439
     23  C8       -13.2990   36.8150    0.8960 C.3   200  ATP200      0.3377
     24  N7       -13.3910   37.6170   -0.1390 N.2   200  ATP200     -0.2095
     25  C5       -12.1000   38.0360   -0.3560 C.2   200  ATP200      0.2526
     26  C6       -11.5140   38.8810   -1.3300 C.2   200  ATP200      0.4393
     27  N6       -12.2310   39.4610   -2.3030 N.pl3 200  ATP200      0.2180
     28  N1       -10.1880   39.0960   -1.2770 N.2   200  ATP200      0.0021
     29  C2        -9.4900   38.5180   -0.2860 C.3   200  ATP200      0.5254
     30  N3        -9.9180   37.7070    0.6910 N.2   200  ATP200     -0.0055
     31  C4       -11.2300   37.4960    0.5860 C.2   200  ATP200      0.3518
@<TRIPOS>BOND
     1    27    26    1
     2    26    28    2
     3    26    25    1
     4    28    29    1
     5    25    24    2
     6    25    31    1
     7    29    30    1
     8    24    23    1
     9     2     1    2
    10    31    30    2
    11    31    22    1
    12     3     1    1
    13    23    22    1
    14     1     4    1
    15     1     8    1
    16    22    21    1
    17     6     5    2
    18    16    21    1
    19    16    15    1
    20    10     9    2
    21    21    19    1
    22     8     5    1
    23    12     5    1
    24    12     9    1
    25    13     9    1
    26    13    14    1
    27     5     7    1
    28     9    11    1
    29    14    15    1
    30    15    17    1
    31    19    17    1
    32    19    20    1
    33    17    18    1
