@<TRIPOS>MOLECULE
2gnl_H52_A_1.pdb
 22 24 0 0 0
SMALL
GASTEIGER

@<TRIPOS>ATOM
      1  O1         9.2980   11.0130    4.6250 O.2   501  H52501     -0.1528
      2  S5         8.8560    9.7810    4.0710 S.O2  501  H52501      0.0633
      3  O2         8.6700    8.8850    5.1560 O.2   501  H52501     -0.1528
      4  N21        9.9830    9.1810    3.1940 N.3   501  H52501     -0.1554
      5  C22       10.1930    7.7290    3.0850 C.3   501  H52501      0.0969
      6  C2M        9.3500    7.0290    2.0070 C.3   501  H52501      0.0207
      7  C23       11.6570    7.4590    2.7740 C.3   501  H52501      0.1063
      8  N24       12.4710    8.2510    3.6530 N.3   501  H52501     -0.2165
      9  C25       13.1230    9.4270    3.1740 C.3   501  H52501      0.0902
     10  C26       12.0480   10.4680    3.3050 C.3   501  H52501      0.0379
     11  C27       10.8660   10.0680    2.4230 C.3   501  H52501      0.0973
     12  C5         7.4690    9.9020    3.1890 C.ar  501  H52501      0.1220
     13  C10        6.1170   10.0560    3.6370 C.ar  501  H52501      0.0177
     14  C4         5.6630   10.1850    4.9710 C.ar  501  H52501     -0.0014
     15  CM         6.5300   10.1860    6.1950 C.3   501  H52501      0.0327
     16  C9         5.0830   10.0830    2.6730 C.ar  501  H52501      0.0202
     17  C8         5.3200    9.9630    1.3170 C.ar  501  H52501      0.0016
     18  C7         6.6030    9.8330    0.8810 C.ar  501  H52501      0.0014
     19  C6         7.6420    9.8070    1.7980 C.ar  501  H52501      0.0199
     20  C1         3.7450   10.2140    3.0170 C.ar  501  H52501      0.0989
     21  N2         3.3870   10.3120    4.2850 N.ar  501  H52501     -0.2426
     22  C3         4.3030   10.2990    5.2490 C.ar  501  H52501      0.0946
@<TRIPOS>BOND
     1    18    17   ar
     2    18    19   ar
     3    17    16   ar
     4    19    12   ar
     5     6     5    1
     6    11     4    1
     7    11    10    1
     8    16    20   ar
     9    16    13   ar
    10     7     5    1
    11     7     8    1
    12    20    21   ar
    13     5     4    1
    14     9    10    1
    15     9     8    1
    16    12    13   ar
    17    12     2    1
    18     4     2    1
    19    13    14   ar
    20     2     1    2
    21     2     3    2
    22    21    22   ar
    23    14    22   ar
    24    14    15    1
