@<TRIPOS>MOLECULE
2gnm_MAN_A_1.pdb
 12 12 0 0 0
SMALL
GASTEIGER

@<TRIPOS>ATOM
      1  C1         4.7090   41.9210   26.0360 C.3   253  MAN253      0.3024
      2  C2         3.5350   41.1040   25.4810 C.3   253  MAN253      0.2434
      3  C3         2.9720   40.1720   26.5620 C.3   253  MAN253      0.2199
      4  C4         4.0890   39.3360   27.1900 C.3   253  MAN253      0.2144
      5  C5         5.2240   40.2460   27.6670 C.3   253  MAN253      0.1836
      6  C6         6.4000   39.4670   28.2200 C.3   253  MAN253      0.2142
      7  O1         4.2670   42.7410   27.0620 O.3   253  MAN253     -0.1869
      8  O2         3.9670   40.3390   24.3660 O.3   253  MAN253     -0.2148
      9  O3         1.9970   39.3100   25.9950 O.3   253  MAN253     -0.2174
     10  O4         3.5690   38.6100   28.2910 O.3   253  MAN253     -0.2176
     11  O5         5.7140   41.0460   26.5690 O.3   253  MAN253     -0.3236
     12  O6         7.0070   38.6750   27.2130 O.3   253  MAN253     -0.2176
@<TRIPOS>BOND
     1     8     2    1
     2     2     1    1
     3     2     3    1
     4     9     3    1
     5     1    11    1
     6     1     7    1
     7     3     4    1
     8    11     5    1
     9     4     5    1
    10     4    10    1
    11    12     6    1
    12     5     6    1
