@<TRIPOS>MOLECULE
2gns_III_P_1.pdb
 41 41 0 0 0
SMALL
GASTEIGER

@<TRIPOS>ATOM
      1  N         41.4100    4.7650   -2.2010 N.3     1  ALA1       -0.1231
      2  CA        41.0980    3.3180   -2.3400 C.3     1  ALA1        0.1694
      3  C         40.1040    3.1330   -3.4750 C.2     1  ALA1        0.2592
      4  O         39.9400    4.0850   -4.2320 O.2     1  ALA1       -0.2718
      5  CB        40.5890    2.7840   -1.0160 C.3     1  ALA1        0.0304
      6  N         39.4030    2.0510   -3.7310 N.am    2  LEU2       -0.1966
      7  CA        38.7590    2.5350   -4.9450 C.3     2  LEU2        0.1728
      8  C         37.2510    2.5150   -5.1370 C.2     2  LEU2        0.2616
      9  O         36.4630    1.6050   -4.9340 O.2     2  LEU2       -0.2715
     10  CB        39.5620    2.0650   -6.1650 C.3     2  LEU2        0.0311
     11  CG        40.4700    3.1170   -6.8130 C.3     2  LEU2        0.0022
     12  CD1       41.8990    2.9530   -6.3340 C.3     2  LEU2        0.0001
     13  CD2       40.4120    3.0190   -8.3180 C.3     2  LEU2        0.0001
     14  N         37.0090    3.7850   -5.5210 N.am    3  VAL3       -0.1963
     15  CA        35.9930    4.6680   -6.0530 C.3     3  VAL3        0.1727
     16  C         34.4980    4.8850   -5.8620 C.2     3  VAL3        0.2616
     17  O         34.1000    6.0060   -6.2300 O.2     3  VAL3       -0.2715
     18  CB        36.1510    4.4120   -7.5630 C.3     3  VAL3        0.0290
     19  CG1       35.4890    5.4940   -8.3910 C.3     3  VAL3        0.0023
     20  CG2       37.6200    4.2940   -7.9360 C.3     3  VAL3        0.0023
     21  N         33.5590    4.0770   -5.3620 N.am    4  TYR4       -0.1960
     22  CA        32.4120    4.7240   -5.7930 C.3     4  TYR4        0.1771
     23  C         31.3330    4.9940   -4.8350 C.2     4  TYR4        0.2619
     24  O         31.1010    4.4270   -3.7690 O.2     4  TYR4       -0.2715
     25  CB        31.9870    4.0210   -7.1210 C.3     4  TYR4        0.0574
     26  CG        31.6700    4.9110   -8.3480 C.ar    4  TYR4       -0.0198
     27  CD1       31.2710    6.2050   -8.1560 C.ar    4  TYR4       -0.0009
     28  CD2       31.7120    4.3930   -9.6530 C.ar    4  TYR4       -0.0009
     29  CE1       30.8470    6.9840   -9.2490 C.ar    4  TYR4        0.0417
     30  CE2       31.2620    5.1400  -10.7280 C.ar    4  TYR4        0.0417
     31  CZ        30.8200    6.4250  -10.5330 C.ar    4  TYR4        0.1957
     32  OH        30.3340    7.1480  -11.6000 O.3     4  TYR4       -0.2866
     33  N         30.7190    6.0530   -5.3130 N.am    5  LYS5       -0.1977
     34  CA        29.5980    6.7500   -4.7170 C.3     5  LYS5        0.1596
     35  C         29.6310    8.2130   -5.1240 C.2     5  LYS5        0.2287
     36  O         29.9170    8.5290   -6.2790 O.2     5  LYS5       -0.2864
     37  CB        29.6000    6.6120   -3.2200 C.3     5  LYS5        0.0298
     38  CG        28.3070    7.1650   -2.6570 C.3     5  LYS5        0.0038
     39  CD        27.2930    7.4070   -3.7560 C.3     5  LYS5        0.0206
     40  CE        26.6780    8.7820   -3.6720 C.3     5  LYS5        0.1093
     41  NZ        25.2460    8.7770   -4.0800 N.3     5  LYS5       -0.1314
@<TRIPOS>BOND
     1    32    31    1
     2    30    31   ar
     3    30    28   ar
     4    31    29   ar
     5    28    26   ar
     6    29    27   ar
     7    19    18    1
     8    26    27   ar
     9    26    25    1
    10    13    11    1
    11    20    18    1
    12    18    15    1
    13    25    22    1
    14    11    12    1
    15    11    10    1
    16    36    35    2
    17    17    16    2
    18    10     7    1
    19    15    16    1
    20    15    14    1
    21    16    21   am
    22    22    21    1
    23    22    23    1
    24    14     8   am
    25    33    23   am
    26    33    34    1
    27     8     7    1
    28     8     9    2
    29    35    34    1
    30     7     6    1
    31    23    24    2
    32    34    37    1
    33     4     3    2
    34    41    40    1
    35    39    40    1
    36    39    38    1
    37     6     3   am
    38     3     2    1
    39    37    38    1
    40     2     1    1
    41     2     5    1
