@<TRIPOS>MOLECULE
2gnu_U10_L_1.pdb
 24 24 0 0 0
SMALL
GASTEIGER

@<TRIPOS>ATOM
      1  C1         2.2220  -28.9760  -39.4120 C.2   1306  U101306     0.0195
      2  C2         2.7250  -29.3320  -40.6710 C.2   1306  U101306     0.2282
      3  C3         2.1300  -28.7140  -41.8120 C.2   1306  U101306     0.2140
      4  C4         1.0790  -27.8170  -41.6450 C.2   1306  U101306     0.2140
      5  C5         0.5630  -27.4360  -40.3730 C.2   1306  U101306     0.2282
      6  C6         1.1930  -28.0370  -39.2360 C.2   1306  U101306     0.0191
      7  C1M        2.8170  -29.5750  -38.1860 C.3   1306  U101306     0.0343
      8  C3M        3.5610  -28.6340  -43.7400 C.3   1306  U101306     0.2528
      9  C4M        0.4230  -28.3930  -43.6990 C.3   1306  U101306     0.2528
     10  C7         0.7500  -27.7380  -37.8040 C.3   1306  U101306     0.0295
     11  C8         1.6880  -26.9700  -36.9220 C.3   1306  U101306     0.0048
     12  C9         1.1220  -25.8890  -36.1170 C.3   1306  U101306     0.0003
     13  C10        1.0580  -26.0110  -34.6260 C.3   1306  U101306     0.0000
     14  C11        0.6080  -24.6550  -36.8350 C.3   1306  U101306     0.0000
     15  C12       -0.9000  -24.7460  -37.0930 C.3   1306  U101306     0.0000
     16  C13       -1.4510  -23.3960  -37.4950 C.3   1306  U101306     0.0000
     17  C14       -1.9090  -22.4220  -36.4890 C.3   1306  U101306     0.0000
     18  C15       -1.0190  -21.2250  -36.2310 C.3   1306  U101306     0.0000
     19  C16       -3.2320  -22.6540  -35.7450 C.3   1306  U101306     0.0000
     20  C17       -4.4790  -22.2130  -36.5230 C.3   1306  U101306     0.0000
     21  O2         3.6700  -30.1710  -40.7110 O.2   1306  U101306    -0.2836
     22  O3         2.3830  -28.9280  -43.0320 O.2   1306  U101306    -0.4652
     23  O4         0.6440  -27.3910  -42.7110 O.2   1306  U101306    -0.4652
     24  O5        -0.3790  -26.5810  -40.2610 O.2   1306  U101306    -0.2836
@<TRIPOS>BOND
     1     8    22    1
     2     9    23    1
     3    22     3    1
     4    23     4    1
     5     3     4    2
     6     3     2    1
     7     4     5    1
     8    21     2    2
     9     2     1    1
    10     5    24    2
    11     5     6    1
    12     1     6    2
    13     1     7    1
    14     6    10    1
    15    10    11    1
    16    16    15    1
    17    16    17    1
    18    15    14    1
    19    11    12    1
    20    14    12    1
    21    20    19    1
    22    17    18    1
    23    17    19    1
    24    12    13    1
