@<TRIPOS>MOLECULE
2gnu_BCL_M_1.pdb
 48 54 0 0 0
SMALL
GASTEIGER

@<TRIPOS>ATOM
      1 MG         -0.3700  -24.9670  -17.7920 Mg    1302  BCL1302     0.0000
      2  CHA        1.2770  -21.9940  -18.6640 C.2   1302  BCL1302     0.0000
      3  CHB       -2.9100  -24.3000  -20.0730 C.2   1302  BCL1302     0.0000
      4  CHC       -1.7710  -28.0770  -17.1470 C.2   1302  BCL1302     0.0000
      5  CHD        2.2890  -25.7560  -15.6470 C.2   1302  BCL1302     0.0000
      6  NA        -0.7740  -23.4090  -19.1560 N.2   1302  BCL1302     0.0000
      7  C1A       -0.0190  -22.2150  -19.3490 C.2   1302  BCL1302     0.0000
      8  C2A       -0.6420  -21.4110  -20.4130 C.2   1302  BCL1302     0.0000
      9  C3A       -1.9730  -22.0420  -20.7070 C.2   1302  BCL1302     0.0000
     10  C4A       -1.9170  -23.3280  -19.9950 C.1   1302  BCL1302     0.0000
     11  CMA       -2.9330  -21.1020  -19.9120 C.3   1302  BCL1302     0.0000
     12  CAA        0.1920  -21.6830  -21.7130 C.2   1302  BCL1302     0.0000
     13  CBA        0.1210  -23.1270  -22.3250 C.2   1302  BCL1302     0.0000
     14  CGA        0.6670  -23.3510  -23.7540 C.2   1302  BCL1302     0.0000
     15  O1A        1.6950  -22.7810  -24.0600 O.2   1302  BCL1302     0.0000
     16  O2A        0.0460  -24.2470  -24.7610 O.3   1302  BCL1302     0.0000
     17  NB        -2.0440  -25.9960  -18.4750 N.ar  1302  BCL1302     0.0000
     18  C1B       -2.9340  -25.5400  -19.4100 C.ar  1302  BCL1302     0.0000
     19  C2B       -3.9490  -26.4910  -19.5640 C.ar  1302  BCL1302     0.0000
     20  C3B       -3.6170  -27.5160  -18.7040 C.ar  1302  BCL1302     0.0000
     21  C4B       -2.4070  -27.2420  -18.0550 C.ar  1302  BCL1302     0.0000
     22  CMB       -5.0930  -26.1900  -20.5190 C.3   1302  BCL1302     0.0000
     23  CAB       -4.2970  -28.8330  -18.5300 C.2   1302  BCL1302     0.0000
     24  OBB       -4.0510  -29.6190  -17.6160 O.2   1302  BCL1302     0.0000
     25  CBB       -5.1470  -29.2070  -19.7250 C.3   1302  BCL1302     0.0000
     26  NC         0.1950  -26.6210  -16.6120 N.2   1302  BCL1302     0.0000
     27  C1C       -0.5900  -27.8040  -16.4400 C.1   1302  BCL1302     0.0000
     28  C2C        0.0540  -28.7060  -15.4470 C.2   1302  BCL1302     0.0000
     29  C3C        1.3410  -28.0210  -15.0260 C.2   1302  BCL1302     0.0000
     30  C4C        1.3230  -26.7380  -15.7670 C.2   1302  BCL1302     0.0000
     31  CMC       -0.8200  -28.7650  -14.2220 C.3   1302  BCL1302     0.0000
     32  CAC        2.5730  -28.8860  -15.3550 C.3   1302  BCL1302     0.0000
     33  CBC        2.7790  -29.0380  -16.8510 C.3   1302  BCL1302     0.0000
     34  ND         1.3700  -24.1590  -17.2270 N.ar  1302  BCL1302     0.0000
     35  C1D        2.3190  -24.5590  -16.3410 C.ar  1302  BCL1302     0.0000
     36  C2D        3.3060  -23.5370  -16.2830 C.ar  1302  BCL1302     0.0000
     37  C3D        2.9280  -22.5560  -17.1700 C.ar  1302  BCL1302     0.0000
     38  C4D        1.7870  -22.9820  -17.7140 C.ar  1302  BCL1302     0.0000
     39  CMD        4.5250  -23.5110  -15.3870 C.3   1302  BCL1302     0.0000
     40  CAD        3.2460  -21.1880  -17.6900 C.2   1302  BCL1302     0.0000
     41  OBD        4.2690  -20.4790  -17.4010 O.2   1302  BCL1302     0.0000
     42  CBD        2.2180  -20.8420  -18.7050 C.3   1302  BCL1302     0.0000
     43  CGD        1.5380  -19.5710  -18.4380 C.2   1302  BCL1302     0.0000
     44  O1D        1.7270  -18.6300  -19.1970 O.2   1302  BCL1302     0.0000
     45  O2D        0.6270  -19.4850  -17.3240 O.3   1302  BCL1302     0.0000
     46  CED       -0.1450  -18.2840  -17.1970 C.3   1302  BCL1302     0.0000
     47  C1         0.2190  -24.3060  -26.1980 C.3   1302  BCL1302     0.0000
     48  C2        -0.9820  -24.0110  -27.1290 C.3   1302  BCL1302     0.0000
@<TRIPOS>BOND
     1    48    47    1
     2    47    16    1
     3    16    14    1
     4    15    14    2
     5    14    13    1
     6    13    12    2
     7    12     8    1
     8     9     8    2
     9     9    10    1
    10     9    11    1
    11    22    19    1
    12     8     7    1
    13     3    10    2
    14     3    18    1
    15    10     6    2
    16    25    23    1
    17    19    18   ar
    18    19    20   ar
    19    18    17   ar
    20     7     6    2
    21     7     2    1
    22    44    43    2
    23    42     2    1
    24    42    43    1
    25    42    40    1
    26    20    23    1
    27    20    21   ar
    28     2    38    2
    29    23    24    2
    30    17    21   ar
    31    17     1    1
    32    43    45    1
    33    21     4    1
    34     1    34    1
    35    38    34   ar
    36    38    37   ar
    37    40    41    2
    38    40    37    1
    39    45    46    1
    40    34    35   ar
    41    37    36   ar
    42     4    27    2
    43    33    32    1
    44    26    27    2
    45    26    30    2
    46    27    28    1
    47    35    36   ar
    48    35     5    2
    49    36    39    1
    50    30     5    1
    51    30    29    1
    52    28    29    2
    53    28    31    1
    54    32    29    1
