@<TRIPOS>MOLECULE
2gnv_HEM_A_1.pdb
 43 50 0 0 0
SMALL
GASTEIGER

@<TRIPOS>ATOM
      1 FE        -66.7820  -11.9780  -33.6640 Fe    166  HEM166      0.0000
      2  CHA      -68.4150   -9.9180  -31.5510 C.2   166  HEM166      0.0000
      3  CHB      -69.7110  -12.9210  -35.0440 C.2   166  HEM166      0.0000
      4  CHC      -65.0970  -13.8790  -35.8700 C.2   166  HEM166      0.0000
      5  CHD      -63.8780  -11.2280  -32.0950 C.2   166  HEM166      0.0000
      6  NA       -68.6550  -11.5170  -33.3350 N.ar  166  HEM166      0.0000
      7  C1A      -69.1820  -10.6210  -32.4360 C.ar  166  HEM166      0.0000
      8  C2A      -70.6470  -10.5570  -32.5340 C.ar  166  HEM166      0.0000
      9  C3A      -70.9920  -11.4500  -33.4860 C.ar  166  HEM166      0.0000
     10  C4A      -69.7610  -12.0190  -33.9980 C.ar  166  HEM166      0.0000
     11  CMA      -72.4540  -11.7410  -33.8820 C.3   166  HEM166      0.0000
     12  CAA      -71.7130   -9.7350  -31.7980 C.3   166  HEM166      0.0000
     13  CBA      -71.4340   -8.2720  -31.4640 C.3   166  HEM166      0.0000
     14  CGA      -72.1360   -7.2880  -32.3770 C.2   166  HEM166      0.0000
     15  O1A      -71.6240   -7.1060  -33.5060 O.co2 166  HEM166      0.0000
     16  O2A      -73.1700   -6.7200  -31.9600 O.co2 166  HEM166      0.0000
     17  NB       -67.2860  -13.1490  -35.1490 N.2   166  HEM166      0.0000
     18  C1B      -68.5600  -13.4580  -35.5850 C.2   166  HEM166      0.0000
     19  C2B      -68.5320  -14.3800  -36.7010 C.2   166  HEM166      0.0000
     20  C3B      -67.2300  -14.6610  -36.9570 C.2   166  HEM166      0.0000
     21  C4B      -66.4660  -13.8560  -35.9860 C.2   166  HEM166      0.0000
     22  CMB      -69.7520  -14.9200  -37.4210 C.3   166  HEM166      0.0000
     23  CAB      -66.6610  -15.4520  -37.9670 C.3   166  HEM166      0.0000
     24  CBB      -67.3610  -16.0580  -39.0830 C.3   166  HEM166      0.0000
     25  NC       -64.8940  -12.4850  -33.8970 N.ar  166  HEM166      0.0000
     26  C1C      -64.3490  -13.2670  -34.8860 C.ar  166  HEM166      0.0000
     27  C2C      -62.9270  -13.4100  -34.7320 C.ar  166  HEM166      0.0000
     28  C3C      -62.5940  -12.6880  -33.6220 C.ar  166  HEM166      0.0000
     29  C4C      -63.8220  -12.1270  -33.1490 C.ar  166  HEM166      0.0000
     30  CMC      -62.0010  -14.1930  -35.6690 C.3   166  HEM166      0.0000
     31  CAC      -61.3830  -12.5770  -32.8900 C.3   166  HEM166      0.0000
     32  CBC      -60.3990  -13.6500  -32.7970 C.3   166  HEM166      0.0000
     33  ND       -66.2530  -10.8130  -32.1860 N.2   166  HEM166      0.0000
     34  C1D      -65.0080  -10.5990  -31.6740 C.2   166  HEM166      0.0000
     35  C2D      -65.0070   -9.6420  -30.6400 C.2   166  HEM166      0.0000
     36  C3D      -66.2790   -9.2570  -30.4740 C.2   166  HEM166      0.0000
     37  C4D      -67.0500   -9.9940  -31.4450 C.2   166  HEM166      0.0000
     38  CMD      -63.8270   -9.2130  -29.8000 C.3   166  HEM166      0.0000
     39  CAD      -66.7800   -8.2340  -29.4770 C.3   166  HEM166      0.0000
     40  CBD      -67.0940   -8.7820  -28.1100 C.3   166  HEM166      0.0000
     41  CGD      -68.5120   -8.5270  -27.6890 C.2   166  HEM166      0.0000
     42  O1D      -68.9450   -7.3390  -27.6540 O.co2 166  HEM166      0.0000
     43  O2D      -69.1780   -9.5580  -27.4070 O.co2 166  HEM166      0.0000
@<TRIPOS>BOND
     1    24    23    1
     2    23    20    1
     3    22    19    1
     4    20    19    2
     5    20    21    1
     6    19    18    1
     7    21     4    2
     8    21    17    1
     9     4    26    1
    10    30    27    1
    11    18    17    2
    12    18     3    1
    13    17     1    1
    14     3    10    2
    15    26    27   ar
    16    26    25   ar
    17    27    28   ar
    18    10     9   ar
    19    10     6   ar
    20    25     1    1
    21    25    29   ar
    22    11     9    1
    23     1     6    1
    24     1    33    1
    25    28    29   ar
    26    28    31    1
    27    15    14   ar
    28     9     8   ar
    29     6     7   ar
    30    29     5    1
    31    31    32    1
    32     8     7   ar
    33     8    12    1
    34     7     2    2
    35    14    16   ar
    36    14    13    1
    37    33    34    1
    38    33    37    2
    39     5    34    2
    40    12    13    1
    41    34    35    1
    42     2    37    1
    43    37    36    1
    44    35    36    2
    45    35    38    1
    46    36    39    1
    47    39    40    1
    48    40    41    1
    49    41    42   ar
    50    41    43   ar
