@<TRIPOS>MOLECULE
2gnw_HEM_A_1.pdb
 43 50 0 0 0
SMALL
GASTEIGER

@<TRIPOS>ATOM
      1 FE         23.1110   64.2810    3.5920 Fe    166  HEM166      0.0000
      2  CHA       25.5550   64.7100    5.8860 C.2   166  HEM166      0.0000
      3  CHB       23.7980   67.4050    2.2360 C.2   166  HEM166      0.0000
      4  CHC       20.6000   63.9320    1.3070 C.2   166  HEM166      0.0000
      5  CHD       22.2470   61.3590    5.0890 C.2   166  HEM166      0.0000
      6  NA        24.5340   65.7230    3.9120 N.ar  166  HEM166      0.0000
      7  C1A       25.4420   65.6950    4.9080 C.ar  166  HEM166      0.0000
      8  C2A       26.2640   66.8480    4.8580 C.ar  166  HEM166      0.0000
      9  C3A       25.7590   67.5640    3.8250 C.ar  166  HEM166      0.0000
     10  C4A       24.6760   66.8460    3.2380 C.ar  166  HEM166      0.0000
     11  CMA       26.2110   68.9360    3.2490 C.3   166  HEM166      0.0000
     12  CAA       27.4140   67.1680    5.8200 C.3   166  HEM166      0.0000
     13  CBA       28.8620   66.5430    5.7360 C.3   166  HEM166      0.0000
     14  CGA       29.6750   67.1920    4.6660 C.2   166  HEM166      0.0000
     15  O1A       30.6530   67.9080    5.0370 O.co2 166  HEM166      0.0000
     16  O2A       29.2450   66.9880    3.4890 O.co2 166  HEM166      0.0000
     17  NB        22.3330   65.4860    2.0770 N.2   166  HEM166      0.0000
     18  C1B       22.7400   66.7360    1.7290 C.2   166  HEM166      0.0000
     19  C2B       21.8600   67.1640    0.6320 C.2   166  HEM166      0.0000
     20  C3B       20.9530   66.1940    0.3450 C.2   166  HEM166      0.0000
     21  C4B       21.3230   65.1310    1.2560 C.2   166  HEM166      0.0000
     22  CMB       21.9150   68.4320   -0.1780 C.3   166  HEM166      0.0000
     23  CAB       20.0850   66.0380   -0.7900 C.3   166  HEM166      0.0000
     24  CBB       20.7080   66.0070   -2.1220 C.3   166  HEM166      0.0000
     25  NC        21.7250   62.8220    3.2520 N.ar  166  HEM166      0.0000
     26  C1C       20.8020   62.8810    2.2790 C.ar  166  HEM166      0.0000
     27  C2C       19.9520   61.7460    2.3100 C.ar  166  HEM166      0.0000
     28  C3C       20.4130   60.9810    3.3680 C.ar  166  HEM166      0.0000
     29  C4C       21.5700   61.7280    3.9600 C.ar  166  HEM166      0.0000
     30  CMC       18.8290   61.5390    1.3080 C.3   166  HEM166      0.0000
     31  CAC       19.7940   59.7730    3.9720 C.3   166  HEM166      0.0000
     32  CBC       18.6730   59.6760    4.8090 C.3   166  HEM166      0.0000
     33  ND        23.8000   63.1780    5.1920 N.2   166  HEM166      0.0000
     34  C1D       23.2930   62.0440    5.6440 C.2   166  HEM166      0.0000
     35  C2D       24.0490   61.6290    6.7680 C.2   166  HEM166      0.0000
     36  C3D       25.0020   62.5320    6.9580 C.2   166  HEM166      0.0000
     37  C4D       24.7850   63.5310    5.9230 C.2   166  HEM166      0.0000
     38  CMD       23.8090   60.4270    7.6090 C.3   166  HEM166      0.0000
     39  CAD       26.1660   62.7230    7.9860 C.3   166  HEM166      0.0000
     40  CBD       25.9730   63.7280    9.0940 C.3   166  HEM166      0.0000
     41  CGD       27.3070   64.1580    9.7240 C.2   166  HEM166      0.0000
     42  O1D       28.3180   63.6640    9.3530 O.co2 166  HEM166      0.0000
     43  O2D       27.3760   65.0480   10.5270 O.co2 166  HEM166      0.0000
@<TRIPOS>BOND
     1    24    23    1
     2    23    20    1
     3    22    19    1
     4    20    19    2
     5    20    21    1
     6    19    18    1
     7    21     4    2
     8    21    17    1
     9     4    26    1
    10    30    27    1
    11    18    17    2
    12    18     3    1
    13    17     1    1
    14     3    10    2
    15    26    27   ar
    16    26    25   ar
    17    27    28   ar
    18    10     9   ar
    19    10     6   ar
    20    11     9    1
    21    25     1    1
    22    25    29   ar
    23    28    29   ar
    24    28    31    1
    25    16    14   ar
    26     1     6    1
    27     1    33    1
    28     9     8   ar
    29     6     7   ar
    30    29     5    1
    31    31    32    1
    32    14    15   ar
    33    14    13    1
    34     8     7   ar
    35     8    12    1
    36     7     2    2
    37     5    34    2
    38    33    34    1
    39    33    37    2
    40    34    35    1
    41    13    12    1
    42     2    37    1
    43    37    36    1
    44    35    36    2
    45    35    38    1
    46    36    39    1
    47    39    40    1
    48    40    41    1
    49    42    41   ar
    50    41    43   ar
