@<TRIPOS>MOLECULE
2go4_TUX_A_1.pdb
 30 30 0 0 0
SMALL
GASTEIGER

@<TRIPOS>ATOM
      1  C3G      -30.9350   77.2910    5.3030 C.3   901  TUX901      0.2041
      2  C4G      -32.0710   78.3100    5.2000 C.3   901  TUX901      0.2212
      3  C5G      -32.1150   78.8920    3.7840 C.3   901  TUX901      0.1818
      4  C2G      -29.6160   77.9540    4.8970 C.3   901  TUX901      0.0787
      5  C1G      -29.7580   78.5920    3.5110 C.3   901  TUX901      0.1463
      6  O5G      -30.8550   79.5230    3.4950 O.3   901  TUX901     -0.3507
      7  O3G      -30.8270   76.8150    6.6520 O.3   901  TUX901     -0.4494
      8  O1A      -31.2350   74.7680    5.7900 O.2   901  TUX901     -0.2501
      9  C1A      -30.9760   75.4670    6.7690 C.2   901  TUX901      0.3169
     10  C2A      -30.8580   74.8550    8.1670 C.3   901  TUX901      0.1096
     11  C3A      -31.3740   73.4170    8.2340 C.3   901  TUX901      0.0116
     12  C4A      -31.9200   73.1420    9.6370 C.3   901  TUX901      0.0006
     13  C5A      -32.3290   71.6790    9.8150 C.3   901  TUX901      0.0000
     14  C6A      -33.3330   71.4890   10.9560 C.3   901  TUX901      0.0000
     15  C7A      -32.8430   71.9980   12.3150 C.3   901  TUX901      0.0000
     16  C8A      -33.8440   71.5970   13.4010 C.3   901  TUX901      0.0000
     17  C9A      -33.4930   72.1810   14.7710 C.3   901  TUX901      0.0000
     18  CAA      -34.3970   71.5770   15.8490 C.3   901  TUX901      0.0000
     19  CBA      -34.1570   72.1950   17.2300 C.3   901  TUX901      0.0000
     20  CCA      -34.8650   73.5400   17.4300 C.3   901  TUX901      0.0000
     21  CDA      -36.3660   73.4080   17.7110 C.3   901  TUX901      0.0000
     22  CEA      -37.1640   72.9100   16.5030 C.3   901  TUX901      0.0000
     23  CZH      -28.4870   76.9210    4.9330 C.3   901  TUX901      0.0574
     24  CYH      -27.1010   77.5640    4.8510 C.2   901  TUX901      0.0870
     25  OYH      -26.5470   78.0000    5.8580 O.2   901  TUX901     -0.5396
     26  NXH      -26.5680   77.5970    3.6340 N.am  901  TUX901     -0.2030
     27  OXH      -25.3210   78.1110    3.4670 O.3   901  TUX901     -0.4026
     28  O4G      -33.3130   77.6660    5.4960 O.3   901  TUX901     -0.2165
     29  C6G      -33.2640   79.8990    3.6810 C.3   901  TUX901      0.2142
     30  O6G      -33.4170   80.3350    2.3280 O.3   901  TUX901     -0.2176
@<TRIPOS>BOND
     1    30    29    1
     2    27    26    1
     3     6     5    1
     4     6     3    1
     5     5     4    1
     6    26    24   am
     7    29     3    1
     8     3     2    1
     9    24    23    1
    10    24    25    2
    11     4    23    1
    12     4     1    1
    13     2     1    1
    14     2    28    1
    15     1     7    1
    16     8     9    2
    17     7     9    1
    18     9    10    1
    19    10    11    1
    20    11    12    1
    21    12    13    1
    22    13    14    1
    23    14    15    1
    24    15    16    1
    25    16    17    1
    26    17    18    1
    27    18    19    1
    28    22    21    1
    29    19    20    1
    30    20    21    1
