@<TRIPOS>MOLECULE
2gou_FMN_A_1.pdb
 31 33 0 0 0
SMALL
GASTEIGER

@<TRIPOS>ATOM
      1  N1         0.8000   -2.2680   -2.9360 N.2   4401  FMN4401    -0.2887
      2  C2         1.6240   -1.1550   -2.6460 C.1   4401  FMN4401     0.3669
      3  O2         2.3270   -0.6660   -3.4570 O.2   4401  FMN4401    -0.1744
      4  N3         1.5240   -0.5790   -1.3390 N.2   4401  FMN4401    -0.2300
      5  C4         0.7220   -1.0180   -0.3420 C.1   4401  FMN4401     0.2513
      6  O4         0.7320   -0.4460    0.9040 O.2   4401  FMN4401    -0.2057
      7  C4A       -0.2390   -2.1140   -0.6910 C.2   4401  FMN4401     0.2706
      8  N5        -1.0640   -2.6240    0.2740 N.2   4401  FMN4401    -0.3841
      9  C5A       -1.6420   -3.8330    0.0370 C.2   4401  FMN4401     0.1452
     10  C6        -2.3990   -4.4760    1.1260 C.2   4401  FMN4401     0.0252
     11  C7        -2.9130   -5.8190    0.9900 C.2   4401  FMN4401    -0.0375
     12  C7M       -3.4550   -6.4700    2.2580 C.3   4401  FMN4401     0.0268
     13  C8        -2.6330   -6.5840   -0.1900 C.3   4401  FMN4401     0.0417
     14  C8M       -3.1070   -8.0200   -0.5310 C.3   4401  FMN4401     0.0091
     15  C9        -2.0960   -5.9590   -1.3500 C.2   4401  FMN4401    -0.0049
     16  C9A       -1.4930   -4.5730   -1.2140 C.2   4401  FMN4401     0.0795
     17  N10       -0.6260   -3.9560   -2.1840 N.pl3 4401  FMN4401    -0.2545
     18  C10       -0.0110   -2.7520   -2.0070 C.2   4401  FMN4401     0.2449
     19  C1'       -0.4090   -4.6720   -3.4890 C.3   4401  FMN4401     0.1336
     20  C2'        0.6900   -5.7370   -3.3400 C.3   4401  FMN4401     0.2048
     21  O2'        1.9760   -5.1780   -3.0730 O.3   4401  FMN4401    -0.2185
     22  C3'        0.8220   -6.6380   -4.5690 C.3   4401  FMN4401     0.2165
     23  O3'        1.2860   -5.8700   -5.6910 O.3   4401  FMN4401    -0.2175
     24  C4'       -0.4890   -7.2940   -4.9640 C.3   4401  FMN4401     0.2147
     25  O4'       -1.1400   -7.9290   -3.8150 O.3   4401  FMN4401    -0.2176
     26  C5'       -0.3380   -8.2900   -6.0910 C.3   4401  FMN4401     0.1892
     27  O5'        0.5080   -9.4160   -5.6980 O.3   4401  FMN4401    -0.2674
     28  P         -0.1100  -10.7950   -5.2190 P.3   4401  FMN4401     0.5327
     29  O1P       -0.7550  -10.6040   -3.8860 O.3   4401  FMN4401    -0.1145
     30  O2P       -1.0710  -11.2370   -6.3060 O.2   4401  FMN4401    -0.2224
     31  O3P        1.1080  -11.7200   -5.1220 O.3   4401  FMN4401    -0.1145
@<TRIPOS>BOND
     1    30    28    2
     2    26    27    1
     3    26    24    1
     4    27    28    1
     5    23    22    1
     6    28    31    1
     7    28    29    1
     8    24    22    1
     9    24    25    1
    10    22    20    1
    11    19    20    1
    12    19    17    1
    13     3     2    2
    14    20    21    1
    15     1     2    2
    16     1    18    2
    17     2     4    2
    18    17    18    1
    19    17    16    1
    20    18     7    1
    21    15    16    2
    22    15    13    1
    23     4     5    2
    24    16     9    1
    25     7     5    1
    26     7     8    2
    27    14    13    1
    28     5     6    2
    29    13    11    1
    30     9     8    2
    31     9    10    1
    32    11    10    2
    33    11    12    1
