@<TRIPOS>MOLECULE
2goy_ADX_B_1.pdb
 27 29 0 0 0
SMALL
GASTEIGER

@<TRIPOS>ATOM
      1  SB        26.3360   71.1750   54.5670 S.3   310  ADX310      0.0049
      2  O1B       25.7820   71.9880   55.5990 O.3   310  ADX310     -0.2679
      3  O2B       26.2300   71.4120   53.1750 O.2   310  ADX310     -0.3449
      4  O3B       25.8250   69.7550   54.8400 O.2   310  ADX310     -0.3449
      5  PA        28.6950   70.3390   53.8310 P.3   310  ADX310      0.2383
      6  O1A       28.1500   68.9650   53.5200 O.3   310  ADX310     -0.4361
      7  O2A       28.7810   71.2440   52.5190 O.2   310  ADX310     -0.5161
      8  O3A       27.8100   71.1550   54.9200 O.3   310  ADX310     -0.1945
      9  O5'       30.1310   70.3520   54.4740 O.3   310  ADX310     -0.3102
     10  C5'       31.0350   69.5350   53.8300 C.3   310  ADX310      0.1814
     11  C4'       32.2420   69.7400   54.6870 C.3   310  ADX310      0.1821
     12  O4'       31.8730   69.6070   56.0770 O.3   310  ADX310     -0.3135
     13  C3'       33.3070   68.7190   54.2870 C.3   310  ADX310      0.2184
     14  O3'       34.6090   69.2810   54.0210 O.3   310  ADX310     -0.2174
     15  C2'       33.2390   67.7250   55.5010 C.3   310  ADX310      0.2570
     16  O2'       34.4950   67.5530   56.1240 O.3   310  ADX310     -0.2130
     17  C1'       32.1840   68.2930   56.5420 C.3   310  ADX310      0.3186
     18  N9        30.9060   67.4910   56.7060 N.pl3 310  ADX310     -0.1439
     19  C8        29.6530   67.9170   56.3540 C.3   310  ADX310      0.3377
     20  N7        28.7520   67.0400   56.6040 N.2   310  ADX310     -0.2095
     21  C5        29.3290   65.9550   57.1470 C.2   310  ADX310      0.2526
     22  C6        28.8470   64.7070   57.6220 C.2   310  ADX310      0.4393
     23  N6        27.4950   64.4090   57.5650 N.pl3 310  ADX310      0.2180
     24  N1        29.7290   63.8140   58.1290 N.2   310  ADX310      0.0021
     25  C2        31.0400   64.0840   58.1970 C.3   310  ADX310      0.5254
     26  N3        31.5410   65.2500   57.7620 N.2   310  ADX310     -0.0055
     27  C4        30.7370   66.2100   57.2360 C.2   310  ADX310      0.3518
@<TRIPOS>BOND
     1     7     5    2
     2     3     1    2
     3     6     5    1
     4    10     9    1
     5    10    11    1
     6     5     9    1
     7     5     8    1
     8    14    13    1
     9    13    11    1
    10    13    15    1
    11     1     4    2
    12     1     8    1
    13     1     2    1
    14    11    12    1
    15    15    16    1
    16    15    17    1
    17    12    17    1
    18    19    20    1
    19    19    18    1
    20    17    18    1
    21    20    21    2
    22    18    27    1
    23    21    27    1
    24    21    22    1
    25    27    26    2
    26    23    22    1
    27    22    24    2
    28    26    25    1
    29    24    25    1
