@<TRIPOS>MOLECULE
2gp5_AKG_A_1.pdb
 10 9 0 0 0
SMALL
GASTEIGER

@<TRIPOS>ATOM
      1  C1       -29.3210  -21.4360  -23.9420 C.2   501  AKG501      0.4219
      2  O1       -29.5140  -21.4460  -25.1350 O.co2 501  AKG501     -0.2373
      3  O2       -30.3510  -21.2510  -23.0980 O.co2 501  AKG501     -0.2373
      4  C2       -27.9470  -21.6270  -23.3930 C.2   501  AKG501      0.2526
      5  O5       -27.7780  -21.6190  -22.1920 O.2   501  AKG501     -0.2843
      6  C3       -26.7900  -21.8280  -24.3280 C.3   501  AKG501      0.0881
      7  C4       -25.5030  -22.0040  -23.5370 C.3   501  AKG501      0.1224
      8  C5       -24.3420  -22.1960  -24.4320 C.2   501  AKG501      0.3653
      9  O3       -24.4810  -22.1950  -25.6370 O.co2 501  AKG501     -0.2456
     10  O4       -23.1300  -22.3700  -23.8930 O.co2 501  AKG501     -0.2456
@<TRIPOS>BOND
     1     9     8   ar
     2     2     1   ar
     3     8    10   ar
     4     8     7    1
     5     6     7    1
     6     6     4    1
     7     1     4    1
     8     1     3   ar
     9     4     5    2
