@<TRIPOS>MOLECULE
2gpa_PLP_A_1.pdb
 15 15 0 0 0
SMALL
GASTEIGER

@<TRIPOS>ATOM
      1  N1        23.9990   25.7480   30.1920 N.ar  999  PLP999     -0.2452
      2  C2        22.9000   25.0170   30.5000 C.ar  999  PLP999      0.0978
      3  C2A       21.9670   25.5800   31.5620 C.3   999  PLP999      0.0555
      4  C3        22.6440   23.8330   29.8150 C.ar  999  PLP999      0.2049
      5  O3        21.4750   23.1490   30.0390 O.3   999  PLP999     -0.2857
      6  C4        23.5240   23.3940   28.8300 C.ar  999  PLP999      0.0182
      7  C4A       23.1940   22.1390   27.9910 C.3   999  PLP999      0.0342
      8  C5        24.6380   24.1480   28.5640 C.ar  999  PLP999      0.0261
      9  C6        24.8600   25.3220   29.2410 C.ar  999  PLP999      0.0965
     10  C5A       25.6510   23.8060   27.4590 C.3   999  PLP999      0.1815
     11  O4P       25.3180   24.5960   26.2980 O.3   999  PLP999     -0.2653
     12  P         26.3710   24.7620   25.0440 P.3   999  PLP999      0.5329
     13  O1P       25.5920   25.5930   24.0590 O.2   999  PLP999     -0.2224
     14  O2P       27.5870   25.6380   25.5890 O.3   999  PLP999     -0.1145
     15  O3P       26.8500   23.4390   24.6480 O.3   999  PLP999     -0.1145
@<TRIPOS>BOND
     1    13    12    2
     2    15    12    1
     3    12    14    1
     4    12    11    1
     5    11    10    1
     6    10     8    1
     7     7     6    1
     8     8     6   ar
     9     8     9   ar
    10     6     4   ar
    11     9     1   ar
    12     4     5    1
    13     4     2   ar
    14     1     2   ar
    15     2     3    1
