@<TRIPOS>MOLECULE
2gpa_GLC_A_1.pdb
 12 12 0 0 0
SMALL
GASTEIGER

@<TRIPOS>ATOM
      1  C1        32.8950   22.7810   27.9010 C.3   998  GLC998      0.3024
      2  C2        33.1110   23.0660   26.3510 C.3   998  GLC998      0.2434
      3  C3        31.9740   22.4140   25.5150 C.3   998  GLC998      0.2199
      4  C4        31.7600   20.9340   25.8740 C.3   998  GLC998      0.2144
      5  C5        31.5040   20.7630   27.4200 C.3   998  GLC998      0.1836
      6  C6        31.3430   19.3150   27.7790 C.3   998  GLC998      0.2142
      7  O1        31.8340   23.6030   28.4130 O.3   998  GLC998     -0.1869
      8  O2        33.0970   24.4710   26.1570 O.3   998  GLC998     -0.2148
      9  O3        32.1780   22.4630   24.1250 O.3   998  GLC998     -0.2174
     10  O4        30.6340   20.4660   25.1470 O.3   998  GLC998     -0.2176
     11  O5        32.6410   21.3370   28.1380 O.3   998  GLC998     -0.3236
     12  O6        32.4060   18.6410   27.1680 O.3   998  GLC998     -0.2176
@<TRIPOS>BOND
     1     9     3    1
     2    10     4    1
     3     3     4    1
     4     3     2    1
     5     4     5    1
     6     8     2    1
     7     2     1    1
     8    12     6    1
     9     5     6    1
    10     5    11    1
    11     1    11    1
    12     1     7    1
