@<TRIPOS>MOLECULE
2gpb_PLP_A_1.pdb
 15 15 0 0 0
SMALL
GASTEIGER

@<TRIPOS>ATOM
      1  N1        24.6730   25.6700   30.1960 N.ar  999  PLP999     -0.2452
      2  C2        23.5540   24.9060   30.4150 C.ar  999  PLP999      0.0978
      3  C2A       22.5050   25.3810   31.4100 C.3   999  PLP999      0.0555
      4  C3        23.3900   23.7160   29.7820 C.ar  999  PLP999      0.2049
      5  O3        22.2810   22.9550   30.0710 O.3   999  PLP999     -0.2857
      6  C4        24.3380   23.2780   28.9000 C.ar  999  PLP999      0.0182
      7  C4A       24.1560   21.9470   28.1920 C.3   999  PLP999      0.0342
      8  C5        25.4650   24.0540   28.6500 C.ar  999  PLP999      0.0261
      9  C6        25.6340   25.2360   29.3170 C.ar  999  PLP999      0.0965
     10  C5A       26.3970   23.7420   27.4580 C.3   999  PLP999      0.1815
     11  O4P       26.0120   24.4300   26.2490 O.3   999  PLP999     -0.2653
     12  P         27.0600   24.6320   25.0750 P.3   999  PLP999      0.5329
     13  O1P       27.8190   23.4100   24.9470 O.3   999  PLP999     -0.1145
     14  O2P       26.2830   25.1580   23.9450 O.2   999  PLP999     -0.2224
     15  O3P       28.1080   25.7720   25.4630 O.3   999  PLP999     -0.1145
@<TRIPOS>BOND
     1    14    12    2
     2    13    12    1
     3    12    15    1
     4    12    11    1
     5    11    10    1
     6    10     8    1
     7     7     6    1
     8     8     6   ar
     9     8     9   ar
    10     6     4   ar
    11     9     1   ar
    12     4     5    1
    13     4     2   ar
    14     1     2   ar
    15     2     3    1
