@<TRIPOS>MOLECULE
2gpb_GLC_A_1.pdb
 12 12 0 0 0
SMALL
GASTEIGER

@<TRIPOS>ATOM
      1  C1        33.6700   22.6900   27.7750 C.3   910  GLC910      0.3024
      2  C2        33.8800   22.9230   26.2470 C.3   910  GLC910      0.2434
      3  C3        32.7030   22.3360   25.4280 C.3   910  GLC910      0.2199
      4  C4        32.4520   20.8780   25.8610 C.3   910  GLC910      0.2144
      5  C5        32.1820   20.8370   27.4160 C.3   910  GLC910      0.1836
      6  C6        31.9470   19.4280   27.9240 C.3   910  GLC910      0.2142
      7  O1        32.6490   23.5380   28.2220 O.3   910  GLC910     -0.1869
      8  O2        33.9590   24.3110   26.0160 O.3   910  GLC910     -0.2148
      9  O3        32.9850   22.4030   24.0560 O.3   910  GLC910     -0.2174
     10  O4        31.3820   20.2940   25.1520 O.3   910  GLC910     -0.2176
     11  O5        33.3190   21.3500   28.1200 O.3   910  GLC910     -0.3236
     12  O6        33.0300   18.6180   27.4860 O.3   910  GLC910     -0.2176
@<TRIPOS>BOND
     1     9     3    1
     2    10     4    1
     3     3     4    1
     4     3     2    1
     5     4     5    1
     6     8     2    1
     7     2     1    1
     8     5     6    1
     9     5    11    1
    10    12     6    1
    11     1    11    1
    12     1     7    1
