@<TRIPOS>MOLECULE
2gpl_BIQ_H_1.pdb
 48 51 0 0 0
SMALL
GASTEIGER

@<TRIPOS>ATOM
      1  C1        57.1020 -135.6620   28.2380 C.ar  1000  BIQ1000    -0.0007
      2  C2        58.1450 -134.7250   28.0040 C.ar  1000  BIQ1000     0.0213
      3  C3        59.4830 -134.8490   28.7710 C.3   1000  BIQ1000     0.2368
      4  O4        59.5380 -134.0730   30.0120 O.3   1000  BIQ1000    -0.4285
      5  C5        58.8520 -134.5540   31.1300 C.2   1000  BIQ1000     0.4225
      6  N6        59.1170 -133.7580   32.2730 N.am  1000  BIQ1000    -0.1520
      7  C7        58.6780 -134.0880   33.6750 C.3   1000  BIQ1000     0.2198
      8  C8        59.3380 -135.4020   34.1350 C.1   1000  BIQ1000     0.2008
      9  O9        58.7840 -136.4420   33.8250 O.2   1000  BIQ1000    -0.2124
     10  N10       60.5290 -135.5400   34.8180 N.2   1000  BIQ1000    -0.3272
     11  C11       61.4170 -134.5540   35.4720 C.2   1000  BIQ1000     0.2124
     12  C12       62.1170 -133.3200   34.8690 C.3   1000  BIQ1000     0.1605
     13  C13       63.4300 -133.5550   34.1930 C.2   1000  BIQ1000     0.2687
     14  N14       63.4990 -134.4190   33.1890 N.am  1000  BIQ1000    -0.0874
     15  O15       64.4000 -132.9160   34.5750 O.2   1000  BIQ1000    -0.2712
     16  C16       61.1960 -134.5000   36.9710 C.1   1000  BIQ1000     0.1780
     17  O17       60.3170 -133.7900   37.3760 O.2   1000  BIQ1000    -0.2199
     18  N18       61.8010 -135.4550   37.6940 N.2   1000  BIQ1000    -0.1929
     19  C19       61.5270 -135.6900   39.1140 C.3   1000  BIQ1000     0.1965
     20  C20       62.8550 -135.5620   39.7960 C.2   1000  BIQ1000     0.2649
     21  O21       63.8460 -136.1490   39.3340 O.2   1000  BIQ1000    -0.2712
     22  N22       62.8400 -134.7440   40.8760 N.am  1000  BIQ1000    -0.2038
     23  C23       63.9440 -134.3820   41.7410 C.3   1000  BIQ1000     0.1152
     24  C24       63.3160 -133.3940   42.7700 C.3   1000  BIQ1000     0.0234
     25  C25       64.3090 -132.8820   43.7980 C.3   1000  BIQ1000     0.0019
     26  C26       60.8730 -137.0440   39.5120 C.3   1000  BIQ1000     0.0610
     27  C27       59.4780 -137.1680   38.9320 C.ar  1000  BIQ1000    -0.0195
     28  C28       58.3510 -136.6510   39.6250 C.ar  1000  BIQ1000    -0.0011
     29  C29       57.0490 -136.7450   39.0710 C.ar  1000  BIQ1000     0.0372
     30  C30       56.8550 -137.3460   37.8010 C.ar  1000  BIQ1000     0.1454
     31  O31       55.5900 -137.1960   37.1350 O.3   1000  BIQ1000    -0.4518
     32  C32       55.4560 -135.8760   36.5200 C.ar  1000  BIQ1000     0.1673
     33  C33       56.3350 -135.5460   35.4560 C.ar  1000  BIQ1000     0.0350
     34  C34       56.1700 -134.3910   34.6730 C.ar  1000  BIQ1000    -0.0161
     35  C35       55.0770 -133.5270   34.9660 C.ar  1000  BIQ1000    -0.0023
     36  C36       54.1780 -133.8180   36.0130 C.ar  1000  BIQ1000     0.0269
     37  C37       54.3350 -134.9830   36.8170 C.ar  1000  BIQ1000     0.1771
     38  N38       53.4170 -135.2070   37.8370 N.pl3 1000  BIQ1000     0.0607
     39  O39       52.9700 -134.2010   38.4460 O.2   1000  BIQ1000    -0.1260
     40  O40       53.0750 -136.3580   38.0970 O.2   1000  BIQ1000    -0.1260
     41  C41       57.1180 -134.0590   33.5070 C.3   1000  BIQ1000     0.0664
     42  C42       57.9960 -137.8930   37.0950 C.ar  1000  BIQ1000     0.0372
     43  C43       59.3000 -137.7930   37.6700 C.ar  1000  BIQ1000    -0.0011
     44  O44       58.1860 -135.5970   31.1220 O.2   1000  BIQ1000    -0.2245
     45  C45       57.9390 -133.6710   27.0580 C.ar  1000  BIQ1000    -0.0007
     46  C46       56.6860 -133.5610   26.3800 C.ar  1000  BIQ1000    -0.0002
     47  C47       55.6520 -134.5000   26.6360 C.ar  1000  BIQ1000    -0.0000
     48  C48       55.8600 -135.5510   27.5650 C.ar  1000  BIQ1000    -0.0002
@<TRIPOS>BOND
     1    46    47   ar
     2    46    45   ar
     3    47    48   ar
     4    45     2   ar
     5    48     1   ar
     6     2     1   ar
     7     2     3    1
     8     3     4    1
     9     4     5    1
    10    44     5    2
    11     5     6   am
    12     6     7    1
    13    14    13   am
    14    41     7    1
    15    41    34    1
    16     7     8    1
    17     9     8    2
    18     8    10    2
    19    13    15    2
    20    13    12    1
    21    34    35   ar
    22    34    33   ar
    23    10    11    2
    24    12    11    1
    25    35    36   ar
    26    33    32   ar
    27    11    16    1
    28    36    37   ar
    29    32    37   ar
    30    32    31    1
    31    37    38    1
    32    16    17    2
    33    16    18    2
    34    42    43   ar
    35    42    30   ar
    36    31    30    1
    37    43    27   ar
    38    18    19    1
    39    30    29   ar
    40    38    40    2
    41    38    39    2
    42    27    26    1
    43    27    28   ar
    44    29    28   ar
    45    19    26    1
    46    19    20    1
    47    21    20    2
    48    20    22   am
    49    22    23    1
    50    23    24    1
    51    24    25    1
