@<TRIPOS>MOLECULE
2gpp_1BA_A_1.pdb
 21 22 0 0 0
SMALL
GASTEIGER

@<TRIPOS>ATOM
      1  N1       -53.3290  121.8760    1.9500 N.3   459  1BA459     -0.1033
      2  C4       -51.6320  118.5440    5.4370 C.ar  459  1BA459     -0.0225
      3  C5       -53.0070  118.5670    5.4900 C.ar  459  1BA459     -0.0046
      4  C6       -53.7010  119.3920    4.6320 C.ar  459  1BA459     -0.0031
      5  C7       -53.0340  120.1940    3.7310 C.ar  459  1BA459     -0.0029
      6  C8       -53.8220  121.0710    2.8430 C.3   459  1BA459      0.1398
      7  C10      -54.7030  124.5600   -0.1350 C.ar  459  1BA459      0.0566
      8  C13      -56.3330  126.5250   -1.0340 C.ar  459  1BA459      0.1957
      9  C15      -54.9730  124.6460   -1.4780 C.ar  459  1BA459      0.0079
     10  C17      -50.9810  119.3480    4.5360 C.ar  459  1BA459     -0.0046
     11  C1       -50.1640  118.4200    7.4610 C.3   459  1BA459      0.0047
     12  C2       -50.7790  117.6680    6.3070 C.3   459  1BA459      0.0224
     13  C3       -51.5370  116.4660    6.8320 C.3   459  1BA459      0.0047
     14  N2       -54.2650  122.5990    1.2530 N.am  459  1BA459     -0.1074
     15  C9       -53.8050  123.4920    0.3050 C.2   459  1BA459      0.2810
     16  O1       -52.7010  123.4780   -0.2100 O.2   459  1BA459     -0.2669
     17  C11      -55.2350  125.4480    0.7690 C.ar  459  1BA459      0.0079
     18  C12      -56.0650  126.4490    0.3150 C.ar  459  1BA459      0.0422
     19  O2       -57.1570  127.5150   -1.5070 O.3   459  1BA459     -0.2866
     20  C14      -55.7990  125.6380   -1.9380 C.ar  459  1BA459      0.0422
     21  C16      -51.6670  120.1790    3.6830 C.ar  459  1BA459     -0.0031
@<TRIPOS>BOND
     1    20     9   ar
     2    20     8   ar
     3    19     8    1
     4     9     7   ar
     5     8    18   ar
     6    16    15    2
     7     7    15    1
     8     7    17   ar
     9    15    14   am
    10    18    17   ar
    11    14     1    1
    12     1     6    1
    13     6     5    1
    14    21     5   ar
    15    21    10   ar
    16     5     4   ar
    17    10     2   ar
    18     4     3   ar
    19     2     3   ar
    20     2    12    1
    21    12    13    1
    22    12    11    1
