@<TRIPOS>MOLECULE
2gpt_SKM_A_1.pdb
 12 12 0 0 0
SMALL
GASTEIGER

@<TRIPOS>ATOM
      1  O12       36.0830   40.0020   86.3870 O.3   4733  SKM4733    -0.2173
      2  C8        36.7900   41.0470   85.7100 C.3   4733  SKM4733     0.2167
      3  C6        37.1340   40.5990   84.2600 C.3   4733  SKM4733     0.1896
      4  O7        37.9270   39.4080   84.2800 O.3   4733  SKM4733    -0.2200
      5  C5        37.9060   41.7130   83.5230 C.3   4733  SKM4733     0.0684
      6  C4        37.2440   43.0650   83.6800 C.2   4733  SKM4733     0.0584
      7  C1        37.5980   44.1240   82.7120 C.2   4733  SKM4733     0.3837
      8  O2        38.4800   43.8620   81.7340 O.co2 4733  SKM4733    -0.2409
      9  O3        37.1000   45.2340   82.7880 O.co2 4733  SKM4733    -0.2409
     10  C10       36.3660   43.3450   84.6480 C.2   4733  SKM4733     0.0111
     11  C9        35.9180   42.3510   85.7010 C.3   4733  SKM4733     0.2066
     12  O11       34.5480   42.0100   85.4440 O.3   4733  SKM4733    -0.2155
@<TRIPOS>BOND
     1     8     7   ar
     2     7     9   ar
     3     7     6    1
     4     5     6    1
     5     5     3    1
     6     6    10    2
     7     3     4    1
     8     3     2    1
     9    10    11    1
    10    12    11    1
    11    11     2    1
    12     2     1    1
