@<TRIPOS>MOLECULE
2gpu_OHT_A_1.pdb
 29 31 0 0 0
SMALL
GASTEIGER

@<TRIPOS>ATOM
      1  C10       61.0860   48.1380   31.0230 C.3   459  OHT459      0.0050
      2  C9        60.7850   47.0290   30.0390 C.3   459  OHT459      0.0264
      3  C8        61.5950   47.0690   28.7840 C.2   459  OHT459     -0.0222
      4  C11       63.0040   46.8070   29.0310 C.ar  459  OHT459     -0.0040
      5  C16       63.5240   45.5760   29.3800 C.ar  459  OHT459     -0.0003
      6  C15       64.8770   45.4530   29.6060 C.ar  459  OHT459     -0.0000
      7  C14       65.7180   46.5410   29.5060 C.ar  459  OHT459     -0.0000
      8  C13       65.1950   47.7700   29.1740 C.ar  459  OHT459     -0.0000
      9  C12       63.8480   47.8900   28.9450 C.ar  459  OHT459     -0.0003
     10  C7        61.1180   47.3430   27.5460 C.2   459  OHT459     -0.0040
     11  C1        59.7290   47.7160   27.2540 C.ar  459  OHT459     -0.0001
     12  C2        58.9840   47.0850   26.2700 C.ar  459  OHT459      0.0033
     13  C3        57.6990   47.4890   25.9750 C.ar  459  OHT459      0.0420
     14  C4        57.1420   48.5640   26.6340 C.ar  459  OHT459      0.1957
     15  O4        55.8530   48.9630   26.3100 O.3   459  OHT459     -0.2866
     16  C5        57.8700   49.2280   27.6070 C.ar  459  OHT459      0.0420
     17  C6        59.1560   48.8020   27.8860 C.ar  459  OHT459      0.0033
     18  C17       61.9610   47.3300   26.3460 C.ar  459  OHT459     -0.0001
     19  C18       62.0230   48.3880   25.4500 C.ar  459  OHT459      0.0031
     20  C19       62.8010   48.3060   24.3100 C.ar  459  OHT459      0.0369
     21  C20       63.5070   47.1600   24.0100 C.ar  459  OHT459      0.1386
     22  O20       64.3300   46.9780   22.8970 O.3   459  OHT459     -0.4740
     23  C23       63.7730   47.3310   21.6470 C.3   459  OHT459      0.2226
     24  C24       64.9190   47.3890   20.6530 C.3   459  OHT459      0.1201
     25  N24       64.9040   46.1820   19.7930 N.3   459  OHT459     -0.2672
     26  C25       65.1910   44.9370   20.5580 C.3   459  OHT459      0.0898
     27  C26       65.7600   46.3430   18.5860 C.3   459  OHT459      0.0898
     28  C21       63.4370   46.1000   24.8860 C.ar  459  OHT459      0.0369
     29  C22       62.6660   46.1880   26.0270 C.ar  459  OHT459      0.0031
@<TRIPOS>BOND
     1    27    25    1
     2    25    26    1
     3    25    24    1
     4    24    23    1
     5    23    22    1
     6    22    21    1
     7    21    20   ar
     8    21    28   ar
     9    20    19   ar
    10    28    29   ar
    11    19    18   ar
    12    13    12   ar
    13    13    14   ar
    14    29    18   ar
    15    12    11   ar
    16    15    14    1
    17    18    10    1
    18    14    16   ar
    19    11    10    1
    20    11    17   ar
    21    10     3    2
    22    16    17   ar
    23     3     4    1
    24     3     2    1
    25     9     4   ar
    26     9     8   ar
    27     4     5   ar
    28     8     7   ar
    29     5     6   ar
    30     7     6   ar
    31     2     1    1
