@<TRIPOS>MOLECULE
2gpv_OHT_A_1.pdb
 29 31 0 0 0
SMALL
GASTEIGER

@<TRIPOS>ATOM
      1  C10       35.3600    0.9870   55.1960 C.3   500  OHT500      0.0050
      2  C9        35.7810    2.4260   55.0170 C.3   500  OHT500      0.0264
      3  C8        34.6180    3.2640   54.6110 C.2   500  OHT500     -0.0222
      4  C11       33.3870    2.9750   55.3610 C.ar  500  OHT500     -0.0040
      5  C16       33.2550    3.3010   56.6950 C.ar  500  OHT500     -0.0003
      6  C15       32.0770    3.0090   57.3600 C.ar  500  OHT500     -0.0000
      7  C14       31.0320    2.3900   56.7040 C.ar  500  OHT500     -0.0000
      8  C13       31.1610    2.0580   55.3770 C.ar  500  OHT500     -0.0000
      9  C12       32.3340    2.3500   54.7190 C.ar  500  OHT500     -0.0003
     10  C7        34.6330    4.2180   53.6550 C.2   500  OHT500     -0.0040
     11  C1        35.7840    4.5650   52.8340 C.ar  500  OHT500     -0.0001
     12  C2        36.1550    5.8900   52.7560 C.ar  500  OHT500      0.0033
     13  C3        37.2230    6.2600   51.9820 C.ar  500  OHT500      0.0420
     14  C4        37.9060    5.2940   51.2800 C.ar  500  OHT500      0.1957
     15  O4        38.9830    5.6560   50.4940 O.3   500  OHT500     -0.2866
     16  C5        37.5370    3.9730   51.3410 C.ar  500  OHT500      0.0420
     17  C6        36.4660    3.6070   52.1190 C.ar  500  OHT500      0.0033
     18  C17       33.4110    4.9320   53.3940 C.ar  500  OHT500     -0.0001
     19  C18       32.8300    4.8420   52.1510 C.ar  500  OHT500      0.0031
     20  C19       31.6620    5.5140   51.8890 C.ar  500  OHT500      0.0369
     21  C20       31.1010    6.2800   52.8860 C.ar  500  OHT500      0.1386
     22  O20       29.9190    6.9930   52.7460 O.3   500  OHT500     -0.4740
     23  C23       29.8230    7.6140   51.4830 C.3   500  OHT500      0.2226
     24  C24       28.5170    8.3570   51.5600 C.3   500  OHT500      0.1201
     25  N24       28.6540    9.5590   50.7310 N.3   500  OHT500     -0.2672
     26  C25       27.4340   10.3900   50.8560 C.3   500  OHT500      0.0898
     27  C26       28.9340    9.1620   49.3260 C.3   500  OHT500      0.0898
     28  C21       31.6920    6.3670   54.1250 C.ar  500  OHT500      0.0369
     29  C22       32.8550    5.6950   54.3860 C.ar  500  OHT500      0.0031
@<TRIPOS>BOND
     1    27    25    1
     2    15    14    1
     3    25    26    1
     4    25    24    1
     5    14    16   ar
     6    14    13   ar
     7    16    17   ar
     8    23    24    1
     9    23    22    1
    10    20    19   ar
    11    20    21   ar
    12    13    12   ar
    13    17    11   ar
    14    19    18   ar
    15    22    21    1
    16    12    11   ar
    17    11    10    1
    18    21    28   ar
    19    18    10    1
    20    18    29   ar
    21    10     3    2
    22    28    29   ar
    23     3     2    1
    24     3     4    1
    25     9     4   ar
    26     9     8   ar
    27     2     1    1
    28     4     5   ar
    29     8     7   ar
    30     5     6   ar
    31     7     6   ar
