@<TRIPOS>MOLECULE
2gq2_NAP_A_1.pdb
 48 52 0 0 0
SMALL
GASTEIGER

@<TRIPOS>ATOM
      1  PA        28.5130    1.1050   24.3140 P.3   300  NAP300      0.2189
      2  O1A       29.3070    1.2600   23.0880 O.2   300  NAP300     -0.5170
      3  O2A       28.0450   -0.2640   24.5790 O.3   300  NAP300     -0.4371
      4  O5B       27.2540    2.1190   24.2410 O.3   300  NAP300     -0.3112
      5  C5B       27.4860    3.5020   24.0940 C.3   300  NAP300      0.1813
      6  C4B       26.7490    4.3780   25.1180 C.3   300  NAP300      0.1820
      7  O4B       25.3540    4.1130   25.1240 O.3   300  NAP300     -0.3136
      8  C3B       27.2220    4.1770   26.5500 C.3   300  NAP300      0.2157
      9  O3B       28.3520    4.9560   26.8420 O.3   300  NAP300     -0.2175
     10  C2B       26.0250    4.6170   27.3640 C.3   300  NAP300      0.2314
     11  O2B       26.0090    6.0420   27.4450 O.3   300  NAP300     -0.2630
     12  C1B       24.8890    4.1420   26.4640 C.3   300  NAP300      0.3158
     13  N9A       24.2730    2.8160   26.7350 N.pl3 300  NAP300     -0.1439
     14  C8A       24.4070    1.7190   25.9190 C.3   300  NAP300      0.3377
     15  N7A       23.6840    0.7050   26.4330 N.2   300  NAP300     -0.2095
     16  C5A       23.0710    1.1400   27.5590 C.2   300  NAP300      0.2526
     17  C6A       22.2090    0.5230   28.4540 C.2   300  NAP300      0.4393
     18  N6A       21.8620   -0.7460   28.2790 N.pl3 300  NAP300      0.2180
     19  N1A       21.7220    1.2130   29.5460 N.2   300  NAP300      0.0021
     20  C2A       22.0710    2.5230   29.7450 C.3   300  NAP300      0.5254
     21  N3A       22.9150    3.1470   28.8410 N.2   300  NAP300     -0.0055
     22  C4A       23.4210    2.4650   27.7630 C.2   300  NAP300      0.3518
     23  O3        29.4470    1.8160   25.4050 O.3   300  NAP300     -0.2703
     24  PN        29.9100    1.1920   26.7890 P.3   300  NAP300      0.2189
     25  O1N       28.6960    0.7190   27.4600 O.3   300  NAP300     -0.4371
     26  O2N       30.7580    2.2700   27.3250 O.2   300  NAP300     -0.5170
     27  O5D       30.8170   -0.0580   26.3270 O.3   300  NAP300     -0.3112
     28  C5D       30.5500   -1.3970   26.7220 C.3   300  NAP300      0.1813
     29  C4D       31.5940   -1.7060   27.7910 C.3   300  NAP300      0.1799
     30  O4D       31.2670   -2.6900   28.7560 O.3   300  NAP300     -0.3327
     31  C3D       32.9020   -2.1530   27.1780 C.3   300  NAP300      0.2158
     32  O3D       33.6640   -1.0160   26.8740 O.3   300  NAP300     -0.2175
     33  C2D       33.5680   -2.8840   28.3130 C.3   300  NAP300      0.2309
     34  O2D       34.6440   -2.1300   28.7990 O.3   300  NAP300     -0.2158
     35  C1D       32.5130   -2.9620   29.4040 C.3   300  NAP300      0.2263
     36  N1N       32.6510   -4.2590   30.1380 N.pl3 300  NAP300     -0.2787
     37  C2N       33.9030   -4.6570   30.5570 C.3   300  NAP300      0.1244
     38  C3N       34.1040   -5.8500   31.2480 C.2   300  NAP300      0.0544
     39  C7N       35.4950   -6.2290   31.6730 C.2   300  NAP300      0.2818
     40  O7N       36.5630   -5.3640   31.3640 O.2   300  NAP300     -0.2670
     41  N7N       35.7000   -7.3590   32.3370 N.am  300  NAP300     -0.0839
     42  C4N       33.0140   -6.6590   31.5430 C.2   300  NAP300      0.0033
     43  C5N       31.7590   -6.2540   31.1280 C.2   300  NAP300      0.0157
     44  C6N       31.5780   -5.0510   30.4360 C.2   300  NAP300      0.0633
     45  P2B       25.9270    7.0920   28.7290 P.3   300  NAP300      0.5328
     46  O1X       24.5080    7.5980   28.8460 O.3   300  NAP300     -0.1145
     47  O2X       26.3140    6.5880   30.1010 O.3   300  NAP300     -0.1145
     48  O3X       26.8150    8.2870   28.4500 O.2   300  NAP300     -0.2224
@<TRIPOS>BOND
     1     2     1    2
     2     5     4    1
     3     5     6    1
     4     4     1    1
     5     1     3    1
     6     1    23    1
     7     6     7    1
     8     6     8    1
     9     7    12    1
    10    23    24    1
    11    14    15    1
    12    14    13    1
    13    27    28    1
    14    27    24    1
    15    15    16    2
    16    12    13    1
    17    12    10    1
    18     8     9    1
    19     8    10    1
    20    28    29    1
    21    13    22    1
    22    24    26    2
    23    24    25    1
    24    32    31    1
    25    31    29    1
    26    31    33    1
    27    10    11    1
    28    11    45    1
    29    16    22    1
    30    16    17    1
    31    22    21    2
    32    29    30    1
    33    18    17    1
    34    33    34    1
    35    33    35    1
    36    48    45    2
    37    17    19    2
    38    45    46    1
    39    45    47    1
    40    30    35    1
    41    21    20    1
    42    35    36    1
    43    19    20    1
    44    36    44    1
    45    36    37    1
    46    44    43    2
    47    37    38    1
    48    43    42    1
    49    38    42    2
    50    38    39    1
    51    40    39    2
    52    39    41   am
