@<TRIPOS>MOLECULE
2gq3_COA_A_1.pdb
 48 50 0 0 0
SMALL
GASTEIGER

@<TRIPOS>ATOM
      1  N1A       51.1610   21.0470   79.0810 N.2   800  COA800      0.0021
      2  C2A       50.9890   19.7620   78.6920 C.3   800  COA800      0.5254
      3  N3A       49.7470   19.1850   78.7560 N.2   800  COA800     -0.0055
      4  C4A       48.7150   19.9120   79.2210 C.2   800  COA800      0.3518
      5  C5A       48.8610   21.2450   79.6240 C.2   800  COA800      0.2526
      6  C6A       50.1460   21.8300   79.5390 C.2   800  COA800      0.4393
      7  N6A       50.4620   23.0660   79.9470 N.pl3 800  COA800      0.2180
      8  N7A       47.6390   21.6530   80.0170 N.2   800  COA800     -0.2095
      9  C8A       46.7520   20.6510   79.8110 C.3   800  COA800      0.3377
     10  N9A       47.4250   19.5510   79.3610 N.pl3 800  COA800     -0.1439
     11  C1B       46.9680   18.2460   78.9010 C.3   800  COA800      0.3185
     12  C2B       47.3250   17.2040   79.9490 C.3   800  COA800      0.2543
     13  O2B       48.6020   16.6120   79.7670 O.3   800  COA800     -0.2131
     14  C3B       46.1330   16.2440   79.9280 C.3   800  COA800      0.1928
     15  O3B       46.2590   15.3830   78.8210 O.3   800  COA800     -0.2673
     16  P3B       46.6290   13.8230   79.0740 P.3   800  COA800      0.5327
     17  O7A       47.6800   13.7810   80.1490 O.3   800  COA800     -0.1145
     18  O8A       47.0160   13.0920   77.8040 O.2   800  COA800     -0.2224
     19  O9A       45.3930   13.1380   79.5800 O.3   800  COA800     -0.1145
     20  C4B       44.9930   17.2000   79.6490 C.3   800  COA800      0.1795
     21  O4B       45.5600   18.2170   78.8270 O.3   800  COA800     -0.3136
     22  C5B       44.3660   17.8220   80.8990 C.3   800  COA800      0.1812
     23  O5B       43.6330   18.9120   80.4090 O.3   800  COA800     -0.3112
     24  P1A       42.2610   19.3770   81.0960 P.3   800  COA800      0.2189
     25  O1A       41.7850   20.6550   80.4850 O.2   800  COA800     -0.5170
     26  O2A       41.1650   18.3270   81.0170 O.3   800  COA800     -0.4371
     27  O3A       42.7330   19.3990   82.6580 O.3   800  COA800     -0.2703
     28  P2A       43.1780   20.5830   83.6700 P.3   800  COA800      0.2188
     29  O4A       41.9490   21.3360   84.2040 O.2   800  COA800     -0.5170
     30  O5A       43.8680   19.8950   84.8270 O.3   800  COA800     -0.4371
     31  O6A       44.2590   21.5510   82.8990 O.3   800  COA800     -0.3138
     32  CBP       45.1080   23.8520   83.2590 C.3   800  COA800      0.0645
     33  CCP       44.0580   22.9230   82.6500 C.3   800  COA800      0.1519
     34  CDP       45.3340   23.5400   84.7400 C.3   800  COA800      0.0056
     35  CEP       44.5260   25.2580   83.1360 C.3   800  COA800      0.0056
     36  CAP       46.3900   23.6960   82.4070 C.3   800  COA800      0.2312
     37  OAP       46.1030   23.7300   81.0010 O.3   800  COA800     -0.2131
     38  C9P       47.8110   23.9480   82.9690 C.2   800  COA800      0.2719
     39  O9P       48.0860   23.5420   84.3080 O.2   800  COA800     -0.2706
     40  N8P       48.8190   24.4460   82.1800 N.am  800  COA800     -0.2028
     41  C7P       49.2350   25.7560   81.6280 C.3   800  COA800      0.1248
     42  C6P       49.0990   27.0380   82.4750 C.3   800  COA800      0.1102
     43  C5P       50.3910   27.6500   82.9870 C.2   800  COA800      0.2432
     44  O5P       51.3930   26.9280   82.9570 O.2   800  COA800     -0.2733
     45  N4P       50.4290   28.9120   83.4770 N.am  800  COA800     -0.2044
     46  C3P       49.2910   29.5560   84.1260 C.3   800  COA800      0.1276
     47  C2P       48.5940   30.5850   83.1790 C.3   800  COA800      0.0920
     48  S1P       46.9740   31.2520   83.7170 S.3   800  COA800     -0.0802
@<TRIPOS>BOND
     1    18    16    2
     2     2     3    1
     3     2     1    1
     4     3     4    2
     5    15    16    1
     6    15    14    1
     7    21    11    1
     8    21    20    1
     9    11    10    1
    10    11    12    1
    11    16    19    1
    12    16    17    1
    13     1     6    2
    14     4    10    1
    15     4     5    1
    16    10     9    1
    17     6     5    1
    18     6     7    1
    19     5     8    2
    20    20    14    1
    21    20    22    1
    22    13    12    1
    23     9     8    1
    24    14    12    1
    25    23    22    1
    26    23    24    1
    27    25    24    2
    28    37    36    1
    29    26    24    1
    30    24    27    1
    31    41    40    1
    32    41    42    1
    33    40    38   am
    34    36    38    1
    35    36    32    1
    36    42    43    1
    37    33    31    1
    38    33    32    1
    39    27    28    1
    40    31    28    1
    41    44    43    2
    42    38    39    2
    43    43    45   am
    44    35    32    1
    45    47    48    1
    46    47    46    1
    47    32    34    1
    48    45    46    1
    49    28    29    2
    50    28    30    1
