@<TRIPOS>MOLECULE
2gq8_AC6_A_1.pdb
 10 10 0 0 0
SMALL
GASTEIGER

@<TRIPOS>ATOM
      1  C1        -1.7430    0.0040   -2.6540 C.ar  3097  AC63097     0.1957
      2  C2        -2.6360   -1.1860   -3.1030 C.ar  3097  AC63097     0.0418
      3  C3        -3.5370   -1.5620   -2.1020 C.ar  3097  AC63097     0.0014
      4  C4        -3.7250   -0.9180   -0.8600 C.ar  3097  AC63097     0.0079
      5  C5        -2.8340    0.1230   -0.5390 C.ar  3097  AC63097     0.0014
      6  C6        -1.8280    0.6020   -1.3890 C.ar  3097  AC63097     0.0418
      7  O1        -0.8240    0.2410   -3.6050 O.3   3097  AC63097    -0.2866
      8  O2        -5.6020   -2.1720   -0.2720 O.3   3097  AC63097    -0.2183
      9  C7        -4.7450   -1.1180    0.1250 C.3   3097  AC63097     0.1743
     10  C8        -5.2060   -0.5070    1.4480 C.3   3097  AC63097     0.0405
@<TRIPOS>BOND
     1     7     1    1
     2     2     1   ar
     3     2     3   ar
     4     1     6   ar
     5     3     4   ar
     6     6     5   ar
     7     4     5   ar
     8     4     9    1
     9     8     9    1
    10     9    10    1
