@<TRIPOS>MOLECULE
2gq8_FMN_A_1.pdb
 31 33 0 0 0
SMALL
GASTEIGER

@<TRIPOS>ATOM
      1  N1         0.8880   -2.2900   -2.9660 N.2   1401  FMN1401    -0.2890
      2  C2         1.7020   -1.1670   -2.6840 C.1   1401  FMN1401     0.3669
      3  O2         2.4240   -0.6830   -3.4940 O.2   1401  FMN1401    -0.1744
      4  N3         1.5540   -0.5740   -1.3970 N.2   1401  FMN1401    -0.2300
      5  C4         0.9840   -1.1830   -0.3380 C.1   1401  FMN1401     0.2513
      6  O4         0.6880   -0.5130    0.8440 O.2   1401  FMN1401    -0.2057
      7  C4A       -0.0470   -2.2810   -0.6260 C.2   1401  FMN1401     0.2700
      8  N5        -1.0070   -2.6950    0.2490 N.2   1401  FMN1401    -0.3878
      9  C5A       -1.5870   -3.9050   -0.0080 C.2   1401  FMN1401     0.1320
     10  C6        -2.4810   -4.4260    1.1150 C.2   1401  FMN1401     0.0250
     11  C7        -3.0500   -5.7390    0.9120 C.2   1401  FMN1401    -0.0238
     12  C7M       -3.6630   -6.4140    2.1270 C.3   1401  FMN1401     0.0308
     13  C8        -2.7250   -6.5920   -0.1950 C.2   1401  FMN1401    -0.0280
     14  C8M       -3.2040   -8.0040   -0.6270 C.3   1401  FMN1401     0.0304
     15  C9        -2.0240   -6.0400   -1.3120 C.2   1401  FMN1401    -0.0041
     16  C9A       -1.4350   -4.6290   -1.2800 C.3   1401  FMN1401     0.1497
     17  N10       -0.5320   -4.0200   -2.2270 N.pl3 1401  FMN1401    -0.2691
     18  C10        0.1780   -2.8580   -2.0000 C.2   1401  FMN1401     0.2416
     19  C1'       -0.3100   -4.6730   -3.5320 C.3   1401  FMN1401     0.1294
     20  C2'        0.7580   -5.7530   -3.3500 C.3   1401  FMN1401     0.2044
     21  O2'        2.0460   -5.2080   -3.0830 O.3   1401  FMN1401    -0.2185
     22  C3'        0.8390   -6.6560   -4.5930 C.3   1401  FMN1401     0.2164
     23  O3'        1.3170   -5.8930   -5.7310 O.3   1401  FMN1401    -0.2175
     24  C4'       -0.4370   -7.3770   -4.9680 C.3   1401  FMN1401     0.2147
     25  O4'       -1.0340   -7.9990   -3.8010 O.3   1401  FMN1401    -0.2176
     26  C5'       -0.3290   -8.3720   -6.1000 C.3   1401  FMN1401     0.1892
     27  O5'        0.5090   -9.4810   -5.7300 O.3   1401  FMN1401    -0.2674
     28  P         -0.1140  -10.8740   -5.2440 P.3   1401  FMN1401     0.5327
     29  O1P       -0.7700  -10.6570   -3.9210 O.3   1401  FMN1401    -0.1145
     30  O2P       -1.0480  -11.3680   -6.3100 O.2   1401  FMN1401    -0.2224
     31  O3P        1.1440  -11.7910   -5.1470 O.3   1401  FMN1401    -0.1145
@<TRIPOS>BOND
     1    30    28    2
     2    26    27    1
     3    26    24    1
     4    23    22    1
     5    27    28    1
     6    28    31    1
     7    28    29    1
     8    24    22    1
     9    24    25    1
    10    22    20    1
    11    19    20    1
    12    19    17    1
    13     3     2    2
    14    20    21    1
    15     1     2    2
    16     1    18    2
    17     2     4    2
    18    17    18    1
    19    17    16    1
    20    18     7    1
    21     4     5    2
    22    15    16    1
    23    15    13    2
    24    16     9    1
    25    14    13    1
    26     7     5    1
    27     7     8    2
    28     5     6    2
    29    13    11    1
    30     9     8    2
    31     9    10    1
    32    11    10    2
    33    11    12    1
