@<TRIPOS>MOLECULE
2gq9_FMN_A_1.pdb
 31 33 0 0 0
SMALL
GASTEIGER

@<TRIPOS>ATOM
      1  N1         0.8660   -2.3550   -2.8750 N.2   401  FMN401     -0.2887
      2  C2         1.6050   -1.1790   -2.6200 C.1   401  FMN401      0.3669
      3  O2         2.2580   -0.6500   -3.4660 O.2   401  FMN401     -0.1744
      4  N3         1.5780   -0.6640   -1.2690 N.2   401  FMN401     -0.2300
      5  C4         0.8960   -1.1890   -0.2070 C.1   401  FMN401      0.2513
      6  O4         0.8640   -0.6200    0.8660 O.2   401  FMN401     -0.2057
      7  C4A        0.0270   -2.3570   -0.4910 C.2   401  FMN401      0.2703
      8  N5        -0.9210   -2.7740    0.4190 N.2   401  FMN401     -0.3882
      9  C5A       -1.5090   -3.9930    0.1890 C.2   401  FMN401      0.1277
     10  C6        -2.3220   -4.6060    1.2730 C.3   401  FMN401      0.0820
     11  C7        -2.8580   -5.9500    1.1530 C.2   401  FMN401     -0.0408
     12  C7M       -3.5870   -6.5640    2.3410 C.3   401  FMN401      0.0265
     13  C8        -2.6710   -6.6660   -0.1060 C.2   401  FMN401     -0.0280
     14  C8M       -3.1620   -8.1340   -0.2860 C.3   401  FMN401      0.0304
     15  C9        -1.9240   -6.0460   -1.1770 C.2   401  FMN401      0.0123
     16  C9A       -1.3630   -4.7490   -1.0620 C.2   401  FMN401      0.0793
     17  N10       -0.5050   -4.1040   -2.0490 N.pl3 401  FMN401     -0.2545
     18  C10        0.1410   -2.8920   -1.8960 C.2   401  FMN401      0.2449
     19  C1'       -0.3450   -4.8050   -3.3810 C.3   401  FMN401      0.1336
     20  C2'        0.7550   -5.8510   -3.2740 C.3   401  FMN401      0.2048
     21  O2'        2.0480   -5.2880   -3.0250 O.3   401  FMN401     -0.2185
     22  C3'        0.8590   -6.7580   -4.5050 C.3   401  FMN401      0.2165
     23  O3'        1.3090   -5.9980   -5.6430 O.3   401  FMN401     -0.2175
     24  C4'       -0.4740   -7.4200   -4.8420 C.3   401  FMN401      0.2147
     25  O4'       -1.0550   -8.0720   -3.6660 O.3   401  FMN401     -0.2176
     26  C5'       -0.3760   -8.4150   -5.9810 C.3   401  FMN401      0.1892
     27  O5'        0.4510   -9.5710   -5.6130 O.3   401  FMN401     -0.2674
     28  P         -0.1450  -10.9630   -5.1300 P.3   401  FMN401      0.5327
     29  O1P       -0.7870  -10.7950   -3.7920 O.3   401  FMN401     -0.1145
     30  O2P       -1.0830  -11.4480   -6.2200 O.2   401  FMN401     -0.2224
     31  O3P        1.1020  -11.8760   -5.0230 O.3   401  FMN401     -0.1145
@<TRIPOS>BOND
     1    30    28    2
     2    26    27    1
     3    26    24    1
     4    23    22    1
     5    27    28    1
     6    28    31    1
     7    28    29    1
     8    24    22    1
     9    24    25    1
    10    22    20    1
    11     3     2    2
    12    19    20    1
    13    19    17    1
    14    20    21    1
    15     1     2    2
    16     1    18    2
    17     2     4    2
    18    17    18    1
    19    17    16    1
    20    18     7    1
    21     4     5    2
    22    15    16    2
    23    15    13    1
    24    16     9    1
    25     7     5    1
    26     7     8    2
    27    14    13    1
    28     5     6    2
    29    13    11    2
    30     9     8    2
    31     9    10    1
    32    11    10    1
    33    11    12    1
