@<TRIPOS>MOLECULE
2gqa_FMN_A_1.pdb
 31 33 0 0 0
SMALL
GASTEIGER

@<TRIPOS>ATOM
      1  N1         0.7280   -2.3550   -2.8370 N.2   1401  FMN1401    -0.2887
      2  C2         1.5040   -1.2090   -2.5560 C.1   1401  FMN1401     0.3669
      3  O2         2.2360   -0.7240   -3.3660 O.2   1401  FMN1401    -0.1744
      4  N3         1.4150   -0.6690   -1.2240 N.2   1401  FMN1401    -0.2300
      5  C4         0.5440   -1.0590   -0.2510 C.1   1401  FMN1401     0.2513
      6  O4         0.6000   -0.5900    0.8660 O.2   1401  FMN1401    -0.2057
      7  C4A       -0.4130   -2.1320   -0.6230 C.2   1401  FMN1401     0.2703
      8  N5        -1.3670   -2.5910    0.2730 N.2   1401  FMN1401    -0.3882
      9  C5A       -1.8320   -3.8850    0.0840 C.2   1401  FMN1401     0.1277
     10  C6        -2.4600   -4.5160    1.2680 C.3   1401  FMN1401     0.0820
     11  C7        -2.8440   -5.9190    1.2230 C.2   1401  FMN1401    -0.0408
     12  C7M       -3.4850   -6.5900    2.4330 C.3   1401  FMN1401     0.0265
     13  C8        -2.5590   -6.6980    0.0430 C.2   1401  FMN1401    -0.0280
     14  C8M       -2.9200   -8.1830   -0.2530 C.3   1401  FMN1401     0.0304
     15  C9        -2.0960   -6.0080   -1.1300 C.2   1401  FMN1401     0.0123
     16  C9A       -1.5930   -4.6760   -1.1470 C.2   1401  FMN1401     0.0793
     17  N10       -0.7690   -4.0040   -2.1370 N.pl3 1401  FMN1401    -0.2545
     18  C10       -0.1710   -2.7810   -1.9560 C.2   1401  FMN1401     0.2449
     19  C1'       -0.5660   -4.7060   -3.4680 C.3   1401  FMN1401     0.1336
     20  C2'        0.5330   -5.7550   -3.3370 C.3   1401  FMN1401     0.2048
     21  O2'        1.8240   -5.1980   -3.0690 O.3   1401  FMN1401    -0.2185
     22  C3'        0.6780   -6.6360   -4.5760 C.3   1401  FMN1401     0.2165
     23  O3'        1.1560   -5.8610   -5.6870 O.3   1401  FMN1401    -0.2175
     24  C4'       -0.6240   -7.3040   -4.9730 C.3   1401  FMN1401     0.2147
     25  O4'       -1.2840   -7.9410   -3.8340 O.3   1401  FMN1401    -0.2176
     26  C5'       -0.4520   -8.2930   -6.1100 C.3   1401  FMN1401     0.1892
     27  O5'        0.3640   -9.4490   -5.7150 O.3   1401  FMN1401    -0.2674
     28  P         -0.2790  -10.8220   -5.2340 P.3   1401  FMN1401     0.5327
     29  O1P       -0.9240  -10.6310   -3.9110 O.3   1401  FMN1401    -0.1145
     30  O2P       -1.2310  -11.2550   -6.3300 O.2   1401  FMN1401    -0.2224
     31  O3P        0.9400  -11.7790   -5.1230 O.3   1401  FMN1401    -0.1145
@<TRIPOS>BOND
     1    30    28    2
     2    26    27    1
     3    26    24    1
     4    27    28    1
     5    23    22    1
     6    28    31    1
     7    28    29    1
     8    24    22    1
     9    24    25    1
    10    22    20    1
    11    19    20    1
    12    19    17    1
    13     3     2    2
    14    20    21    1
    15     1     2    2
    16     1    18    2
    17     2     4    2
    18    17    18    1
    19    17    16    1
    20    18     7    1
    21     4     5    2
    22    16    15    2
    23    16     9    1
    24    15    13    1
    25     7     5    1
    26     7     8    2
    27    14    13    1
    28     5     6    2
    29    13    11    2
    30     9     8    2
    31     9    10    1
    32    11    10    1
    33    11    12    1
