@<TRIPOS>MOLECULE
2gqg_1N1_A_1.pdb
 33 36 0 0 0
SMALL
GASTEIGER

@<TRIPOS>ATOM
      1  C1        46.6110   82.6200   38.8410 C.ar  501  1N1501      0.1120
      2  C2        46.7750   82.0670   40.0440 C.ar  501  1N1501      0.1065
      3  C3        47.6870   82.4940   41.1480 C.2   501  1N1501      0.2766
      4  N6        39.1540   74.8480   36.4620 N.3   501  1N1501     -0.2675
      5  C7        51.3280   84.7110   43.8460 C.ar  501  1N1501      0.0006
      6  C8        51.6490   83.9220   42.7330 C.ar  501  1N1501     -0.0029
      7  C9        50.6600   83.5350   41.8220 C.ar  501  1N1501     -0.0057
      8  C10       51.0540   82.7460   40.6060 C.3   501  1N1501      0.0324
      9  C11       43.3450   79.0450   38.8240 C.2   501  1N1501      0.2025
     10  C12       42.2600   78.4660   38.1410 C.3   501  1N1501      0.1532
     11  C13       41.6410   77.3640   38.7640 C.2   501  1N1501      0.1809
     12  C14       43.1380   77.5250   40.5610 C.1   501  1N1501      0.1168
     13  C15       43.6000   77.0970   41.9190 C.3   501  1N1501      0.1429
     14  C16       39.8200   75.5660   38.8090 C.3   501  1N1501      0.1102
     15  C19       39.9050   77.1490   36.8840 C.3   501  1N1501      0.1102
     16  C20       39.2210   73.7370   35.5030 C.3   501  1N1501      0.1082
     17  C21       38.3550   73.8890   34.2270 C.3   501  1N1501      0.1993
     18  N         43.9770   80.1180   38.2570 N.pl3 501  1N1501     -0.1613
     19  C         45.0120   80.8680   38.7420 C.ar  501  1N1501      0.1855
     20  N1        45.5400   81.9390   38.1020 N.ar  501  1N1501     -0.2208
     21  S         45.8120   80.6770   40.2960 S.2   501  1N1501     -0.0450
     22  N2        48.3930   83.6260   41.1040 N.am  501  1N1501     -0.1744
     23  C4        49.3330   83.9150   42.0370 C.ar  501  1N1501      0.0802
     24  C5        49.0210   84.6530   43.2010 C.ar  501  1N1501      0.0726
     25  C6        50.0050   85.0710   44.1070 C.ar  501  1N1501      0.0127
     26 CL         47.3940   85.0560   43.5890 Cl    501  1N1501     -0.0809
     27  O         47.7260   81.7050   42.0920 O.2   501  1N1501     -0.2674
     28  N3        42.0970   76.9050   39.9750 N.2   501  1N1501     -0.3326
     29  N4        43.7640   78.5580   40.0120 N.2   501  1N1501     -0.3308
     30  N5        40.4900   76.7170   38.1650 N.pl3 501  1N1501     -0.2831
     31  C17       39.6220   74.4100   37.7990 C.3   501  1N1501      0.0939
     32  C18       39.9110   75.9790   35.8960 C.3   501  1N1501      0.0939
     33  O1        37.4960   75.0150   34.2610 O.3   501  1N1501     -0.2189
@<TRIPOS>BOND
     1    17    33    1
     2    17    16    1
     3    16     4    1
     4    32     4    1
     5    32    15    1
     6     4    31    1
     7    15    30    1
     8    31    14    1
     9    20    19   ar
    10    20     1   ar
    11    10    11    1
    12    10     9    1
    13    30    11    1
    14    30    14    1
    15    18    19    1
    16    18     9    1
    17    19    21   ar
    18    11    28    2
    19     9    29    2
    20     1     2   ar
    21    28    12    2
    22    29    12    2
    23     2    21   ar
    24     2     3    1
    25    12    13    1
    26     8     7    1
    27    22     3   am
    28    22    23    1
    29     3    27    2
    30     7    23   ar
    31     7     6   ar
    32    23    24   ar
    33     6     5   ar
    34    24    26    1
    35    24    25   ar
    36     5    25   ar
