@<TRIPOS>MOLECULE
2gqn_BLP_A_1.pdb
 32 33 0 0 0
SMALL
GASTEIGER

@<TRIPOS>ATOM
      1  O8       -12.8740    6.5150   51.7590 O.2   700  BLP700     -0.1261
      2  N5       -13.2040    6.4870   50.5450 N.pl3 700  BLP700      0.0578
      3  O7       -13.4880    5.3210   50.0700 O.2   700  BLP700     -0.1261
      4  C16      -13.2970    7.5950   49.7160 C.ar  700  BLP700      0.1473
      5  C15      -13.7630    7.3110   48.4000 C.ar  700  BLP700      0.0242
      6  C14      -13.8990    8.3310   47.4220 C.ar  700  BLP700      0.0017
      7  C13      -13.6060    9.6720   47.7690 C.ar  700  BLP700      0.0002
      8  C12      -13.1610    9.9170   49.0600 C.ar  700  BLP700      0.0062
      9  C11      -12.9840    8.9160   50.0540 C.ar  700  BLP700      0.0775
     10  C10      -12.5810    9.3860   51.4560 C.2   700  BLP700      0.2669
     11  O6       -12.6810    8.5970   52.4490 O.2   700  BLP700     -0.2683
     12  N4       -12.2710   10.7080   51.6990 N.am  700  BLP700     -0.1916
     13  C9       -11.9090   11.4460   52.9430 C.3   700  BLP700      0.2035
     14  C8       -10.5400   11.0340   52.9920 C.2   700  BLP700      0.2847
     15  O5       -10.2930   10.4080   54.0210 O.2   700  BLP700     -0.2695
     16  N3        -9.7010   11.2780   51.8690 N.am  700  BLP700     -0.0776
     17  N2        -8.3730   10.6990   52.0350 N.2   700  BLP700     -0.1544
     18  C7        -7.4090   10.4640   51.2110 C.2   700  BLP700      0.1227
     19  C6        -6.2130    9.6720   51.7270 C.ar  700  BLP700      0.0608
     20  C17       -6.0110    9.3090   53.0920 C.ar  700  BLP700      0.2103
     21  O9        -6.8670    9.6970   54.0990 O.3   700  BLP700     -0.2853
     22  C2        -4.9020    8.5200   53.4530 C.ar  700  BLP700      0.0981
     23  C1        -4.6130    8.1200   54.8850 C.3   700  BLP700      0.0555
     24  C4        -5.2920    9.1640   50.7810 C.ar  700  BLP700      0.0317
     25  C3        -4.2190    8.3790   51.1950 C.ar  700  BLP700      0.0968
     26  N1        -4.0400    8.0840   52.4860 N.ar  700  BLP700     -0.2452
     27  C5        -5.4270    9.4160   49.2750 C.3   700  BLP700      0.1819
     28  O1        -4.7080   10.5680   48.8460 O.3   700  BLP700     -0.2653
     29  P1        -5.2460   11.4460   47.5990 P.3   700  BLP700      0.5329
     30  O2        -6.6830   11.8050   48.0690 O.3   700  BLP700     -0.1145
     31  O3        -4.3080   12.6080   47.6150 O.3   700  BLP700     -0.1145
     32  O4        -5.2040   10.4340   46.4490 O.2   700  BLP700     -0.2224
@<TRIPOS>BOND
     1    32    29    2
     2     6     7   ar
     3     6     5   ar
     4    29    31    1
     5    29    30    1
     6    29    28    1
     7     7     8   ar
     8     5     4   ar
     9    28    27    1
    10     8     9   ar
    11    27    24    1
    12     4     9   ar
    13     4     2    1
    14     9    10    1
    15     3     2    2
    16     2     1    2
    17    24    25   ar
    18    24    19   ar
    19    25    26   ar
    20    18    19    1
    21    18    17    2
    22    10    12   am
    23    10    11    2
    24    12    13    1
    25    19    20   ar
    26    16    17    1
    27    16    14   am
    28    26    22   ar
    29    13    14    1
    30    14    15    2
    31    20    22   ar
    32    20    21    1
    33    22    23    1
