@<TRIPOS>MOLECULE
2gqp_PA7_A_1.pdb
 23 25 0 0 0
SMALL
GASTEIGER

@<TRIPOS>ATOM
      1  C5'     -143.0450  -38.0780   83.0320 C.2   601  PA7601      0.2714
      2  O5'     -142.9710  -37.0040   83.6380 O.2   601  PA7601     -0.2706
      3  N5'     -142.5730  -38.2260   81.7870 N.am  601  PA7601     -0.2033
      4  C51     -141.9420  -37.1450   81.0670 C.3   601  PA7601      0.1152
      5  C52     -142.9770  -36.5220   80.1300 C.3   601  PA7601      0.0234
      6  C53     -143.4680  -37.5830   79.1420 C.3   601  PA7601      0.0019
      7  C4'     -143.6240  -39.3090   83.6510 C.3   601  PA7601      0.2293
      8  O4'     -142.6660  -39.9450   84.4540 O.3   601  PA7601     -0.3067
      9  C3'     -144.8570  -39.1510   84.5270 C.3   601  PA7601      0.2249
     10  O3'     -146.0640  -39.2170   83.7980 O.3   601  PA7601     -0.2170
     11  C2'     -144.6590  -40.2640   85.5690 C.3   601  PA7601      0.2574
     12  O2'     -145.2180  -41.4830   85.0710 O.3   601  PA7601     -0.2130
     13  C1'     -143.1040  -40.3090   85.7640 C.3   601  PA7601      0.3190
     14  N9      -142.7060  -39.3440   86.8310 N.pl3 601  PA7601     -0.1438
     15  C8      -142.1350  -38.0910   86.7170 C.3   601  PA7601      0.3377
     16  N7      -141.8770  -37.5380   87.8790 N.2   601  PA7601     -0.2095
     17  C5      -142.2850  -38.4900   88.8070 C.2   601  PA7601      0.2526
     18  C6      -142.2410  -38.5510   90.2480 C.2   601  PA7601      0.4393
     19  N6      -141.7880  -37.5330   90.9840 N.pl3 601  PA7601      0.2180
     20  N1      -142.7090  -39.6790   90.8730 N.2   601  PA7601      0.0021
     21  C2      -143.1600  -40.7050   90.1300 C.3   601  PA7601      0.5254
     22  N3      -143.2510  -40.7720   88.7890 N.2   601  PA7601     -0.0055
     23  C4      -142.7670  -39.6250   88.1850 C.2   601  PA7601      0.3518
@<TRIPOS>BOND
     1     6     5    1
     2     5     4    1
     3     4     3    1
     4     3     1   am
     5     1     2    2
     6     1     7    1
     7     7     8    1
     8     7     9    1
     9    10     9    1
    10     8    13    1
    11     9    11    1
    12    12    11    1
    13    11    13    1
    14    13    14    1
    15    15    14    1
    16    15    16    1
    17    14    23    1
    18    16    17    2
    19    23    22    2
    20    23    17    1
    21    22    21    1
    22    17    18    1
    23    21    20    1
    24    18    20    2
    25    18    19    1
