@<TRIPOS>MOLECULE
2gqr_ADP_A_1.pdb
 27 29 0 0 0
SMALL
GASTEIGER

@<TRIPOS>ATOM
      1  PB        31.5200   32.4250   75.3240 P.3   238  ADP238      0.5373
      2  O1B       30.6160   32.3820   74.1470 O.2   238  ADP238     -0.2221
      3  O2B       31.5470   31.1450   76.0760 O.3   238  ADP238     -0.1143
      4  O3B       31.3170   33.6080   76.1970 O.3   238  ADP238     -0.1143
      5  PA        33.8870   33.9050   74.3120 P.3   238  ADP238      0.2231
      6  O1A       33.5910   34.2200   72.9060 O.2   238  ADP238     -0.5169
      7  O2A       33.8520   34.8870   75.4200 O.3   238  ADP238     -0.4370
      8  O3A       32.9970   32.6330   74.7140 O.3   238  ADP238     -0.2261
      9  O5'       35.1960   33.1130   74.1840 O.3   238  ADP238     -0.3111
     10  C5'       36.4290   32.8200   74.7730 C.3   238  ADP238      0.1813
     11  C4'       36.4930   31.3600   75.1210 C.3   238  ADP238      0.1821
     12  O4'       37.8830   31.0560   75.3960 O.3   238  ADP238     -0.3135
     13  C3'       35.7280   31.0090   76.3900 C.3   238  ADP238      0.2184
     14  O3'       35.2880   29.6550   76.3610 O.3   238  ADP238     -0.2174
     15  C2'       36.7790   31.2350   77.4650 C.3   238  ADP238      0.2570
     16  O2'       36.5310   30.5140   78.6500 O.3   238  ADP238     -0.2130
     17  C1'       38.0390   30.7340   76.7590 C.3   238  ADP238      0.3186
     18  N9        39.2540   31.3920   77.2330 N.pl3 238  ADP238     -0.1439
     19  C8        39.3900   32.6880   77.6740 C.3   238  ADP238      0.3377
     20  N7        40.6060   32.9890   78.0580 N.2   238  ADP238     -0.2095
     21  C5        41.3190   31.8160   77.8510 C.2   238  ADP238      0.2526
     22  C6        42.6650   31.4800   78.0700 C.2   238  ADP238      0.4393
     23  N6        43.5710   32.3320   78.5550 N.pl3 238  ADP238      0.2180
     24  N1        43.0540   30.2210   77.7690 N.2   238  ADP238      0.0021
     25  C2        42.1440   29.3700   77.2760 C.3   238  ADP238      0.5254
     26  N3        40.8540   29.5700   77.0220 N.2   238  ADP238     -0.0055
     27  C4        40.5000   30.8270   77.3380 C.2   238  ADP238      0.3518
@<TRIPOS>BOND
     1     6     5    2
     2     2     1    2
     3     9     5    1
     4     9    10    1
     5     5     8    1
     6     5     7    1
     7     8     1    1
     8    10    11    1
     9    11    12    1
    10    11    13    1
    11     1     3    1
    12     1     4    1
    13    12    17    1
    14    14    13    1
    15    13    15    1
    16    17    18    1
    17    17    15    1
    18    26    25    1
    19    26    27    2
    20    18    27    1
    21    18    19    1
    22    25    24    1
    23    27    21    1
    24    15    16    1
    25    19    20    1
    26    24    22    2
    27    21    20    2
    28    21    22    1
    29    22    23    1
