@<TRIPOS>MOLECULE
2gqs_ADP_A_1.pdb
 27 29 0 0 0
SMALL
GASTEIGER

@<TRIPOS>ATOM
      1  PB        -2.0100   32.2490   73.7780 P.3   238  ADP238      0.5373
      2  O1B       -1.1010   32.0140   74.9390 O.3   238  ADP238     -0.1143
      3  O2B       -2.1490   31.1090   72.8360 O.2   238  ADP238     -0.2221
      4  O3B       -1.6580   33.5070   73.0370 O.3   238  ADP238     -0.1143
      5  PA        -4.2130   33.8930   74.8610 P.3   238  ADP238      0.2231
      6  O1A       -3.6590   34.3700   76.1460 O.3   238  ADP238     -0.4370
      7  O2A       -4.2620   34.7450   73.6400 O.2   238  ADP238     -0.5169
      8  O3A       -3.4440   32.5340   74.4550 O.3   238  ADP238     -0.2261
      9  O5'       -5.6090   33.2370   75.1890 O.3   238  ADP238     -0.3111
     10  C5'       -6.6120   33.0030   74.2210 C.3   238  ADP238      0.1813
     11  C4'       -6.7080   31.5290   73.9220 C.3   238  ADP238      0.1821
     12  O4'       -8.0980   31.2180   73.6120 O.3   238  ADP238     -0.3135
     13  C3'       -5.9080   31.0920   72.7050 C.3   238  ADP238      0.2184
     14  O3'       -5.4710   29.7500   72.8590 O.3   238  ADP238     -0.2174
     15  C2'       -6.9270   31.2240   71.5790 C.3   238  ADP238      0.2570
     16  O2'       -6.6510   30.3920   70.4750 O.3   238  ADP238     -0.2130
     17  C1'       -8.2090   30.7760   72.2790 C.3   238  ADP238      0.3186
     18  N9        -9.4310   31.3630   71.7260 N.pl3 238  ADP238     -0.1439
     19  C8        -9.6050   32.6400   71.2450 C.3   238  ADP238      0.3377
     20  N7       -10.8260   32.8930   70.8410 N.2   238  ADP238     -0.2095
     21  C5       -11.5040   31.7030   71.0690 C.2   238  ADP238      0.2526
     22  C6       -12.8450   31.3220   70.8600 C.2   238  ADP238      0.4393
     23  N6       -13.7830   32.1450   70.3890 N.pl3 238  ADP238      0.2180
     24  N1       -13.1930   30.0560   71.1710 N.2   238  ADP238      0.0021
     25  C2       -12.2560   29.2390   71.6800 C.3   238  ADP238      0.5254
     26  N3       -10.9690   29.4870   71.9380 N.2   238  ADP238     -0.0055
     27  C4       -10.6530   30.7490   71.6040 C.2   238  ADP238      0.3518
@<TRIPOS>BOND
     1    23    22    1
     2    16    15    1
     3    20    21    2
     4    20    19    1
     5    22    21    1
     6    22    24    2
     7    21    27    1
     8    24    25    1
     9    19    18    1
    10    15    17    1
    11    15    13    1
    12    27    18    1
    13    27    26    2
    14    25    26    1
    15    18    17    1
    16    17    12    1
    17    13    14    1
    18    13    11    1
    19     3     1    2
    20     4     1    1
    21    12    11    1
    22     7     5    2
    23     1     8    1
    24     1     2    1
    25    11    10    1
    26    10     9    1
    27     8     5    1
    28     5     9    1
    29     5     6    1
