@<TRIPOS>MOLECULE
2gqs_C2R_A_1.pdb
 22 23 0 0 0
SMALL
GASTEIGER

@<TRIPOS>ATOM
      1  PA         6.6200   38.3220   63.7760 P.3   242  C2R242      0.5327
      2  O1A        7.1880   38.0660   65.1610 O.3   242  C2R242     -0.1145
      3  O2A        7.3520   39.4280   63.0340 O.3   242  C2R242     -0.1145
      4  O3A        6.5000   37.0590   62.9330 O.2   242  C2R242     -0.2224
      5  O5'        5.0890   38.8460   63.9920 O.3   242  C2R242     -0.2675
      6  C2'        3.1770   40.3510   65.7350 C.3   242  C2R242      0.2272
      7  O2'        2.7980   41.1680   66.8260 O.3   242  C2R242     -0.2161
      8  C3'        3.2900   41.1290   64.4320 C.3   242  C2R242      0.2155
      9  O3'        2.2650   42.1160   64.3590 O.3   242  C2R242     -0.2176
     10  C5'        4.3110   39.3490   62.8790 C.3   242  C2R242      0.1859
     11  C4'        3.0620   40.0500   63.3800 C.3   242  C2R242      0.1798
     12  O4'        2.1860   39.0730   64.0040 O.3   242  C2R242     -0.3353
     13  C1'        2.0800   39.3430   65.3920 C.3   242  C2R242      0.2123
     14  N1         2.2690   38.0780   66.0910 N.3   242  C2R242     -0.2079
     15  C5         1.9210   37.7840   67.3850 C.3   242  C2R242      0.2010
     16  C4         2.3020   36.4650   67.5850 C.2   242  C2R242      0.1676
     17  N3         2.8800   35.9440   66.4380 N.2   242  C2R242     -0.2472
     18  C2         2.8350   36.9350   65.5850 C.3   242  C2R242      0.2040
     19  N5         1.3340   38.6040   68.2590 N.3   242  C2R242     -0.1080
     20  C6         2.1020   35.6740   68.8510 C.2   242  C2R242      0.4035
     21  O7         1.6300   36.2460   69.8530 O.co2 242  C2R242     -0.2391
     22  O8         2.4170   34.4630   68.8410 O.co2 242  C2R242     -0.2391
@<TRIPOS>BOND
     1    10    11    1
     2    10     5    1
     3     4     1    2
     4     3     1    1
     5    11    12    1
     6    11     8    1
     7     1     5    1
     8     1     2    1
     9    12    13    1
    10     9     8    1
    11     8     6    1
    12    13     6    1
    13    13    14    1
    14    18    14    1
    15    18    17    1
    16     6     7    1
    17    14    15    1
    18    17    16    2
    19    15    16    1
    20    15    19    1
    21    16    20    1
    22    22    20   ar
    23    20    21   ar
