@<TRIPOS>MOLECULE
2gqu_EPU_A_1.pdb
 44 46 0 0 0
SMALL
GASTEIGER

@<TRIPOS>ATOM
      1  N1U        4.4540  -19.5600   -9.0490 N.am  601  EPU601     -0.1766
      2  C2U        4.8090  -19.9220  -10.3710 C.1   601  EPU601      0.2845
      3  N3U        5.2970  -19.0080  -11.2140 N.2   601  EPU601     -0.2452
      4  C4U        5.3830  -17.7090  -10.8820 C.1   601  EPU601      0.2182
      5  C5U        4.9800  -17.2580   -9.6320 C.2   601  EPU601      0.1242
      6  C6U        4.4600  -18.1730   -8.7280 C.2   601  EPU601      0.0929
      7  O2U        4.7710  -21.1190  -10.7200 O.2   601  EPU601     -0.1918
      8  O4U        5.8410  -16.8970  -11.7070 O.2   601  EPU601     -0.2085
      9  C1D        3.5350  -20.4250   -8.3030 C.3   601  EPU601      0.2401
     10  C2D        4.2020  -20.5600   -6.9420 C.3   601  EPU601      0.2319
     11  O2D        5.2420  -21.5480   -6.9610 O.3   601  EPU601     -0.2157
     12  C3D        3.0580  -20.9320   -6.0330 C.3   601  EPU601      0.2158
     13  C4D        1.8120  -20.4170   -6.7490 C.3   601  EPU601      0.1799
     14  O4D        2.2030  -19.9780   -8.0570 O.3   601  EPU601     -0.3320
     15  O3D        3.0230  -22.3590   -5.9260 O.3   601  EPU601     -0.2175
     16  C5D        1.2140  -19.2380   -5.9910 C.3   601  EPU601      0.1813
     17  O5D        2.2320  -18.2430   -5.8830 O.3   601  EPU601     -0.3112
     18  PA         2.3660  -17.3490   -4.5510 P.3   601  EPU601      0.2189
     19  O1A        2.4310  -18.2590   -3.3490 O.3   601  EPU601     -0.4371
     20  O2A        3.4450  -16.3110   -4.7490 O.2   601  EPU601     -0.5170
     21  O3A        0.9370  -16.5920   -4.4900 O.3   601  EPU601     -0.2703
     22  PB         0.3100  -15.5430   -5.5550 P.3   601  EPU601      0.2208
     23  O1B       -1.1420  -15.9230   -5.7350 O.3   601  EPU601     -0.4371
     24  O2B        1.1960  -15.3700   -6.7730 O.2   601  EPU601     -0.5170
     25  C1        -0.5280  -13.9790   -3.6350 C.3   601  EPU601      0.2644
     26  C2        -0.6980  -12.4880   -3.3860 C.3   601  EPU601      0.1940
     27  C3         0.5910  -11.9060   -2.8400 C.3   601  EPU601      0.2235
     28  C4         0.8770  -12.5820   -1.5000 C.3   601  EPU601      0.2230
     29  C5         1.0090  -14.1000   -1.6940 C.3   601  EPU601      0.1845
     30  C6         1.0730  -14.8400   -0.3580 C.3   601  EPU601      0.2142
     31  C7        -2.5800  -11.6590   -4.6000 C.2   601  EPU601      0.2421
     32  C8        -3.1300  -10.9260   -5.7690 C.3   601  EPU601      0.0964
     33  N2        -1.2440  -11.8080   -4.5560 N.am  601  EPU601     -0.1981
     34  O1         0.3940  -14.1800   -4.7040 O.3   601  EPU601     -0.2864
     35  O3         0.3410  -10.5310   -2.6340 O.2   601  EPU601     -0.4682
     36  O4         2.0650  -12.0560   -0.9060 O.3   601  EPU601     -0.2165
     37  O5        -0.1040  -14.6280   -2.4280 O.3   601  EPU601     -0.3259
     38  O6        -0.2640  -15.0260    0.1490 O.3   601  EPU601     -0.2176
     39  O7        -3.3260  -12.0900   -3.7360 O.2   601  EPU601     -0.2733
     40  C1E        0.7010   -8.3360   -3.5560 C.2   601  EPU601      0.4211
     41  O1E        1.3960   -7.3990   -3.9890 O.co2 601  EPU601     -0.2371
     42  O2E       -0.5430   -8.2690   -3.4080 O.co2 601  EPU601     -0.2371
     43  C2E        1.3040   -9.5870   -3.1510 C.2   601  EPU601      0.2182
     44  C3E        2.6120   -9.8310   -3.2130 C.2   601  EPU601      0.0471
@<TRIPOS>BOND
     1     8     4    2
     2     3     4    2
     3     3     2    2
     4     4     5    1
     5     7     2    2
     6     2     1   am
     7     5     6    2
     8     1     6    1
     9     1     9    1
    10     9    14    1
    11     9    10    1
    12    14    13    1
    13    11    10    1
    14    10    12    1
    15    24    22    2
    16    13    12    1
    17    13    16    1
    18    12    15    1
    19    16    17    1
    20    17    18    1
    21    32    31    1
    22    23    22    1
    23    22    34    1
    24    22    21    1
    25    20    18    2
    26    34    25    1
    27    31    33   am
    28    31    39    2
    29    33    26    1
    30    18    21    1
    31    18    19    1
    32    41    40   ar
    33    25    26    1
    34    25    37    1
    35    40    42   ar
    36    40    43    1
    37    26    27    1
    38    44    43    2
    39    43    35    1
    40    27    35    1
    41    27    28    1
    42    37    29    1
    43    29    28    1
    44    29    30    1
    45    28    36    1
    46    30    38    1
