@<TRIPOS>MOLECULE
2gqx_HEM_A_1.pdb
 43 50 0 0 0
SMALL
GASTEIGER

@<TRIPOS>ATOM
      1  CHA      -24.8220   10.4860    1.4900 C.2   417  HEM417      0.0000
      2  CHB      -20.3110   10.4360   -0.3410 C.2   417  HEM417      0.0000
      3  CHC      -22.0510   11.7320   -4.6790 C.2   417  HEM417      0.0000
      4  CHD      -26.5360   11.9730   -2.8390 C.2   417  HEM417      0.0000
      5  C1A      -23.4400   10.3920    1.3800 C.2   417  HEM417      0.0000
      6  C2A      -22.5030   10.0530    2.4390 C.2   417  HEM417      0.0000
      7  C3A      -21.2750   10.0650    1.9340 C.2   417  HEM417      0.0000
      8  C4A      -21.4060   10.3810    0.5010 C.2   417  HEM417      0.0000
      9  CMA      -19.9210    9.7690    2.6110 C.3   417  HEM417      0.0000
     10  CAA      -22.8870    9.7110    3.9330 C.3   417  HEM417      0.0000
     11  CBA      -23.1690   10.8290    4.9210 C.3   417  HEM417      0.0000
     12  CGA      -23.5340   10.2210    6.3440 C.2   417  HEM417      0.0000
     13  O1A      -23.5540    8.9970    6.5250 O.co2 417  HEM417      0.0000
     14  O2A      -23.7630   11.1940    7.1020 O.co2 417  HEM417      0.0000
     15  C1B      -20.4210   10.7360   -1.6870 C.ar  417  HEM417      0.0000
     16  C2B      -19.3090   10.6840   -2.6250 C.ar  417  HEM417      0.0000
     17  C3B      -19.7700   11.0400   -3.8110 C.ar  417  HEM417      0.0000
     18  C4B      -21.2040   11.3300   -3.6610 C.ar  417  HEM417      0.0000
     19  CMB      -17.8960   10.2610   -2.1660 C.3   417  HEM417      0.0000
     20  CAB      -19.0740   11.1570   -5.2150 C.2   417  HEM417      0.0000
     21  CBB      -17.7970   10.9060   -5.4590 C.2   417  HEM417      0.0000
     22  C1C      -23.4110   11.9460   -4.5550 C.2   417  HEM417      0.0000
     23  C2C      -24.2790   12.3770   -5.6230 C.2   417  HEM417      0.0000
     24  C3C      -25.5100   12.4530   -5.1250 C.2   417  HEM417      0.0000
     25  C4C      -25.4340   12.0710   -3.7050 C.2   417  HEM417      0.0000
     26  CMC      -23.8230   12.6600   -7.0770 C.3   417  HEM417      0.0000
     27  CAC      -26.8510   12.8380   -5.8780 C.2   417  HEM417      0.0000
     28  CBC      -27.4440   13.9410   -5.5140 C.2   417  HEM417      0.0000
     29  C1D      -26.4520   11.5510   -1.5230 C.ar  417  HEM417      0.0000
     30  C2D      -27.6040   11.4110   -0.6200 C.ar  417  HEM417      0.0000
     31  C3D      -27.1090   10.9960    0.5630 C.ar  417  HEM417      0.0000
     32  C4D      -25.6630   10.8680    0.4610 C.ar  417  HEM417      0.0000
     33  CMD      -29.0630   11.7100   -1.0280 C.3   417  HEM417      0.0000
     34  CAD      -27.8590   10.6810    1.8910 C.3   417  HEM417      0.0000
     35  CBD      -28.2850    9.2590    2.1200 C.3   417  HEM417      0.0000
     36  CGD      -28.9800    9.0210    3.5380 C.2   417  HEM417      0.0000
     37  O1D      -29.5910    7.9720    3.5580 O.co2 417  HEM417      0.0000
     38  O2D      -28.7420    9.9050    4.3620 O.co2 417  HEM417      0.0000
     39  NA       -22.7600   10.5810    0.1950 N.2   417  HEM417      0.0000
     40  NB       -21.5600   11.1630   -2.3090 N.ar  417  HEM417      0.0000
     41  NC       -24.1570   11.7620   -3.3850 N.2   417  HEM417      0.0000
     42  ND       -25.3290   11.2090   -0.8230 N.ar  417  HEM417      0.0000
     43 FE        -23.4820   10.8630   -1.6880 Fe    417  HEM417      0.0000
@<TRIPOS>BOND
     1    26    23    1
     2    27    28    2
     3    27    24    1
     4    23    24    2
     5    23    22    1
     6    21    20    2
     7    20    17    1
     8    24    25    1
     9     3    22    2
    10     3    18    1
    11    22    41    1
    12    17    18   ar
    13    17    16   ar
    14    25    41    2
    15    25     4    1
    16    18    40   ar
    17    41    43    1
    18     4    29    2
    19    16    19    1
    20    16    15   ar
    21    40    43    1
    22    40    15   ar
    23    43    42    1
    24    43    39    1
    25    15     2    1
    26    29    42   ar
    27    29    30   ar
    28    33    30    1
    29    42    32   ar
    30    30    31   ar
    31     2     8    2
    32    39     8    1
    33    39     5    2
    34    32    31   ar
    35    32     1    2
    36     8     7    1
    37    31    34    1
    38     5     1    1
    39     5     6    1
    40    34    35    1
    41     7     6    2
    42     7     9    1
    43    35    36    1
    44     6    10    1
    45    36    37   ar
    46    36    38   ar
    47    10    11    1
    48    11    12    1
    49    12    13   ar
    50    12    14   ar
