@<TRIPOS>MOLECULE
2gqx_5CL_A_1.pdb
 11 11 0 0 0
SMALL
GASTEIGER

@<TRIPOS>ATOM
      1  C1       -23.1070   14.2180   -0.1010 C.ar  1450  5CL1450     0.0699
      2  C2       -24.6310   14.3990    0.0190 C.ar  1450  5CL1450     0.0245
      3  C3       -25.2860   14.6070    1.3940 C.ar  1450  5CL1450     0.0699
      4  C4       -24.4030   14.6340    2.6720 C.ar  1450  5CL1450     0.0796
      5  C5       -22.8620   14.4500    2.5610 C.ar  1450  5CL1450     0.0804
      6  C6       -22.2160   14.2420    1.1630 C.ar  1450  5CL1450     0.0796
      7 CL1       -25.0490   14.8430    4.0380 Cl    1450  5CL1450    -0.0805
      8 CL2       -21.9700   14.4750    3.8520 Cl    1450  5CL1450    -0.0804
      9 CL3       -20.6710   14.0660    1.1030 Cl    1450  5CL1450    -0.0805
     10 CL4       -26.7860   14.7790    1.4400 Cl    1450  5CL1450    -0.0813
     11 CL5       -22.4750   14.0150   -1.4820 Cl    1450  5CL1450    -0.0813
@<TRIPOS>BOND
     1    11     1    1
     2     1     2   ar
     3     1     6   ar
     4     2     3   ar
     5     9     6    1
     6     6     5   ar
     7     3    10    1
     8     3     4   ar
     9     5     4   ar
    10     5     8    1
    11     4     7    1
