@<TRIPOS>MOLECULE
2gr0_ADP_A_1.pdb
 27 29 0 0 0
SMALL
GASTEIGER

@<TRIPOS>ATOM
      1  PB        72.0980   20.6350    9.5380 P.3   1001  ADP1001     0.5373
      2  O1B       73.4330   20.3510   10.1760 O.3   1001  ADP1001    -0.1143
      3  O2B       71.0290   19.6990   10.0780 O.3   1001  ADP1001    -0.1143
      4  O3B       72.0450   20.7130    7.9970 O.2   1001  ADP1001    -0.2221
      5  PA        71.9890   22.9850   11.3950 P.3   1001  ADP1001     0.2231
      6  O1A       70.9870   24.1180   11.4960 O.2   1001  ADP1001    -0.5169
      7  O2A       72.2500   22.0520   12.5860 O.3   1001  ADP1001    -0.4370
      8  O3A       71.6210   22.1180   10.0580 O.3   1001  ADP1001    -0.2261
      9  O5'       73.3980   23.6920   11.0250 O.3   1001  ADP1001    -0.3111
     10  C5'       73.6470   24.3690    9.7930 C.3   1001  ADP1001     0.1813
     11  C4'       74.8820   25.2660    9.9350 C.3   1001  ADP1001     0.1821
     12  O4'       75.1380   25.8870    8.6780 O.3   1001  ADP1001    -0.3135
     13  C3'       74.7260   26.4060   10.9460 C.3   1001  ADP1001     0.2184
     14  O3'       75.8510   26.4250   11.8510 O.3   1001  ADP1001    -0.2174
     15  C2'       74.6240   27.6720   10.0970 C.3   1001  ADP1001     0.2570
     16  O2'       75.1900   28.8430   10.7000 O.3   1001  ADP1001    -0.2130
     17  C1'       75.3820   27.2800    8.8460 C.3   1001  ADP1001     0.3186
     18  N9        74.9280   27.9230    7.5950 N.pl3 1001  ADP1001    -0.1439
     19  C8        73.6930   28.3720    7.2860 C.3   1001  ADP1001     0.3377
     20  N7        73.6680   28.8790    6.0250 N.2   1001  ADP1001    -0.2095
     21  C5        74.9160   28.7380    5.5290 C.2   1001  ADP1001     0.2526
     22  C6        75.5850   29.0460    4.2510 C.2   1001  ADP1001     0.4393
     23  N6        74.8800   29.6300    3.2460 N.pl3 1001  ADP1001     0.2180
     24  N1        76.9020   28.7190    4.1460 N.2   1001  ADP1001     0.0021
     25  C2        77.6100   28.1330    5.1470 C.3   1001  ADP1001     0.5254
     26  N3        77.0670   27.8280    6.3440 N.2   1001  ADP1001    -0.0055
     27  C4        75.7420   28.0930    6.5650 C.2   1001  ADP1001     0.3518
@<TRIPOS>BOND
     1    23    22    1
     2    24    22    2
     3    24    25    1
     4    22    21    1
     5    25    26    1
     6    21    20    2
     7    21    27    1
     8    20    19    1
     9    26    27    2
    10    27    18    1
    11    19    18    1
    12    18    17    1
    13     4     1    2
    14    12    17    1
    15    12    11    1
    16    17    15    1
    17     1     8    1
    18     1     3    1
    19     1     2    1
    20    10    11    1
    21    10     9    1
    22    11    13    1
    23     8     5    1
    24    15    16    1
    25    15    13    1
    26    13    14    1
    27     9     5    1
    28     5     6    2
    29     5     7    1
