@<TRIPOS>MOLECULE
2gr2_APR_A_1.pdb
 36 39 0 0 0
SMALL
GASTEIGER

@<TRIPOS>ATOM
      1  N1        77.2060   28.6730    4.2040 N.2   1500  APR1500     0.0021
      2  C2        77.9010   28.1220    5.2180 C.3   1500  APR1500     0.5254
      3  N3        77.2980   27.8450    6.3900 N.2   1500  APR1500    -0.0055
      4  C4        75.9580   28.0960    6.5200 C.2   1500  APR1500     0.3518
      5  C5        75.2210   28.6610    5.4930 C.2   1500  APR1500     0.2526
      6  C6        75.8740   28.9460    4.3000 C.2   1500  APR1500     0.4393
      7  N6        75.1600   29.5010    3.2780 N.pl3 1500  APR1500     0.2180
      8  N7        73.9350   28.8020    5.9070 N.2   1500  APR1500    -0.2095
      9  C8        73.8930   28.3400    7.1910 C.3   1500  APR1500     0.3377
     10  N9        75.1300   27.9270    7.5350 N.pl3 1500  APR1500    -0.1439
     11  C1'       75.5930   27.3070    8.7940 C.3   1500  APR1500     0.3186
     12  C2'       74.8860   27.7570   10.0410 C.3   1500  APR1500     0.2570
     13  O2'       75.5290   28.9060   10.6150 O.3   1500  APR1500    -0.2130
     14  C3'       74.9690   26.5040   10.9070 C.3   1500  APR1500     0.2184
     15  O3'       76.1280   26.5440   11.7580 O.3   1500  APR1500    -0.2174
     16  O4'       75.2880   25.9160    8.6500 O.3   1500  APR1500    -0.3135
     17  C4'       75.0560   25.3340    9.9180 C.3   1500  APR1500     0.1821
     18  C5'       73.7910   24.4750    9.8230 C.3   1500  APR1500     0.1813
     19  O5'       73.6370   23.8090   11.0680 O.3   1500  APR1500    -0.3112
     20  PA        72.3040   23.0110   11.4950 P.3   1500  APR1500     0.2189
     21  O1A       72.6590   22.1120   12.6840 O.3   1500  APR1500    -0.4371
     22  O2A       71.1880   24.0300   11.5230 O.2   1500  APR1500    -0.5170
     23  O3A       71.9600   22.1740   10.1530 O.3   1500  APR1500    -0.2703
     24  PB        72.4570   20.7420    9.5610 P.3   1500  APR1500     0.2189
     25  O1B       73.7640   20.3750   10.2080 O.3   1500  APR1500    -0.4371
     26  O2B       72.2750   20.7820    8.0410 O.2   1500  APR1500    -0.5170
     27  O5D       71.3660   19.7460   10.1700 O.3   1500  APR1500    -0.3112
     28  C5D       69.9740   19.9580    9.9200 C.3   1500  APR1500     0.1813
     29  O4D       69.4470   17.7830   10.8800 O.3   1500  APR1500    -0.3237
     30  O1D       68.9120   16.8620   12.9800 O.3   1500  APR1500    -0.1869
     31  C1D       69.9840   17.2770   12.1200 C.3   1500  APR1500     0.3023
     32  O2D       70.6900   18.3810   14.2200 O.3   1500  APR1500    -0.2148
     33  C2D       70.6200   18.4730   12.7780 C.3   1500  APR1500     0.2433
     34  O3D       68.6960   19.7900   13.3430 O.3   1500  APR1500    -0.2175
     35  C3D       69.7300   19.6240   12.3580 C.3   1500  APR1500     0.2168
     36  C4D       69.1990   19.1930   10.9920 C.3   1500  APR1500     0.1807
@<TRIPOS>BOND
     1     7     6    1
     2     1     6    2
     3     1     2    1
     4     6     5    1
     5     2     3    1
     6     5     8    2
     7     5     4    1
     8     8     9    1
     9     3     4    2
    10     4    10    1
    11     9    10    1
    12    10    11    1
    13    26    24    2
    14    16    11    1
    15    16    17    1
    16    11    12    1
    17    24    23    1
    18    24    27    1
    19    24    25    1
    20    18    17    1
    21    18    19    1
    22    17    14    1
    23    28    27    1
    24    28    36    1
    25    12    13    1
    26    12    14    1
    27    23    20    1
    28    29    36    1
    29    29    31    1
    30    14    15    1
    31    36    35    1
    32    19    20    1
    33    20    22    2
    34    20    21    1
    35    31    33    1
    36    31    30    1
    37    35    33    1
    38    35    34    1
    39    33    32    1
