@<TRIPOS>MOLECULE
2gr6_HEM_A_1.pdb
 43 50 0 0 0
SMALL
GASTEIGER

@<TRIPOS>ATOM
      1 FE         23.4790  -10.3870  -49.2310 Fe    417  HEM417      0.0000
      2  CHA       24.8890   -9.9290  -46.0730 C.2   417  HEM417      0.0000
      3  CHB       20.3200   -9.9640  -47.8460 C.2   417  HEM417      0.0000
      4  CHC       22.0220  -11.4060  -52.1440 C.2   417  HEM417      0.0000
      5  CHD       26.5260  -11.5830  -50.3640 C.2   417  HEM417      0.0000
      6  NA        22.8000  -10.0630  -47.3470 N.2   417  HEM417      0.0000
      7  C1A       23.5020   -9.8470  -46.1710 C.2   417  HEM417      0.0000
      8  C2A       22.5910   -9.4940  -45.1150 C.2   417  HEM417      0.0000
      9  C3A       21.3410   -9.5250  -45.5970 C.2   417  HEM417      0.0000
     10  C4A       21.4400   -9.8810  -47.0210 C.2   417  HEM417      0.0000
     11  CMA       20.0010   -9.2300  -44.9010 C.3   417  HEM417      0.0000
     12  CAA       23.0000   -9.1250  -43.6390 C.3   417  HEM417      0.0000
     13  CBA       23.2940  -10.2420  -42.6500 C.3   417  HEM417      0.0000
     14  CGA       23.6660   -9.6520  -41.2270 C.2   417  HEM417      0.0000
     15  O1A       23.6660   -8.4430  -41.0340 O.co2 417  HEM417      0.0000
     16  O2A       23.9010  -10.6200  -40.4890 O.co2 417  HEM417      0.0000
     17  NB        21.5430  -10.7470  -49.7930 N.ar  417  HEM417      0.0000
     18  C1B       20.4060  -10.3120  -49.1790 C.ar  417  HEM417      0.0000
     19  C2B       19.2730  -10.3180  -50.1250 C.ar  417  HEM417      0.0000
     20  C3B       19.7440  -10.7110  -51.2960 C.ar  417  HEM417      0.0000
     21  C4B       21.1810  -10.9790  -51.1380 C.ar  417  HEM417      0.0000
     22  CMB       17.8430   -9.8950  -49.6910 C.3   417  HEM417      0.0000
     23  CAB       19.0680  -10.9130  -52.7010 C.2   417  HEM417      0.0000
     24  CBB       17.7970  -10.7050  -52.9810 C.2   417  HEM417      0.0000
     25  NC        24.1400  -11.3690  -50.8870 N.2   417  HEM417      0.0000
     26  C1C       23.3840  -11.6180  -52.0370 C.2   417  HEM417      0.0000
     27  C2C       24.2420  -12.1130  -53.0980 C.2   417  HEM417      0.0000
     28  C3C       25.4890  -12.1740  -52.5930 C.2   417  HEM417      0.0000
     29  C4C       25.4170  -11.7110  -51.2000 C.2   417  HEM417      0.0000
     30  CMC       23.7640  -12.4860  -54.5480 C.3   417  HEM417      0.0000
     31  CAC       26.8520  -12.6290  -53.2780 C.2   417  HEM417      0.0000
     32  CBC       27.2380  -11.9480  -54.3360 C.2   417  HEM417      0.0000
     33  ND        25.3490  -10.7350  -48.3750 N.ar  417  HEM417      0.0000
     34  C1D       26.4560  -11.1140  -49.0740 C.ar  417  HEM417      0.0000
     35  C2D       27.6220  -10.9520  -48.1870 C.ar  417  HEM417      0.0000
     36  C3D       27.1570  -10.4970  -47.0150 C.ar  417  HEM417      0.0000
     37  C4D       25.7100  -10.3490  -47.1010 C.ar  417  HEM417      0.0000
     38  CMD       29.0830  -11.2830  -48.6020 C.3   417  HEM417      0.0000
     39  CAD       27.9640  -10.1620  -45.7170 C.3   417  HEM417      0.0000
     40  CBD       28.3130   -8.7400  -45.4630 C.3   417  HEM417      0.0000
     41  CGD       29.1010   -8.4960  -44.0970 C.2   417  HEM417      0.0000
     42  O1D       29.6900   -7.4480  -44.1230 O.co2 417  HEM417      0.0000
     43  O2D       28.9390   -9.3860  -43.2580 O.co2 417  HEM417      0.0000
@<TRIPOS>BOND
     1    30    27    1
     2    32    31    2
     3    31    28    1
     4    27    28    2
     5    27    26    1
     6    24    23    2
     7    23    20    1
     8    28    29    1
     9     4    26    2
    10     4    21    1
    11    26    25    1
    12    20    21   ar
    13    20    19   ar
    14    29    25    2
    15    29     5    1
    16    21    17   ar
    17    25     1    1
    18     5    34    2
    19    19    22    1
    20    19    18   ar
    21    17     1    1
    22    17    18   ar
    23     1    33    1
    24     1     6    1
    25    18     3    1
    26    34    33   ar
    27    34    35   ar
    28    38    35    1
    29    33    37   ar
    30    35    36   ar
    31     3    10    2
    32     6    10    1
    33     6     7    2
    34    37    36   ar
    35    37     2    2
    36    10     9    1
    37    36    39    1
    38     7     2    1
    39     7     8    1
    40    39    40    1
    41     9     8    2
    42     9    11    1
    43    40    41    1
    44     8    12    1
    45    42    41   ar
    46    41    43   ar
    47    12    13    1
    48    13    14    1
    49    14    15   ar
    50    14    16   ar
