@<TRIPOS>MOLECULE
2gr9_NAD_A_1.pdb
 43 47 0 0 0
SMALL
GASTEIGER

@<TRIPOS>ATOM
      1  PA        17.6460   79.0390   -2.9400 P.3   1300  NAD1300     0.2189
      2  O1A       18.8210   79.8780   -1.8280 O.3   1300  NAD1300    -0.4371
      3  O2A       16.4610   80.3770   -2.6160 O.2   1300  NAD1300    -0.5170
      4  O5B       18.0790   77.7460   -2.4530 O.3   1300  NAD1300    -0.3112
      5  C5B       17.1160   77.5060   -1.5150 C.3   1300  NAD1300     0.1813
      6  C4B       17.2230   78.0870   -0.1260 C.3   1300  NAD1300     0.1821
      7  O4B       15.9250   78.8230    0.0260 O.3   1300  NAD1300    -0.3135
      8  C3B       16.9400   77.3690    1.1650 C.3   1300  NAD1300     0.2184
      9  O3B       18.1810   76.9070    1.6830 O.3   1300  NAD1300    -0.2174
     10  C2B       16.4430   78.4120    2.0650 C.3   1300  NAD1300     0.2570
     11  O2B       17.3900   78.5620    3.1140 O.3   1300  NAD1300    -0.2130
     12  C1B       16.4020   79.5480    1.3730 C.3   1300  NAD1300     0.3186
     13  N9A       15.3600   80.2010    1.6090 N.pl3 1300  NAD1300    -0.1440
     14  C8A       15.7440   81.1190    0.6130 C.3   1300  NAD1300     0.3373
     15  N7A       14.7730   82.1710    0.6250 N.2   1300  NAD1300    -0.2187
     16  C5A       13.9320   81.8570    1.6560 C.2   1300  NAD1300     0.1644
     17  C6A       12.8220   82.6560    2.0430 C.3   1300  NAD1300     0.1822
     18  N1A       12.0060   82.2430    3.0460 N.2   1300  NAD1300    -0.2189
     19  C2A       12.3400   81.0560    3.6100 C.2   1300  NAD1300     0.3347
     20  N3A       13.3690   80.2160    3.3250 N.2   1300  NAD1300    -0.0132
     21  C4A       14.2240   80.7250    2.2320 C.2   1300  NAD1300     0.3444
     22  O3        17.9990   79.7570   -4.3850 O.3   1300  NAD1300    -0.2703
     23  PN        17.9570   81.3650   -4.9670 P.3   1300  NAD1300     0.2189
     24  O1N       19.3410   82.4340   -5.2480 O.2   1300  NAD1300    -0.5170
     25  O2N       16.8940   82.7460   -4.8640 O.3   1300  NAD1300    -0.4371
     26  O5D       17.7960   80.9050   -6.5170 O.3   1300  NAD1300    -0.3112
     27  C5D       17.8750   79.6930   -7.3830 C.3   1300  NAD1300     0.1813
     28  C4D       19.2900   79.3270   -7.3260 C.3   1300  NAD1300     0.1799
     29  O4D       19.8910   79.3160   -6.3770 O.3   1300  NAD1300    -0.3327
     30  C3D       20.0000   78.8020   -8.2720 C.3   1300  NAD1300     0.2158
     31  O3D       20.0930   79.6540   -9.4050 O.3   1300  NAD1300    -0.2175
     32  C2D       21.3120   78.7830   -7.6230 C.3   1300  NAD1300     0.2309
     33  O2D       22.1770   79.6230   -8.3720 O.3   1300  NAD1300    -0.2158
     34  C1D       21.0820   79.4370   -6.2860 C.3   1300  NAD1300     0.2263
     35  N1N       22.1640   80.0290   -5.1430 N.pl3 1300  NAD1300    -0.2787
     36  C2N       23.4870   80.1450   -5.5910 C.3   1300  NAD1300     0.1244
     37  C3N       24.4960   80.2910   -4.7860 C.2   1300  NAD1300     0.0544
     38  C7N       25.6900   80.4000   -5.2160 C.2   1300  NAD1300     0.2818
     39  O7N       26.1880   80.3860   -6.7500 O.2   1300  NAD1300    -0.2670
     40  N7N       26.9730   80.7150   -4.7100 N.am  1300  NAD1300    -0.0839
     41  C4N       24.3080   80.3510   -3.3610 C.2   1300  NAD1300     0.0033
     42  C5N       23.0270   80.2460   -2.8630 C.2   1300  NAD1300     0.0157
     43  C6N       21.9150   80.0800   -3.7120 C.2   1300  NAD1300     0.0633
@<TRIPOS>BOND
     1    31    30    1
     2    33    32    1
     3    30    32    1
     4    30    28    1
     5    32    34    1
     6    27    28    1
     7    27    26    1
     8    28    29    1
     9    39    38    2
    10    26    23    1
    11    29    34    1
    12    34    35    1
    13    36    35    1
    14    36    37    1
    15    24    23    2
    16    38    37    1
    17    38    40   am
    18    35    43    1
    19    23    25    1
    20    23    22    1
    21    37    41    2
    22    22     1    1
    23    43    42    2
    24    41    42    1
    25     1     3    2
    26     1     4    1
    27     1     2    1
    28     4     5    1
    29     5     6    1
    30     6     7    1
    31     6     8    1
    32     7    12    1
    33    14    15    1
    34    14    13    1
    35    15    16    2
    36     8     9    1
    37     8    10    1
    38    12    13    1
    39    12    10    1
    40    13    21    1
    41    16    17    1
    42    16    21    1
    43    17    18    1
    44    10    11    1
    45    21    20    2
    46    18    19    2
    47    20    19    1
