@<TRIPOS>MOLECULE
2gra_NAP_A_1.pdb
 48 53 0 0 0
SMALL
GASTEIGER

@<TRIPOS>ATOM
      1  PA        18.1030   79.0970   -1.7460 P.3   1300  NAP1300     0.2215
      2  O1A       16.6810   79.7930   -2.1860 O.2   1300  NAP1300    -0.5170
      3  O2A       17.9360   77.3660   -1.8450 O.3   1300  NAP1300    -0.4371
      4  O5B       18.5290   79.4310   -0.2420 O.3   1300  NAP1300    -0.3111
      5  C5B       17.5570   78.6910    0.6490 C.3   1300  NAP1300     0.1813
      6  C4B       16.1790   78.8080    1.3990 C.3   1300  NAP1300     0.1820
      7  O4B       15.9050   79.9740    2.1260 O.3   1300  NAP1300    -0.3136
      8  C3B       15.2490   79.0810    0.2290 C.3   1300  NAP1300     0.2157
      9  O3B       14.5990   77.9190   -0.2920 O.3   1300  NAP1300    -0.2175
     10  C2B       14.2790   80.2350    0.4870 C.3   1300  NAP1300     0.2314
     11  O2B       13.0040   79.8820   -0.1010 O.3   1300  NAP1300    -0.2630
     12  C1B       14.5250   80.0230    2.0180 C.3   1300  NAP1300     0.3158
     13  N9A       13.9450   80.9230    3.0860 N.pl3 1300  NAP1300    -0.1439
     14  C8A       13.1700   82.1510    2.9180 C.3   1300  NAP1300     0.3377
     15  N7A       12.7790   82.6310    4.5210 N.2   1300  NAP1300    -0.2095
     16  C5A       13.4160   81.6060    5.3560 C.2   1300  NAP1300     0.2526
     17  C6A       13.4440   81.4570    6.7970 C.2   1300  NAP1300     0.4393
     18  N6A       12.7140   82.4620    7.5680 N.pl3 1300  NAP1300     0.2180
     19  N1A       14.1190   80.3720    7.3930 N.2   1300  NAP1300     0.0021
     20  C2A       14.7420   79.5090    6.5430 C.3   1300  NAP1300     0.5254
     21  N3A       14.7760   79.5580    5.1660 N.2   1300  NAP1300    -0.0055
     22  C4A       14.0950   80.6260    4.5470 C.2   1300  NAP1300     0.3518
     23  O3        19.0710   79.8110   -2.8340 O.3   1300  NAP1300    -0.2438
     24  PN        18.7030   79.3010   -4.3680 P.3   1300  NAP1300     0.3737
     25  O1N       17.2090   78.6320   -4.9260 O.3   1300  NAP1300    -0.1342
     26  O2N       19.8770   78.1630   -4.3570 O.3   1300  NAP1300    -0.1342
     27  O5D       19.0520   80.4760   -5.4080 O.3   1300  NAP1300    -0.2743
     28  C5D       18.7820   79.1760   -6.5870 C.3   1300  NAP1300     0.2631
     29  C4D       19.7280   79.7690   -7.3530 C.3   1300  NAP1300     0.1903
     30  O4D       20.6960   79.4630   -6.4350 O.3   1300  NAP1300    -0.3320
     31  C3D       20.1210   79.2210   -8.5510 C.3   1300  NAP1300     0.2164
     32  O3D       19.3820   80.1840   -9.4450 O.3   1300  NAP1300    -0.2175
     33  C2D       21.6730   79.1820   -8.4480 C.3   1300  NAP1300     0.2309
     34  O2D       22.0890   80.0360   -9.6110 O.3   1300  NAP1300    -0.2158
     35  C1D       21.9400   79.6910   -7.1570 C.3   1300  NAP1300     0.2263
     36  N1N       22.5210   80.0670   -5.8390 N.pl3 1300  NAP1300    -0.2787
     37  C2N       23.8430   80.2130   -6.2130 C.3   1300  NAP1300     0.1244
     38  C3N       24.7420   80.6170   -5.2480 C.2   1300  NAP1300     0.0544
     39  C7N       26.0360   80.7720   -5.6320 C.2   1300  NAP1300     0.2818
     40  O7N       26.5640   80.5120   -6.9500 O.2   1300  NAP1300    -0.2670
     41  N7N       27.0990   81.1140   -4.8620 N.am  1300  NAP1300    -0.0839
     42  C4N       24.4750   80.8970   -3.9310 C.2   1300  NAP1300     0.0033
     43  C5N       23.0410   80.7460   -3.5310 C.2   1300  NAP1300     0.0157
     44  C6N       22.0240   80.3440   -4.4240 C.2   1300  NAP1300     0.0633
     45  P2B       11.8430   80.7690   -0.3090 P.3   1300  NAP1300     0.5328
     46  O1X       12.2720   82.2020   -1.1850 O.2   1300  NAP1300    -0.2224
     47  O2X       10.4500   80.0880   -1.1370 O.3   1300  NAP1300    -0.1145
     48  O3X       11.4150   81.6880    1.0950 O.3   1300  NAP1300    -0.1145
@<TRIPOS>BOND
     1    34    33    1
     2    32    31    1
     3    31    33    1
     4    31    29    1
     5    33    35    1
     6    29    28    1
     7    29    30    1
     8    35    30    1
     9    35    36    1
    10    40    39    2
    11    28    27    1
    12    28    24    1
    13    37    36    1
    14    37    38    1
    15    36    44    1
    16    39    38    1
    17    39    41   am
    18    27    24    1
    19    38    42    2
    20    25    24    1
    21    44    43    2
    22    24    26    1
    23    24    23    1
    24    42    43    1
    25    23     1    1
    26     2     1    2
    27     3     1    1
    28     1     4    1
    29    46    45    2
    30    47    45    1
    31    45    11    1
    32    45    48    1
    33     9     8    1
    34     4     5    1
    35    11    10    1
    36     8    10    1
    37     8     6    1
    38    10    12    1
    39     5     6    1
    40     6     7    1
    41    12     7    1
    42    12    13    1
    43    14    13    1
    44    14    15    1
    45    13    22    1
    46    15    16    2
    47    22    21    2
    48    22    16    1
    49    21    20    1
    50    16    17    1
    51    20    19    1
    52    17    19    2
    53    17    18    1
