@<TRIPOS>MOLECULE
2grf_HEM_A_1.pdb
 43 50 0 0 0
SMALL
GASTEIGER

@<TRIPOS>ATOM
      1 FE         17.6810    7.8000   20.1600 Fe    147  HEM147      0.0000
      2  CHA       16.6390    9.7490   17.5090 C.2   147  HEM147      0.0000
      3  CHB       14.7190    8.5980   21.7700 C.2   147  HEM147      0.0000
      4  CHC       19.0130    6.9420   23.2280 C.2   147  HEM147      0.0000
      5  CHD       20.8620    7.8070   18.8670 C.2   147  HEM147      0.0000
      6  NA        16.0130    8.8100   19.6940 N.2   147  HEM147      0.0000
      7  C1A       15.7060    9.4510   18.4930 C.2   147  HEM147      0.0000
      8  C2A       14.3130    9.8630   18.4450 C.2   147  HEM147      0.0000
      9  C3A       13.7870    9.5540   19.6530 C.2   147  HEM147      0.0000
     10  C4A       14.8510    8.9540   20.4410 C.2   147  HEM147      0.0000
     11  CMA       12.3260    9.7320   20.0690 C.3   147  HEM147      0.0000
     12  CAA       13.5320   10.4200   17.2560 C.3   147  HEM147      0.0000
     13  CBA       12.8500    9.2980   16.4820 C.3   147  HEM147      0.0000
     14  CGA       13.8250    8.4530   15.6810 C.2   147  HEM147      0.0000
     15  O1A       14.3120    8.9480   14.6440 O.co2 147  HEM147      0.0000
     16  O2A       14.1050    7.3020   16.0900 O.co2 147  HEM147      0.0000
     17  NB        17.0000    7.7120   22.0450 N.ar  147  HEM147      0.0000
     18  C1B       15.7160    7.9840   22.5110 C.ar  147  HEM147      0.0000
     19  C2B       15.5380    7.5760   23.8970 C.ar  147  HEM147      0.0000
     20  C3B       16.7470    7.1370   24.3300 C.ar  147  HEM147      0.0000
     21  C4B       17.6620    7.2640   23.1840 C.ar  147  HEM147      0.0000
     22  CMB       14.2240    7.5720   24.6810 C.3   147  HEM147      0.0000
     23  CAB       17.0590    6.5900   25.5770 C.3   147  HEM147      0.0000
     24  CBB       16.5800    7.0470   26.8610 C.3   147  HEM147      0.0000
     25  NC        19.4990    7.3450   20.8540 N.2   147  HEM147      0.0000
     26  C1C       19.8630    6.9550   22.1370 C.2   147  HEM147      0.0000
     27  C2C       21.2730    6.5990   22.2120 C.2   147  HEM147      0.0000
     28  C3C       21.8150    6.8280   20.9810 C.2   147  HEM147      0.0000
     29  C4C       20.7020    7.3060   20.1500 C.2   147  HEM147      0.0000
     30  CMC       21.9770    6.0290   23.4440 C.3   147  HEM147      0.0000
     31  CAC       23.1350    6.6490   20.5390 C.3   147  HEM147      0.0000
     32  CBC       24.3220    6.3690   21.3190 C.3   147  HEM147      0.0000
     33  ND        18.5410    8.5740   18.5440 N.ar  147  HEM147      0.0000
     34  C1D       19.8720    8.4540   18.1440 C.ar  147  HEM147      0.0000
     35  C2D       20.1480    9.2260   16.9450 C.ar  147  HEM147      0.0000
     36  C3D       18.9930    9.8350   16.6050 C.ar  147  HEM147      0.0000
     37  C4D       17.9800    9.3860   17.5640 C.ar  147  HEM147      0.0000
     38  CMD       21.4840    9.3590   16.2090 C.3   147  HEM147      0.0000
     39  CAD       18.8300   10.8820   15.5020 C.3   147  HEM147      0.0000
     40  CBD       19.1360   12.2980   15.9720 C.3   147  HEM147      0.0000
     41  CGD       18.8850   13.3400   14.8950 C.2   147  HEM147      0.0000
     42  O1D       19.5290   13.2660   13.8280 O.co2 147  HEM147      0.0000
     43  O2D       18.0410   14.2350   15.1170 O.co2 147  HEM147      0.0000
@<TRIPOS>BOND
     1    42    41   ar
     2    15    14   ar
     3    41    43   ar
     4    41    40    1
     5    39    40    1
     6    39    36    1
     7    14    16   ar
     8    14    13    1
     9    38    35    1
    10    13    12    1
    11    36    35   ar
    12    36    37   ar
    13    35    34   ar
    14    12     8    1
    15     2    37    2
    16     2     7    1
    17    37    33   ar
    18    34    33   ar
    19    34     5    2
    20     8     7    1
    21     8     9    2
    22     7     6    2
    23    33     1    1
    24     5    29    1
    25     9    11    1
    26     9    10    1
    27     6     1    1
    28     6    10    1
    29    29    25    2
    30    29    28    1
    31     1    25    1
    32     1    17    1
    33    10     3    2
    34    31    28    1
    35    31    32    1
    36    25    26    1
    37    28    27    2
    38     3    18    1
    39    17    18   ar
    40    17    21   ar
    41    26    27    1
    42    26     4    2
    43    27    30    1
    44    18    19   ar
    45    21     4    1
    46    21    20   ar
    47    19    20   ar
    48    19    22    1
    49    20    23    1
    50    23    24    1
