@<TRIPOS>MOLECULE
2grh_HEM_A_1.pdb
 43 50 0 0 0
SMALL
GASTEIGER

@<TRIPOS>ATOM
      1 FE         42.7890   -2.1710   20.3590 Fe    147  HEM147      0.0000
      2  CHA       41.8800   -0.5810   17.4470 C.2   147  HEM147      0.0000
      3  CHB       39.5270   -1.9860   21.4510 C.2   147  HEM147      0.0000
      4  CHC       43.7650   -3.4610   23.3920 C.2   147  HEM147      0.0000
      5  CHD       45.9670   -2.6010   19.1410 C.2   147  HEM147      0.0000
      6  NA        41.0680   -1.4350   19.6090 N.2   147  HEM147      0.0000
      7  C1A       40.8780   -0.8200   18.3850 C.2   147  HEM147      0.0000
      8  C2A       39.5000   -0.4570   18.2150 C.2   147  HEM147      0.0000
      9  C3A       38.8400   -0.8190   19.3330 C.2   147  HEM147      0.0000
     10  C4A       39.8170   -1.4290   20.2000 C.2   147  HEM147      0.0000
     11  CMA       37.3650   -0.6250   19.6510 C.3   147  HEM147      0.0000
     12  CAA       38.9250    0.1320   16.9370 C.3   147  HEM147      0.0000
     13  CBA       38.7140   -0.9540   15.8960 C.3   147  HEM147      0.0000
     14  CGA       38.5590   -0.3900   14.5010 C.2   147  HEM147      0.0000
     15  O1A       37.7680    0.5590   14.3290 O.co2 147  HEM147      0.0000
     16  O2A       39.2280   -0.9040   13.5770 O.co2 147  HEM147      0.0000
     17  NB        41.8300   -2.6500   22.0530 N.ar  147  HEM147      0.0000
     18  C1B       40.4720   -2.5480   22.3070 C.ar  147  HEM147      0.0000
     19  C2B       40.1900   -3.0200   23.6500 C.ar  147  HEM147      0.0000
     20  C3B       41.3810   -3.3700   24.2230 C.ar  147  HEM147      0.0000
     21  C4B       42.3970   -3.1530   23.2230 C.ar  147  HEM147      0.0000
     22  CMB       38.7950   -3.1540   24.2610 C.3   147  HEM147      0.0000
     23  CAB       41.6470   -3.9190   25.4890 C.3   147  HEM147      0.0000
     24  CBB       40.9380   -3.6380   26.7070 C.3   147  HEM147      0.0000
     25  NC        44.4980   -2.9170   21.1010 N.2   147  HEM147      0.0000
     26  C1C       44.7330   -3.3660   22.3910 C.2   147  HEM147      0.0000
     27  C2C       46.1340   -3.6760   22.5700 C.2   147  HEM147      0.0000
     28  C3C       46.7710   -3.4570   21.3730 C.2   147  HEM147      0.0000
     29  C4C       45.7280   -3.0180   20.4570 C.2   147  HEM147      0.0000
     30  CMC       46.7520   -4.1230   23.9020 C.3   147  HEM147      0.0000
     31  CAC       48.1330   -3.5930   21.0330 C.3   147  HEM147      0.0000
     32  CBC       49.1410   -4.3180   21.7840 C.3   147  HEM147      0.0000
     33  ND        43.7200   -1.6840   18.6620 N.ar  147  HEM147      0.0000
     34  C1D       45.0360   -1.9480   18.3240 C.ar  147  HEM147      0.0000
     35  C2D       45.3390   -1.3670   17.0340 C.ar  147  HEM147      0.0000
     36  C3D       44.2310   -0.7460   16.5900 C.ar  147  HEM147      0.0000
     37  C4D       43.2030   -0.9670   17.5820 C.ar  147  HEM147      0.0000
     38  CMD       46.6770   -1.4350   16.3120 C.3   147  HEM147      0.0000
     39  CAD       44.0980    0.0780   15.3160 C.3   147  HEM147      0.0000
     40  CBD       44.1350    1.5750   15.5600 C.3   147  HEM147      0.0000
     41  CGD       43.8270    2.3620   14.3060 C.2   147  HEM147      0.0000
     42  O1D       44.6590    2.3470   13.3730 O.co2 147  HEM147      0.0000
     43  O2D       42.7470    2.9810   14.2540 O.co2 147  HEM147      0.0000
@<TRIPOS>BOND
     1    42    41   ar
     2    16    14   ar
     3    43    41   ar
     4    41    40    1
     5    15    14   ar
     6    14    13    1
     7    39    40    1
     8    39    36    1
     9    13    12    1
    10    38    35    1
    11    36    35   ar
    12    36    37   ar
    13    12     8    1
    14    35    34   ar
    15     2    37    2
    16     2     7    1
    17    37    33   ar
    18     8     7    1
    19     8     9    2
    20    34    33   ar
    21    34     5    2
    22     7     6    2
    23    33     1    1
    24     5    29    1
    25     9    11    1
    26     9    10    1
    27     6    10    1
    28     6     1    1
    29    10     3    2
    30     1    25    1
    31     1    17    1
    32    29    25    2
    33    29    28    1
    34    31    28    1
    35    31    32    1
    36    25    26    1
    37    28    27    2
    38     3    18    1
    39    17    18   ar
    40    17    21   ar
    41    18    19   ar
    42    26    27    1
    43    26     4    2
    44    27    30    1
    45    21     4    1
    46    21    20   ar
    47    19    20   ar
    48    19    22    1
    49    20    23    1
    50    23    24    1
