@<TRIPOS>MOLECULE
2grj_COD_A_1.pdb
 44 46 0 0 0
SMALL
GASTEIGER

@<TRIPOS>ATOM
      1  N1        47.1970  -16.9630  -32.1880 N.2   201  COD201      0.0021
      2  C2        48.4680  -16.6230  -32.3520 C.3   201  COD201      0.5254
      3  N3        48.8370  -15.4860  -32.9490 N.2   201  COD201     -0.0055
      4  C4        47.9100  -14.6250  -33.4080 C.2   201  COD201      0.3518
      5  C5        46.4950  -14.9540  -33.2840 C.2   201  COD201      0.2526
      6  C6        46.1690  -16.1950  -32.6340 C.2   201  COD201      0.4393
      7  N7        44.8750  -16.5220  -32.5050 N.pl3 201  COD201      0.2180
      8  N8        45.8060  -13.9810  -33.8470 N.2   201  COD201     -0.2095
      9  C9        46.6930  -13.0630  -34.2770 C.3   201  COD201      0.3377
     10  N10       47.9620  -13.4480  -34.0100 N.pl3 201  COD201     -0.1439
     11  C11       49.2480  -12.8130  -34.3810 C.3   201  COD201      0.3186
     12  C12       49.4520  -13.1870  -35.8620 C.3   201  COD201      0.2570
     13  O13       50.8070  -13.3330  -36.2760 O.3   201  COD201     -0.2130
     14  C14       48.8170  -12.0180  -36.5840 C.3   201  COD201      0.2184
     15  O15       49.5650  -11.6590  -37.7600 O.3   201  COD201     -0.2174
     16  C16       48.5630  -10.9720  -35.4340 C.3   201  COD201      0.1821
     17  O17       49.2160  -11.3900  -34.2480 O.3   201  COD201     -0.3135
     18  C18       48.7670   -9.5100  -35.6820 C.3   201  COD201      0.1813
     19  O19       47.5230   -9.2620  -36.3680 O.3   201  COD201     -0.3112
     20  P20       46.1080   -8.7520  -35.7970 P.3   201  COD201      0.2189
     21  O21       45.2930   -9.8640  -35.2680 O.3   201  COD201     -0.4371
     22  O22       45.5550   -8.0000  -36.9650 O.2   201  COD201     -0.5170
     23  O23       46.4410   -7.8700  -34.4690 O.3   201  COD201     -0.2703
     24  P24       45.3320   -7.1010  -33.5740 P.3   201  COD201      0.2188
     25  O25       44.6510   -6.1580  -34.5120 O.2   201  COD201     -0.5170
     26  O26       46.0040   -6.5890  -32.3350 O.3   201  COD201     -0.4371
     27  O27       44.1640   -8.1010  -33.1200 O.3   201  COD201     -0.3138
     28  C28       44.4020   -8.8910  -31.9600 C.3   201  COD201      0.1519
     29  C29       43.2440   -9.8280  -31.7810 C.3   201  COD201      0.0645
     30  C30       41.9900   -8.9740  -31.7930 C.3   201  COD201      0.0056
     31  C31       43.4100  -10.4440  -30.4150 C.3   201  COD201      0.0056
     32  C32       43.2800  -10.9800  -32.8090 C.3   201  COD201      0.2312
     33  O33       43.8930  -10.5370  -33.9920 O.3   201  COD201     -0.2131
     34  C34       41.9010  -11.4330  -33.1480 C.2   201  COD201      0.2719
     35  O35       41.0480  -10.6950  -33.6630 O.2   201  COD201     -0.2706
     36  N36       41.6220  -12.6920  -33.0510 N.am  201  COD201     -0.2028
     37  C37       42.5180  -13.7090  -33.3760 C.3   201  COD201      0.1248
     38  C38       41.8370  -14.3960  -34.5880 C.3   201  COD201      0.1102
     39  C39       42.9310  -14.9840  -35.4480 C.2   201  COD201      0.2432
     40  O40       43.2360  -16.1560  -35.3220 O.2   201  COD201     -0.2733
     41  N41       43.5280  -14.0900  -36.2350 N.am  201  COD201     -0.2044
     42  C42       44.7120  -14.3370  -37.0020 C.3   201  COD201      0.1276
     43  C43       44.3950  -15.0490  -38.2890 C.3   201  COD201      0.0920
     44  S44       45.9400  -15.4730  -39.1580 S.3   201  COD201     -0.0802
@<TRIPOS>BOND
     1    44    43    1
     2    43    42    1
     3    15    14    1
     4    42    41    1
     5    22    20    2
     6    14    12    1
     7    14    16    1
     8    19    20    1
     9    19    18    1
    10    13    12    1
    11    41    39   am
    12    12    11    1
    13    20    21    1
    14    20    23    1
    15    18    16    1
    16    39    40    2
    17    39    38    1
    18    16    17    1
    19    38    37    1
    20    25    24    2
    21    23    24    1
    22    11    17    1
    23    11    10    1
    24     9    10    1
    25     9     8    1
    26    10     4    1
    27    33    32    1
    28     8     5    2
    29    35    34    2
    30    24    27    1
    31    24    26    1
    32     4     5    1
    33     4     3    2
    34    37    36    1
    35     5     6    1
    36    34    36   am
    37    34    32    1
    38    27    28    1
    39     3     2    1
    40    32    29    1
    41     6     7    1
    42     6     1    2
    43     2     1    1
    44    28    29    1
    45    30    29    1
    46    29    31    1
