@<TRIPOS>MOLECULE
2grj_ADP_A_1.pdb
 27 29 0 0 0
SMALL
GASTEIGER

@<TRIPOS>ATOM
      1  PB        54.6800  -10.8920  -40.9460 P.3   200  ADP200      0.5373
      2  O1B       54.1460  -10.7810  -39.5470 O.3   200  ADP200     -0.1143
      3  O2B       53.7730  -10.3310  -42.0110 O.2   200  ADP200     -0.2221
      4  O3B       55.2410  -12.2700  -41.2060 O.3   200  ADP200     -0.1143
      5  PA        56.0820   -8.6350  -42.0120 P.3   200  ADP200      0.2231
      6  O1A       56.3710   -8.8820  -43.4620 O.2   200  ADP200     -0.5169
      7  O2A       54.9330   -7.7780  -41.5020 O.3   200  ADP200     -0.4370
      8  O3A       56.0200   -9.9890  -41.1390 O.3   200  ADP200     -0.2261
      9  O5'       57.4720   -7.9310  -41.6650 O.3   200  ADP200     -0.3111
     10  C5'       57.6360   -7.4340  -40.3440 C.3   200  ADP200      0.1813
     11  C4'       58.4720   -6.1810  -40.4030 C.3   200  ADP200      0.1821
     12  O4'       59.8000   -6.5820  -40.7200 O.3   200  ADP200     -0.3135
     13  C3'       57.9900   -5.2600  -41.5000 C.3   200  ADP200      0.2184
     14  O3'       57.8950   -3.9560  -40.9940 O.3   200  ADP200     -0.2174
     15  C2'       59.0390   -5.2910  -42.5760 C.3   200  ADP200      0.2570
     16  O2'       59.1860   -3.9840  -43.1560 O.3   200  ADP200     -0.2130
     17  C1'       60.2690   -5.8340  -41.8460 C.3   200  ADP200      0.3186
     18  N9        61.0880   -6.7350  -42.6930 N.pl3 200  ADP200     -0.1439
     19  C8        60.6770   -7.8490  -43.3320 C.3   200  ADP200      0.3377
     20  N7        61.6780   -8.4730  -44.0030 N.2   200  ADP200     -0.2095
     21  C5        62.7440   -7.6930  -43.7950 C.2   200  ADP200      0.2526
     22  C6        64.1260   -7.7310  -44.2170 C.2   200  ADP200      0.4393
     23  N6        64.5220   -8.7320  -44.9970 N.pl3 200  ADP200      0.2180
     24  N1        64.9440   -6.7660  -43.7990 N.2   200  ADP200      0.0021
     25  C2        64.5430   -5.7660  -42.9910 C.3   200  ADP200      0.5254
     26  N3        63.2900   -5.6560  -42.5410 N.2   200  ADP200     -0.0055
     27  C4        62.3690   -6.5730  -42.9230 C.2   200  ADP200      0.3518
@<TRIPOS>BOND
     1    23    22    1
     2    22    24    2
     3    22    21    1
     4    20    21    2
     5    20    19    1
     6    24    25    1
     7    21    27    1
     8     6     5    2
     9    19    18    1
    10    16    15    1
    11    25    26    1
    12    27    18    1
    13    27    26    2
    14    18    17    1
    15    15    17    1
    16    15    13    1
    17     5     9    1
    18     5     7    1
    19     5     8    1
    20     3     1    2
    21    17    12    1
    22     9    10    1
    23    13    14    1
    24    13    11    1
    25     4     1    1
    26     8     1    1
    27     1     2    1
    28    12    11    1
    29    11    10    1
