@<TRIPOS>MOLECULE
2grt_GDS_A_1.pdb
 40 39 0 0 0
SMALL
GASTEIGER

@<TRIPOS>ATOM
      1  N1        65.1190   36.7080   23.1050 N.3   481  GDS481     -0.1208
      2  CA1       65.6670   37.9800   22.5210 C.3   481  GDS481      0.1948
      3  C1        65.4290   39.2210   23.4420 C.2   481  GDS481      0.3819
      4  OE1       66.1540   40.2500   23.2680 O.co2 481  GDS481     -0.2441
      5  OE2       64.5240   39.1290   24.3380 O.co2 481  GDS481     -0.2441
      6  CB1       65.1520   38.1940   21.0620 C.3   481  GDS481      0.0402
      7  CG1       63.7010   37.6810   20.7800 C.3   481  GDS481      0.0889
      8  CD1       62.6720   38.8140   20.5430 C.2   481  GDS481      0.2418
      9  O1        61.4520   38.5410   20.4870 O.2   481  GDS481     -0.2733
     10  N2        63.2120   39.9590   20.1000 N.am  481  GDS481     -0.1968
     11  CA2       62.4900   41.2180   19.7580 C.3   481  GDS481      0.1843
     12  C2        61.3390   41.7580   20.6300 C.2   481  GDS481      0.2627
     13  O2        60.8120   42.8480   20.3270 O.2   481  GDS481     -0.2714
     14  CB2       61.9970   41.2010   18.2900 C.3   481  GDS481      0.0997
     15  SG2       63.1980   40.8810   16.9380 S.3   481  GDS481     -0.0797
     16  N3        60.8170   40.9170   21.5250 N.am  481  GDS481     -0.1917
     17  CA3       59.7090   41.3100   22.3850 C.3   481  GDS481      0.2285
     18  C3        59.7310   40.6440   23.7530 C.2   481  GDS481      0.3865
     19  OE3       59.5720   41.3880   24.7330 O.co2 481  GDS481     -0.2437
     20  OE4       59.9110   39.4050   23.8560 O.co2 481  GDS481     -0.2437
     21  N4        61.1550   35.5990   17.3540 N.am  481  GDS481     -0.1917
     22  CA4       59.8950   34.9140   17.2300 C.3   481  GDS481      0.2285
     23  C4        59.6460   34.2510   18.5640 C.2   481  GDS481      0.3865
     24  OE5       59.5690   32.9990   18.6020 O.co2 481  GDS481     -0.2437
     25  OE6       59.5700   34.9890   19.5790 O.co2 481  GDS481     -0.2437
     26  C5        62.0040   35.6590   16.3400 C.2   481  GDS481      0.2627
     27  O5        62.0420   34.8250   15.4280 O.2   481  GDS481     -0.2714
     28  CA5       63.2520   36.4040   16.7200 C.3   481  GDS481      0.1843
     29  N5        64.4150   35.5600   16.3780 N.am  481  GDS481     -0.1968
     30  CB5       63.2670   37.8460   16.1280 C.3   481  GDS481      0.0997
     31  SG5       64.0050   39.0320   17.3140 S.3   481  GDS481     -0.0797
     32  CA6       68.6970   35.0630   17.0210 C.3   481  GDS481      0.1948
     33  C6        69.0280   36.1180   16.0110 C.2   481  GDS481      0.3819
     34  OE7       68.8690   37.3030   16.3460 O.co2 481  GDS481     -0.2441
     35  OE8       69.4800   35.7520   14.9160 O.co2 481  GDS481     -0.2441
     36  N6        68.8960   35.6940   18.3370 N.3   481  GDS481     -0.1208
     37  CB6       67.2600   34.5230   16.8800 C.3   481  GDS481      0.0402
     38  CG6       66.5330   34.7940   15.5560 C.3   481  GDS481      0.0889
     39  CD6       65.5020   35.9300   15.6960 C.2   481  GDS481      0.2418
     40  O6        65.6120   37.0310   15.0780 O.2   481  GDS481     -0.2733
@<TRIPOS>BOND
     1    35    33   ar
     2    40    39    2
     3    27    26    2
     4    38    39    1
     5    38    37    1
     6    39    29   am
     7    33    34   ar
     8    33    32    1
     9    30    28    1
    10    30    31    1
    11    26    28    1
    12    26    21   am
    13    29    28    1
    14    37    32    1
    15    15    31    1
    16    15    14    1
    17    32    36    1
    18    22    21    1
    19    22    23    1
    20    14    11    1
    21    23    24   ar
    22    23    25   ar
    23    11    10    1
    24    11    12    1
    25    10     8   am
    26    13    12    2
    27     9     8    2
    28     8     7    1
    29    12    16   am
    30     7     6    1
    31     6     2    1
    32    16    17    1
    33    17    18    1
    34     2     1    1
    35     2     3    1
    36     4     3   ar
    37     3     5   ar
    38    18    20   ar
    39    18    19   ar
