@<TRIPOS>MOLECULE
2gru_NAD_A_1.pdb
 44 48 0 0 0
SMALL
GASTEIGER

@<TRIPOS>ATOM
      1  PA         3.4410    7.2310   10.9850 P.3   603  NAD603      0.2189
      2  O1A        4.7240    6.5060   11.0450 O.3   603  NAD603     -0.4371
      3  O2A        2.9660    7.7170    9.6880 O.2   603  NAD603     -0.5170
      4  O5B        2.1270    6.4130   11.6500 O.3   603  NAD603     -0.3112
      5  C5B        2.2910    5.6700   12.8630 C.3   603  NAD603      0.1813
      6  C4B        1.3070    4.4880   12.9360 C.3   603  NAD603      0.1821
      7  O4B       -0.0440    5.0630   13.1020 O.3   603  NAD603     -0.3135
      8  C3B        1.0760    3.6040   11.7320 C.3   603  NAD603      0.2184
      9  O3B        1.1890    2.0960   11.8600 O.3   603  NAD603     -0.2174
     10  C2B       -0.0020    4.1990   10.9820 C.3   603  NAD603      0.2570
     11  O2B       -0.4850    3.4390    9.9600 O.3   603  NAD603     -0.2130
     12  C1B       -0.9620    4.5380   12.0830 C.3   603  NAD603      0.3186
     13  N9A       -1.9610    5.5720   12.1210 N.pl3 603  NAD603     -0.1439
     14  C8A       -2.0890    6.6900   11.4000 C.3   603  NAD603      0.3377
     15  N7A       -3.2020    7.3590   11.7770 N.2   603  NAD603     -0.2095
     16  C5A       -3.7400    6.6990   12.8160 C.2   603  NAD603      0.2526
     17  C6A       -4.8560    6.8990   13.6820 C.2   603  NAD603      0.4393
     18  N6A       -5.6770    7.9510   13.6160 N.pl3 603  NAD603      0.2180
     19  N1A       -5.1320    5.9380   14.5950 N.2   603  NAD603      0.0021
     20  C2A       -4.3430    4.8500   14.7530 C.3   603  NAD603      0.5254
     21  N3A       -3.2520    4.6440   13.9890 N.2   603  NAD603     -0.0055
     22  C4A       -2.9460    5.5400   13.0070 C.2   603  NAD603      0.3518
     23  O3         3.4790    8.3130   12.2270 O.3   603  NAD603     -0.2703
     24  PN         3.7680    9.9180   12.2550 P.3   603  NAD603      0.2189
     25  O1N        2.5990   10.6690   11.7860 O.2   603  NAD603     -0.5170
     26  O2N        4.2840   10.1750   13.5740 O.3   603  NAD603     -0.4371
     27  O5D        5.0460   10.1750   11.1770 O.3   603  NAD603     -0.3112
     28  C5D        6.3570    9.5110   11.1290 C.3   603  NAD603      0.1813
     29  C4D        6.9050    9.4790    9.6920 C.3   603  NAD603      0.1799
     30  O4D        6.6690   10.8420    9.2580 O.3   603  NAD603     -0.3327
     31  C3D        8.3720    9.1960    9.3380 C.3   603  NAD603      0.2158
     32  O3D        8.3800    8.5050    8.0570 O.3   603  NAD603     -0.2175
     33  C2D        8.9540   10.6350    9.2820 C.3   603  NAD603      0.2309
     34  O2D       10.2900   10.8270    8.6850 O.3   603  NAD603     -0.2158
     35  C1D        7.8190   11.3660    8.5530 C.3   603  NAD603      0.2263
     36  N1N        7.8920   12.8700    8.6980 N.pl3 603  NAD603     -0.2787
     37  C2N        8.0060   13.7490    7.5650 C.3   603  NAD603      0.1244
     38  C3N        8.1160   15.1390    7.7860 C.2   603  NAD603      0.0544
     39  C7N        8.2360   16.1710    6.6550 C.2   603  NAD603      0.2818
     40  O7N        9.0200   17.2690    6.9190 O.2   603  NAD603     -0.2670
     41  N7N        7.5400   15.8820    5.5600 N.am  603  NAD603     -0.0839
     42  C4N        8.1060   15.6650    9.0980 C.2   603  NAD603      0.0033
     43  C5N        7.9860   14.8280   10.2180 C.2   603  NAD603      0.0157
     44  C6N        7.8750   13.4340   10.0110 C.2   603  NAD603      0.0633
@<TRIPOS>BOND
     1    41    39   am
     2    39    40    2
     3    39    38    1
     4    37    38    1
     5    37    36    1
     6    38    42    2
     7    32    31    1
     8    35    36    1
     9    35    30    1
    10    35    33    1
    11    34    33    1
    12    36    44    1
    13    42    43    1
    14    30    29    1
    15    33    31    1
    16    31    29    1
    17     3     1    2
    18    29    28    1
    19    11    10    1
    20    44    43    2
    21    10     8    1
    22    10    12    1
    23     1     2    1
    24     1     4    1
    25     1    23    1
    26    28    27    1
    27    27    24    1
    28    14    15    1
    29    14    13    1
    30     4     5    1
    31     8     9    1
    32     8     6    1
    33    15    16    2
    34    25    24    2
    35    12    13    1
    36    12     7    1
    37    13    22    1
    38    23    24    1
    39    24    26    1
    40    16    22    1
    41    16    17    1
    42     5     6    1
    43     6     7    1
    44    22    21    2
    45    18    17    1
    46    17    19    2
    47    21    20    1
    48    19    20    1
