@<TRIPOS>MOLECULE
2gru_EXO_A_1.pdb
 11 11 0 0 0
SMALL
GASTEIGER

@<TRIPOS>ATOM
      1  OBG       11.4980   16.0160   12.3280 O.3   607  EXO607     -0.2158
      2  CBA       10.7730   17.0690   11.6660 C.3   607  EXO607      0.2032
      3  CBB       10.7040   18.2730   12.5850 C.3   607  EXO607      0.2186
      4  OBI       10.1250   17.9140   13.8460 O.3   607  EXO607     -0.2172
      5  CBF       11.5340   17.5320   10.4530 C.2   607  EXO607     -0.0093
      6  CBH       12.5670   16.8230   10.0420 C.2   607  EXO607     -0.0065
      7  CBE       11.1380   18.8040    9.6950 C.3   607  EXO607      0.0602
      8  CBD       10.7240   19.9860   10.6000 C.3   607  EXO607      0.1889
      9  OBK        9.9680   20.8870    9.7400 O.3   607  EXO607     -0.2200
     10  CBC       10.0110   19.4880   11.9100 C.3   607  EXO607      0.2154
     11  OBJ        9.7640   20.4680   12.9520 O.3   607  EXO607     -0.2176
@<TRIPOS>BOND
     1     7     5    1
     2     7     8    1
     3     9     8    1
     4     6     5    2
     5     5     2    1
     6     8    10    1
     7     2     1    1
     8     2     3    1
     9    10     3    1
    10    10    11    1
    11     3     4    1
