@<TRIPOS>MOLECULE
2gru_CAK_B_1.pdb
 16 16 0 0 0
SMALL
GASTEIGER

@<TRIPOS>ATOM
      1  OAN        8.0330   14.4520  -23.4860 O.2   609  CAK609     -0.2224
      2  PAM        8.6280   15.3530  -22.4480 P.3   609  CAK609      0.5326
      3  OAO        9.5660   14.5890  -21.5860 O.3   609  CAK609     -0.1145
      4  OAP        7.6250   16.2350  -21.6980 O.3   609  CAK609     -0.1145
      5  OAL        9.4210   16.5800  -23.1950 O.3   609  CAK609     -0.2702
      6  CAK       10.4700   16.3870  -24.1340 C.3   609  CAK609      0.1564
      7  CAF       10.7030   17.6360  -25.0180 C.3   609  CAK609      0.0659
      8  CAA       11.6480   17.2560  -26.1590 C.3   609  CAK609      0.1872
      9  OAG       11.2180   16.0890  -26.8800 O.3   609  CAK609     -0.2202
     10  CAB       11.7310   18.4560  -27.0990 C.3   609  CAK609      0.2148
     11  OAH       12.3480   18.1120  -28.3690 O.3   609  CAK609     -0.2176
     12  CAC       12.4380   19.6210  -26.3920 C.3   609  CAK609      0.2147
     13  OAI       12.5420   20.7150  -27.3230 O.3   609  CAK609     -0.2176
     14  CAD       11.6890   20.0650  -25.1060 C.3   609  CAK609      0.1849
     15  OAJ       12.4630   21.0580  -24.3610 O.3   609  CAK609     -0.2203
     16  CAE       11.2700   18.8510  -24.2370 C.3   609  CAK609      0.0408
@<TRIPOS>BOND
     1    11    10    1
     2    13    12    1
     3    10    12    1
     4    10     8    1
     5     9     8    1
     6    12    14    1
     7     8     7    1
     8    14    15    1
     9    14    16    1
    10     7    16    1
    11     7     6    1
    12     6     5    1
    13     1     2    2
    14     5     2    1
    15     2     4    1
    16     2     3    1
