@<TRIPOS>MOLECULE
2grx_FCI_A_1.pdb
 46 51 0 0 0
SMALL
GASTEIGER

@<TRIPOS>ATOM
      1  C1        67.6970   16.6140   35.3730 C.1   1050  FCI1050     0.0000
      2  C2        66.3630   22.9010   35.1110 C.1   1050  FCI1050     0.0000
      3  C3        67.0330   12.9670   30.2320 C.3   1050  FCI1050     0.0000
      4  C4        64.3370   15.5690   34.7400 C.1   1050  FCI1050     0.0000
      5  C5        67.2260   20.2540   36.0460 C.1   1050  FCI1050     0.0000
      6  C6        62.4160   14.9850   29.3850 C.3   1050  FCI1050     0.0000
      7  C7        63.4830   18.4470   33.8630 C.1   1050  FCI1050     0.0000
      8  C8        63.8100   22.1120   33.2850 C.1   1050  FCI1050     0.0000
      9  C9        66.2380   17.5110   29.1120 C.3   1050  FCI1050     0.0000
     10  C10       66.7710   15.5160   34.8640 C.2   1050  FCI1050     0.0000
     11  C11       67.2190   22.6810   36.3590 C.3   1050  FCI1050     0.0000
     12  C13       63.0860   16.0570   34.0150 C.3   1050  FCI1050     0.0000
     13  C14       68.0100   18.9640   36.0280 C.3   1050  FCI1050     0.0000
     14  C16       63.7410   19.7040   33.0310 C.3   1050  FCI1050     0.0000
     15  C17       64.1550   23.3440   34.1100 C.3   1050  FCI1050     0.0000
     16  C18       67.5120   14.3460   34.2220 C.3   1050  FCI1050     0.0000
     17  C21       62.4300   14.9180   33.2160 C.3   1050  FCI1050     0.0000
     18  C24       64.7400   19.4360   31.8990 C.3   1050  FCI1050     0.0000
     19  C25       66.6190   13.1510   33.9450 C.3   1050  FCI1050     0.0000
     20  C27       61.0880   15.2630   32.5820 C.3   1050  FCI1050     0.0000
     21  C29       66.1350   19.0910   32.3840 C.3   1050  FCI1050     0.0000
     22  C30       67.0860   12.4110   32.7230 C.3   1050  FCI1050     0.0000
     23  C32       61.2430   16.1420   31.3440 C.3   1050  FCI1050     0.0000
     24  C34       67.0450   18.6850   31.2360 C.3   1050  FCI1050     0.0000
     25 FE         65.1030   15.1280   30.1010 Fe    1050  FCI1050     0.0000
     26  N1        65.5190   15.8510   34.2030 N.2   1050  FCI1050     0.0000
     27  N2        67.8720   21.3790   36.3360 N.2   1050  FCI1050     0.0000
     28  N3        63.2920   17.2800   33.2510 N.2   1050  FCI1050     0.0000
     29  N4        64.0610   20.9070   33.7780 N.2   1050  FCI1050     0.0000
     30  N5        66.5770   13.0340   31.4920 N.4   1050  FCI1050     0.0000
     31  N6        62.3860   15.7470   30.4900 N.4   1050  FCI1050     0.0000
     32  N7        67.2190   17.8460   35.5260 N.2   1050  FCI1050     0.0000
     33  N8        66.4690   17.5970   30.4360 N.4   1050  FCI1050     0.0000
     34  N9        65.0530   23.0920   35.2350 N.2   1050  FCI1050     0.0000
     35  O1        68.8900   16.3700   35.6570 O.2   1050  FCI1050     0.0000
     36  O2        66.8790   22.8810   33.9750 O.2   1050  FCI1050     0.0000
     37  O3        66.4380   13.5790   29.3230 O.3   1050  FCI1050     0.0000
     38  O4        64.2670   14.9270   35.8070 O.2   1050  FCI1050     0.0000
     39  O5        66.0000   20.2670   35.8120 O.2   1050  FCI1050     0.0000
     40  O6        63.5040   14.7710   28.8070 O.3   1050  FCI1050     0.0000
     41  O7        63.4390   18.5160   35.1100 O.2   1050  FCI1050     0.0000
     42  O8        65.7280   16.4750   28.6350 O.3   1050  FCI1050     0.0000
     43  O10       65.4560   13.7930   31.7040 O.3   1050  FCI1050     0.0000
     44  O11       63.5920   16.2540   30.9150 O.3   1050  FCI1050     0.0000
     45  O14       66.1240   16.5200   31.1930 O.3   1050  FCI1050     0.0000
     46  O17       63.2630   22.2140   32.1630 O.2   1050  FCI1050     0.0000
@<TRIPOS>BOND
     1    42     9    1
     2    42    25    1
     3    40     6    1
     4    40    25    1
     5     9    33    1
     6    37    25    1
     7    37     3    1
     8     6    31    1
     9    25    44    1
    10    25    45    1
    11    25    43    1
    12     3    30    1
    13    33    45    1
    14    33    24    1
    15    31    44    1
    16    31    23    1
    17    24    21    1
    18    23    20    1
    19    30    43    1
    20    30    22    1
    21    18    21    1
    22    18    14    1
    23    46     8    2
    24    20    17    1
    25    22    19    1
    26    14    29    1
    27    14     7    1
    28    17    12    1
    29    28     7    2
    30    28    12    1
    31     8    29    2
    32     8    15    1
    33     7    41    2
    34    19    16    1
    35    36     2    2
    36    12     4    1
    37    15    34    1
    38    26     4    2
    39    26    10    2
    40    16    10    1
    41     4    38    2
    42    10     1    1
    43     2    34    2
    44     2    11    1
    45     1    32    2
    46     1    35    2
    47    32    13    1
    48    39     5    2
    49    13     5    1
    50     5    27    2
    51    27    11    1
