@<TRIPOS>MOLECULE
2gry_ADP_A_1.pdb
 27 29 0 0 0
SMALL
GASTEIGER

@<TRIPOS>ATOM
      1  PB        34.6450  -17.1620   18.5360 P.3   601  ADP601      0.5373
      2  O1B       35.9330  -17.9240   18.2940 O.2   601  ADP601     -0.2221
      3  O2B       33.3940  -17.9260   18.3480 O.3   601  ADP601     -0.1143
      4  O3B       34.6310  -16.3470   19.8310 O.3   601  ADP601     -0.1143
      5  PA        34.9440  -14.5000   17.3570 P.3   601  ADP601      0.2231
      6  O1A       33.7280  -13.8600   17.9470 O.3   601  ADP601     -0.4370
      7  O2A       36.3420  -14.1100   17.7400 O.2   601  ADP601     -0.5169
      8  O3A       34.7070  -16.0860   17.3370 O.3   601  ADP601     -0.2261
      9  O5'       34.8510  -14.1260   15.7880 O.3   601  ADP601     -0.3111
     10  C5'       35.8970  -14.3990   14.8290 C.3   601  ADP601      0.1813
     11  C4'       36.1140  -13.1910   13.8950 C.3   601  ADP601      0.1821
     12  O4'       34.9200  -12.9100   13.1550 O.3   601  ADP601     -0.3135
     13  C3'       36.4440  -11.9070   14.6520 C.3   601  ADP601      0.2184
     14  O3'       37.4020  -11.2310   13.8430 O.3   601  ADP601     -0.2174
     15  C2'       35.1150  -11.1470   14.7250 C.3   601  ADP601      0.2570
     16  O2'       35.2500   -9.7120   14.8190 O.3   601  ADP601     -0.2130
     17  C1'       34.3680  -11.6070   13.4550 C.3   601  ADP601      0.3186
     18  N9        32.8790  -11.6970   13.6330 N.pl3 601  ADP601     -0.1439
     19  C8        32.2190  -12.6360   14.3570 C.3   601  ADP601      0.3377
     20  N7        30.8620  -12.4490   14.3090 N.2   601  ADP601     -0.2095
     21  C5        30.6290  -11.3660   13.5590 C.2   601  ADP601      0.2526
     22  C6        29.4200  -10.6250   13.1240 C.2   601  ADP601      0.4393
     23  N6        28.1890  -11.0350   13.5000 N.pl3 601  ADP601      0.2180
     24  N1        29.5870   -9.5320   12.3360 N.2   601  ADP601      0.0021
     25  C2        30.8230   -9.1230   11.9590 C.3   601  ADP601      0.5254
     26  N3        31.9700   -9.7570   12.3290 N.2   601  ADP601     -0.0055
     27  C4        31.9420  -10.8720   13.1070 C.2   601  ADP601      0.3518
@<TRIPOS>BOND
     1    25    26    1
     2    25    24    1
     3    26    27    2
     4    24    22    2
     5    27    21    1
     6    27    18    1
     7    22    23    1
     8    22    21    1
     9    12    17    1
    10    12    11    1
    11    17    18    1
    12    17    15    1
    13    21    20    2
    14    18    19    1
    15    14    13    1
    16    11    13    1
    17    11    10    1
    18    20    19    1
    19    13    15    1
    20    15    16    1
    21    10     9    1
    22     9     5    1
    23     8     5    1
    24     8     1    1
    25     5     7    2
    26     5     6    1
    27     2     1    2
    28     3     1    1
    29     1     4    1
