@<TRIPOS>MOLECULE
2gs6_III_B_1.pdb
 37 37 0 0 0
SMALL
GASTEIGER

@<TRIPOS>ATOM
      1  N        128.0820   23.3050   43.6470 N.3     4  GLU4       -0.1231
      2  CA       127.8820   23.1400   45.1150 C.3     4  GLU4        0.1694
      3  C        126.9780   24.2400   45.6540 C.2     4  GLU4        0.2592
      4  O        127.3450   24.9530   46.5890 O.2     4  GLU4       -0.2718
      5  CB       129.2290   23.1670   45.8340 C.3     4  GLU4        0.0304
      6  N        125.8010   24.3740   45.0460 N.am    5  ILE5       -0.1966
      7  CA       124.8000   25.3680   45.4420 C.3     5  ILE5        0.1727
      8  C        125.3260   26.8020   45.4340 C.2     5  ILE5        0.2616
      9  O        126.2080   27.1460   46.2210 O.2     5  ILE5       -0.2715
     10  CB       124.2510   25.0790   46.8600 C.3     5  ILE5        0.0290
     11  CG1      124.1180   23.5730   47.0790 C.3     5  ILE5        0.0022
     12  CG2      122.9010   25.7460   47.0370 C.3     5  ILE5        0.0023
     13  CD1      123.3200   22.8690   46.0250 C.3     5  ILE5        0.0001
     14  N        124.7810   27.6400   44.5540 N.am    6  TYR6       -0.1960
     15  CA       125.2040   29.0380   44.4760 C.3     6  TYR6        0.1771
     16  C        124.0920   29.9640   43.9900 C.2     6  TYR6        0.2620
     17  O        123.0760   29.5070   43.4660 O.2     6  TYR6       -0.2715
     18  CB       126.4200   29.1860   43.5510 C.3     6  TYR6        0.0574
     19  CG       127.6580   28.4960   44.0540 C.ar    6  TYR6       -0.0200
     20  CD1      128.0180   27.2390   43.5710 C.ar    6  TYR6       -0.0042
     21  CD2      128.4600   29.0970   45.0210 C.ar    6  TYR6       -0.0042
     22  CE1      129.1620   26.5910   44.0450 C.ar    6  TYR6       -0.0003
     23  CE2      129.6040   28.4570   45.5020 C.ar    6  TYR6       -0.0003
     24  CZ       129.9550   27.2010   45.0120 C.ar    6  TYR6       -0.0000
     25  N        124.2930   31.2680   44.1780 N.am    7  GLY7       -0.1940
     26  CA       123.3220   32.2580   43.7380 C.3     7  GLY7        0.2014
     27  C        122.1060   32.4470   44.6260 C.2     7  GLY7        0.2638
     28  O        121.5550   31.4810   45.1470 O.2     7  GLY7       -0.2714
     29  N        121.6800   33.6980   44.7870 N.am    8  GLU8       -0.1977
     30  CA       120.5200   34.0170   45.6150 C.3     8  GLU8        0.1602
     31  C        119.7260   35.1900   45.0460 C.2     8  GLU8        0.2287
     32  O        118.6480   35.4950   45.6030 O.2     8  GLU8       -0.2864
     33  CB       120.9550   34.3650   47.0350 C.3     8  GLU8        0.0415
     34  CG       121.7700   35.6350   47.1210 C.3     8  GLU8        0.1163
     35  CD       121.5640   36.3510   48.4320 C.2     8  GLU8        0.3649
     36  OE1      121.8830   35.7700   49.4900 O.co2   8  GLU8       -0.2457
     37  OE2      121.0730   37.4970   48.4010 O.co2   8  GLU8       -0.2457
@<TRIPOS>BOND
     1    17    16    2
     2    18    19    1
     3    18    15    1
     4    20    22   ar
     5    20    19   ar
     6     1     2    1
     7    26    25    1
     8    26    27    1
     9    16    25   am
    10    16    15    1
    11    22    24   ar
    12    19    21   ar
    13    15    14    1
    14    14     8   am
    15    27    29   am
    16    27    28    2
    17    29    30    1
    18    24    23   ar
    19    21    23   ar
    20     6     7    1
    21     6     3   am
    22    31    32    2
    23    31    30    1
    24     2     3    1
    25     2     5    1
    26     8     7    1
    27     8     9    2
    28     7    10    1
    29    30    33    1
    30     3     4    2
    31    13    11    1
    32    10    12    1
    33    10    11    1
    34    33    34    1
    35    34    35    1
    36    37    35   ar
    37    35    36   ar
