@<TRIPOS>MOLECULE
2gs6_112_B_1.pdb
 35 37 0 0 0
SMALL
GASTEIGER

@<TRIPOS>ATOM
      1  NS       131.1580   26.5970   45.5570 N.am  101  112101     -0.0870
      2  C2S      132.4010   26.7030   46.0380 C.2   101  112101      0.2723
      3  O2S      132.6060   27.6350   46.8450 O.2   101  112101     -0.2707
      4  C1S      133.5430   25.7530   45.6420 C.3   101  112101      0.1571
      5  PG       134.8820   23.5400   46.7210 P.3   101  112101      0.4244
      6  S1G      133.4210   24.1470   46.2900 S.3   101  112101     -0.0186
      7  O2G      134.7550   22.3890   47.6790 O.3   101  112101     -0.1310
      8  O3G      135.6040   23.3340   45.3860 O.2   101  112101     -0.2432
      9  PB       136.9190   25.7260   47.1820 P.3   101  112101      0.2262
     10  O1B      136.9420   26.8510   48.1580 O.3   101  112101     -0.4369
     11  O2B      136.7990   26.0090   45.7270 O.2   101  112101     -0.5168
     12  O3B      135.7380   24.7250   47.6120 O.3   101  112101     -0.2410
     13  PA       139.2910   24.7040   48.7150 P.3   101  112101      0.2189
     14  O1A      140.6550   25.2840   48.4920 O.2   101  112101     -0.5170
     15  O2A      138.5480   25.0530   49.9480 O.3   101  112101     -0.4371
     16  O3A      138.3450   25.0310   47.4100 O.3   101  112101     -0.2701
     17  O5'      139.4440   23.0870   48.5810 O.3   101  112101     -0.3112
     18  C5'      139.9380   22.4700   47.3540 C.3   101  112101      0.1813
     19  C4'      140.3890   21.0140   47.5890 C.3   101  112101      0.1821
     20  O4'      141.6970   20.9720   48.2120 O.3   101  112101     -0.3135
     21  C3'      139.4080   20.1910   48.4910 C.3   101  112101      0.2184
     22  O3'      138.8980   18.9680   47.8920 O.3   101  112101     -0.2174
     23  C2'      140.1660   19.9360   49.7930 C.3   101  112101      0.2570
     24  O2'      139.8860   18.6280   50.3380 O.3   101  112101     -0.2130
     25  C1'      141.6340   20.1830   49.4170 C.3   101  112101      0.3186
     26  N9       142.3720   20.9180   50.5200 N.pl3 101  112101     -0.1439
     27  C8       142.2020   22.2150   50.8580 C.3   101  112101      0.3377
     28  N7       143.0140   22.5230   51.8660 N.2   101  112101     -0.2095
     29  C5       143.7150   21.4510   52.1960 C.2   101  112101      0.2526
     30  C6       144.7160   21.1700   53.1700 C.2   101  112101      0.4393
     31  N6       145.1460   22.1110   54.0150 N.pl3 101  112101      0.2180
     32  N1       145.2410   19.8860   53.2240 N.2   101  112101      0.0021
     33  C2       144.8290   18.8840   52.3730 C.3   101  112101      0.5254
     34  N3       143.8720   19.1440   51.4380 N.2   101  112101     -0.0055
     35  C4       143.3110   20.4050   51.3340 C.2   101  112101      0.3518
@<TRIPOS>BOND
     1     8     5    2
     2     1     2   am
     3     4     2    1
     4     4     6    1
     5    11     9    2
     6     2     3    2
     7     6     5    1
     8     5    12    1
     9     5     7    1
    10     9    16    1
    11     9    12    1
    12     9    10    1
    13    18    19    1
    14    18    17    1
    15    16    13    1
    16    19    20    1
    17    19    21    1
    18    22    21    1
    19    20    25    1
    20    21    23    1
    21    14    13    2
    22    17    13    1
    23    13    15    1
    24    25    23    1
    25    25    26    1
    26    23    24    1
    27    26    27    1
    28    26    35    1
    29    27    28    1
    30    35    34    2
    31    35    29    1
    32    34    33    1
    33    28    29    2
    34    29    30    1
    35    33    32    1
    36    30    32    2
    37    30    31    1
