@<TRIPOS>MOLECULE
2gs7_ANP_A_1.pdb
 31 33 0 0 0
SMALL
GASTEIGER

@<TRIPOS>ATOM
      1  PG         5.6610    6.6780   30.4330 P.3   301  ANP301      0.4884
      2  O1G        6.0450    8.1340   30.3930 O.2   301  ANP301     -0.2331
      3  O2G        6.8320    5.7470   30.5110 O.3   301  ANP301     -0.1240
      4  O3G        4.5600    6.3580   31.4020 O.3   301  ANP301     -0.1240
      5  PB         3.4350    6.3430   28.3880 P.3   301  ANP301      0.4669
      6  O1B        3.4000    7.1530   27.1600 O.2   301  ANP301     -0.2351
      7  O2B        2.4900    6.6610   29.4960 O.3   301  ANP301     -0.1253
      8  N3B        4.9920    6.3690   28.9550 N.3   301  ANP301     -0.0163
      9  PA         2.3010    3.8830   27.2190 P.3   301  ANP301      0.2220
     10  O1A        2.3800    2.4790   27.7020 O.3   301  ANP301     -0.4370
     11  O2A        0.9650    4.4830   27.1010 O.2   301  ANP301     -0.5170
     12  O3A        3.2830    4.8540   28.0130 O.3   301  ANP301     -0.2360
     13  O5'        3.0080    4.0030   25.8230 O.3   301  ANP301     -0.3111
     14  C5'        4.3070    3.4180   25.6080 C.3   301  ANP301      0.1813
     15  C4'        4.9830    3.9460   24.3820 C.3   301  ANP301      0.1821
     16  O4'        4.1550    3.5920   23.2610 O.3   301  ANP301     -0.3135
     17  C3'        5.1550    5.4680   24.3660 C.3   301  ANP301      0.2184
     18  O3'        6.5380    5.6930   24.0290 O.3   301  ANP301     -0.2174
     19  C2'        4.2020    5.9310   23.2870 C.3   301  ANP301      0.2570
     20  O2'        4.7280    6.9700   22.4460 O.3   301  ANP301     -0.2130
     21  C1'        3.9320    4.7080   22.4060 C.3   301  ANP301      0.3186
     22  N9         2.5490    4.6570   21.8630 N.pl3 301  ANP301     -0.1439
     23  C8         1.3630    4.4360   22.5360 C.3   301  ANP301      0.3377
     24  N7         0.2900    4.4510   21.7890 N.2   301  ANP301     -0.2095
     25  C5         0.8040    4.6990   20.5250 C.2   301  ANP301      0.2526
     26  C6         0.1830    4.8410   19.2260 C.2   301  ANP301      0.4393
     27  N6        -1.1240    4.7360   19.0830 N.pl3 301  ANP301      0.2180
     28  N1         0.9850    5.0860   18.1450 N.2   301  ANP301      0.0021
     29  C2         2.3220    5.1900   18.3160 C.3   301  ANP301      0.5254
     30  N3         3.0250    5.0800   19.4730 N.2   301  ANP301     -0.0055
     31  C4         2.1890    4.8280   20.5580 C.2   301  ANP301      0.3518
@<TRIPOS>BOND
     1    28    29    1
     2    28    26    2
     3    29    30    1
     4    27    26    1
     5    26    25    1
     6    30    31    2
     7    25    31    1
     8    25    24    2
     9    31    22    1
    10    24    23    1
    11    22    21    1
    12    22    23    1
    13    21    16    1
    14    21    19    1
    15    20    19    1
    16    16    15    1
    17    19    17    1
    18    18    17    1
    19    17    15    1
    20    15    14    1
    21    14    13    1
    22    13     9    1
    23    11     9    2
    24     6     5    2
    25     9    10    1
    26     9    12    1
    27    12     5    1
    28     5     8    1
    29     5     7    1
    30     8     1    1
    31     2     1    2
    32     1     3    1
    33     1     4    1
