@<TRIPOS>MOLECULE
2gs9_SAH_A_1.pdb
 26 28 0 0 0
SMALL
GASTEIGER

@<TRIPOS>ATOM
      1  N         51.3320   48.1060    8.3170 N.3   301  SAH301     -0.1208
      2  CA        51.2200   48.5930    9.7020 C.3   301  SAH301      0.1952
      3  CB        50.4470   47.5700   10.5770 C.3   301  SAH301      0.0422
      4  CG        51.0840   46.1600   10.5470 C.3   301  SAH301      0.0597
      5  SD        50.1920   45.0490   11.6870 S.3   301  SAH301     -0.1375
      6  C         52.6050   48.8340   10.2660 C.2   301  SAH301      0.3819
      7  O         52.7770   49.6790   11.1150 O.co2 301  SAH301     -0.2441
      8  OXT       53.6450   48.1080    9.8280 O.co2 301  SAH301     -0.2441
      9  C5'       49.0760   44.1910   10.5340 C.3   301  SAH301      0.0899
     10  C4'       47.8050   45.0170   10.2420 C.3   301  SAH301      0.1630
     11  O4'       47.0550   44.3440    9.2040 O.3   301  SAH301     -0.3153
     12  C3'       46.9000   45.0870   11.4860 C.3   301  SAH301      0.2168
     13  O3'       46.6840   46.4480   11.8860 O.3   301  SAH301     -0.2175
     14  C2'       45.6040   44.3780   11.0350 C.3   301  SAH301      0.2569
     15  O2'       44.4340   44.9160   11.6290 O.3   301  SAH301     -0.2130
     16  C1'       45.6450   44.5280    9.5040 C.3   301  SAH301      0.3185
     17  N9        44.8360   43.4890    8.8320 N.pl3 301  SAH301     -0.1439
     18  C8        44.5660   42.2220    9.2860 C.3   301  SAH301      0.3377
     19  N7        43.8230   41.5810    8.4350 N.2   301  SAH301     -0.2095
     20  C5        43.5630   42.3780    7.3830 C.2   301  SAH301      0.2526
     21  C6        42.8280   42.2360    6.1760 C.2   301  SAH301      0.4393
     22  N6        42.1790   41.0520    5.8890 N.pl3 301  SAH301      0.2180
     23  N1        42.7770   43.2780    5.3170 N.2   301  SAH301      0.0021
     24  C2        43.4030   44.4360    5.5820 C.3   301  SAH301      0.5254
     25  N3        44.1050   44.6070    6.7050 N.2   301  SAH301     -0.0055
     26  C4        44.2100   43.6200    7.6210 C.2   301  SAH301      0.3518
@<TRIPOS>BOND
     1    23    24    1
     2    23    21    2
     3    24    25    1
     4    22    21    1
     5    21    20    1
     6    25    26    2
     7    20    26    1
     8    20    19    2
     9    26    17    1
    10     1     2    1
    11    19    18    1
    12    17    18    1
    13    17    16    1
    14    11    16    1
    15    11    10    1
    16    16    14    1
    17     2     6    1
    18     2     3    1
    19     8     6   ar
    20    10     9    1
    21    10    12    1
    22     6     7   ar
    23     9     5    1
    24     4     3    1
    25     4     5    1
    26    14    12    1
    27    14    15    1
    28    12    13    1
