@<TRIPOS>MOLECULE
2gsa_PLP_B_1.pdb
 15 15 0 0 0
SMALL
GASTEIGER

@<TRIPOS>ATOM
      1  N1        13.3990   10.5110  -13.1850 N.ar  434  PLP434     -0.2452
      2  C2        13.1630   10.5960  -11.8280 C.ar  434  PLP434      0.0978
      3  C2A       14.1340   10.0690  -10.8440 C.3   434  PLP434      0.0555
      4  C3        11.9920   11.1080  -11.3660 C.ar  434  PLP434      0.2049
      5  O3        11.8260   11.3320  -10.0340 O.3   434  PLP434     -0.2857
      6  C4        11.0180   11.5520  -12.2490 C.ar  434  PLP434      0.0182
      7  C4A        9.7820   12.2250  -11.6940 C.3   434  PLP434      0.0342
      8  C5        11.2040   11.4260  -13.6350 C.ar  434  PLP434      0.0261
      9  C6        12.4040   10.9000  -14.0900 C.ar  434  PLP434      0.0965
     10  C5A       10.0260   11.6840  -14.6140 C.3   434  PLP434      0.1815
     11  O4P        9.6590   13.0650  -14.8690 O.3   434  PLP434     -0.2653
     12  P          8.2120   13.5660  -15.3740 P.3   434  PLP434      0.5329
     13  O1P        8.1730   15.0070  -15.2210 O.3   434  PLP434     -0.1145
     14  O2P        8.3010   13.1830  -16.9020 O.2   434  PLP434     -0.2224
     15  O3P        7.1070   12.8150  -14.8030 O.3   434  PLP434     -0.1145
@<TRIPOS>BOND
     1    14    12    2
     2    12    13    1
     3    12    11    1
     4    12    15    1
     5    11    10    1
     6    10     8    1
     7     9     8   ar
     8     9     1   ar
     9     8     6   ar
    10     1     2   ar
    11     6     7    1
    12     6     4   ar
    13     2     4   ar
    14     2     3    1
    15     4     5    1
