@<TRIPOS>MOLECULE
2gsa_PMP_A_1.pdb
 16 16 0 0 0
SMALL
GASTEIGER

@<TRIPOS>ATOM
      1  N1         4.5120   16.2290  -34.1600 N.ar  500  PMP500     -0.2452
      2  C2         4.4570   17.2610  -35.0560 C.ar  500  PMP500      0.0978
      3  C2A        3.7280   17.0350  -36.3860 C.3   500  PMP500      0.0555
      4  C3         5.0350   18.4620  -34.7520 C.ar  500  PMP500      0.2063
      5  O3         4.8070   19.5810  -35.5630 O.3   500  PMP500     -0.2856
      6  C4         5.7300   18.5760  -33.5600 C.ar  500  PMP500      0.0369
      7  C4A        6.3370   19.9010  -33.1190 C.3   500  PMP500      0.1386
      8  N4A        6.6330   20.9300  -33.9790 N.3   500  PMP500     -0.1261
      9  C5         5.8220   17.5050  -32.7180 C.ar  500  PMP500      0.0275
     10  C6         5.2030   16.3440  -33.0050 C.ar  500  PMP500      0.0965
     11  C5A        6.5630   17.6200  -31.4350 C.3   500  PMP500      0.1816
     12  O4P        5.6830   18.2670  -30.4710 O.3   500  PMP500     -0.2653
     13  P          6.1920   19.1920  -29.3030 P.3   500  PMP500      0.5329
     14  O1P        5.0240   19.5750  -28.4700 O.3   500  PMP500     -0.1145
     15  O2P        7.2660   18.4400  -28.4260 O.3   500  PMP500     -0.1145
     16  O3P        7.1470   20.1520  -29.8640 O.2   500  PMP500     -0.2224
@<TRIPOS>BOND
     1     3     2    1
     2     5     4    1
     3     2     4   ar
     4     2     1   ar
     5     4     6   ar
     6     1    10   ar
     7     8     7    1
     8     6     7    1
     9     6     9   ar
    10    10     9   ar
    11     9    11    1
    12    11    12    1
    13    12    13    1
    14    16    13    2
    15    13    14    1
    16    13    15    1
