@<TRIPOS>MOLECULE
2gsd_NAD_A_1.pdb
 44 48 0 0 0
SMALL
GASTEIGER

@<TRIPOS>ATOM
      1  PA        71.0110    9.9750   16.1210 P.3   402  NAD402      0.2189
      2  O1A       70.9100    9.9880   14.6180 O.2   402  NAD402     -0.5170
      3  O2A       70.3010   11.0790   16.7560 O.3   402  NAD402     -0.4371
      4  O5B       72.5440    9.9520   16.5550 O.3   402  NAD402     -0.3112
      5  C5B       73.5550    9.3400   15.7990 C.3   402  NAD402      0.1813
      6  C4B       74.8300   10.1610   16.0480 C.3   402  NAD402      0.1821
      7  O4B       75.9560    9.4380   15.5290 O.3   402  NAD402     -0.3135
      8  C3B       74.7870   11.5250   15.3390 C.3   402  NAD402      0.2184
      9  O3B       75.1620   12.5390   16.2650 O.3   402  NAD402     -0.2174
     10  C2B       75.8500   11.4250   14.2260 C.3   402  NAD402      0.2570
     11  O2B       76.5240   12.6650   13.9170 O.3   402  NAD402     -0.2130
     12  C1B       76.7790   10.3860   14.8630 C.3   402  NAD402      0.3186
     13  N9A       77.6510    9.7280   13.8910 N.pl3 402  NAD402     -0.1439
     14  C8A       77.3480    9.2650   12.6130 C.3   402  NAD402      0.3377
     15  N7A       78.4610    8.7290   12.0900 N.2   402  NAD402     -0.2095
     16  C5A       79.4630    8.8630   12.9870 C.2   402  NAD402      0.2526
     17  C6A       80.8070    8.5160   12.9670 C.2   402  NAD402      0.4393
     18  N6A       81.4420    8.1770   11.8330 N.pl3 402  NAD402      0.2180
     19  N1A       81.5390    8.8160   14.0810 N.2   402  NAD402      0.0021
     20  C2A       81.0450    9.4250   15.2160 C.3   402  NAD402      0.5254
     21  N3A       79.7120    9.7880   15.2210 N.2   402  NAD402     -0.0055
     22  C4A       78.9560    9.4990   14.1370 C.2   402  NAD402      0.3518
     23  O3        70.4410    8.5180   16.5460 O.3   402  NAD402     -0.2703
     24  PN        70.1210    7.9560   18.0340 P.3   402  NAD402      0.2189
     25  O1N       71.1510    8.5210   18.9760 O.3   402  NAD402     -0.4371
     26  O2N       68.6480    7.9890   18.2590 O.2   402  NAD402     -0.5170
     27  O5D       70.5410    6.4380   17.8280 O.3   402  NAD402     -0.3112
     28  C5D       71.8650    6.1540   17.3550 C.3   402  NAD402      0.1813
     29  C4D       71.9720    4.6780   16.9710 C.3   402  NAD402      0.1799
     30  O4D       71.7430    3.8630   18.1130 O.3   402  NAD402     -0.3327
     31  C3D       70.9270    4.2100   15.9510 C.3   402  NAD402      0.2158
     32  O3D       71.2830    4.5300   14.6250 O.3   402  NAD402     -0.2175
     33  C2D       70.8700    2.7000   16.2340 C.3   402  NAD402      0.2309
     34  O2D       71.7950    1.9640   15.4470 O.3   402  NAD402     -0.2158
     35  C1D       71.2300    2.5930   17.7350 C.3   402  NAD402      0.2263
     36  N1N       69.9790    2.3180   18.4820 N.pl3 402  NAD402     -0.2787
     37  C2N       69.8550    1.1260   19.1550 C.3   402  NAD402      0.1244
     38  C3N       68.6860    0.8440   19.8520 C.2   402  NAD402      0.0544
     39  C7N       68.5840   -0.3090   20.7950 C.2   402  NAD402      0.2818
     40  O7N       69.7060   -0.9280   21.3760 O.2   402  NAD402     -0.2670
     41  N7N       67.3640   -0.6880   21.1050 N.am  402  NAD402     -0.0839
     42  C4N       67.6450    1.7820   19.8490 C.2   402  NAD402      0.0033
     43  C5N       67.7720    2.9910   19.1500 C.2   402  NAD402      0.0157
     44  C6N       68.9680    3.2530   18.4580 C.2   402  NAD402      0.0633
@<TRIPOS>BOND
     1    18    17    1
     2    15    14    1
     3    15    16    2
     4    14    13    1
     5    17    16    1
     6    17    19    2
     7    16    22    1
     8    13    22    1
     9    13    12    1
    10    11    10    1
    11    19    20    1
    12    22    21    2
    13    10    12    1
    14    10     8    1
    15     2     1    2
    16    32    31    1
    17    12     7    1
    18    20    21    1
    19     8     6    1
    20     8     9    1
    21    34    33    1
    22     7     6    1
    23     5     6    1
    24     5     4    1
    25    31    33    1
    26    31    29    1
    27     1    23    1
    28     1     4    1
    29     1     3    1
    30    33    35    1
    31    23    24    1
    32    29    28    1
    33    29    30    1
    34    28    27    1
    35    35    30    1
    36    35    36    1
    37    27    24    1
    38    24    26    2
    39    24    25    1
    40    44    36    1
    41    44    43    2
    42    36    37    1
    43    43    42    1
    44    37    38    1
    45    42    38    2
    46    38    39    1
    47    39    41   am
    48    39    40    2
