@<TRIPOS>MOLECULE
2gsm_DMU_A_1.pdb
 33 34 0 0 0
SMALL
GASTEIGER

@<TRIPOS>ATOM
      1  C1       -34.0400  -27.5050   -4.3010 C.3   5001  DMU5001     0.2404
      2  C2       -35.3880  -26.7820   -4.3520 C.3   5001  DMU5001     0.2167
      3  C3       -36.0730  -26.8530   -2.9810 C.3   5001  DMU5001     0.1804
      4  C4       -35.1150  -26.2600   -1.9330 C.3   5001  DMU5001     0.1803
      5  O5       -33.8930  -26.9990   -1.9690 O.3   5001  DMU5001    -0.3257
      6  C6       -33.1790  -26.8720   -3.2030 C.3   5001  DMU5001     0.2695
      7  O7       -37.3060  -26.1090   -2.9850 O.3   5001  DMU5001    -0.3257
      8  O16      -31.9670  -27.5930   -3.0330 O.3   5001  DMU5001    -0.3286
      9  C18      -30.7990  -26.8140   -2.7720 C.3   5001  DMU5001     0.1449
     10  C19      -29.5860  -27.6670   -3.0990 C.3   5001  DMU5001     0.0322
     11  C22      -28.2700  -27.1010   -2.5680 C.3   5001  DMU5001     0.0026
     12  C25      -27.1830  -28.1770   -2.6920 C.3   5001  DMU5001     0.0001
     13  C28      -26.1580  -27.8330   -3.7600 C.3   5001  DMU5001     0.0000
     14  C31      -25.2240  -29.0080   -4.0170 C.3   5001  DMU5001     0.0000
     15  C34      -24.2650  -28.6660   -5.1500 C.3   5001  DMU5001     0.0000
     16  C37      -22.8990  -29.3290   -4.9640 C.3   5001  DMU5001     0.0000
     17  C40      -21.8420  -28.6130   -5.8020 C.3   5001  DMU5001     0.0000
     18  C43      -20.5590  -29.4200   -5.8720 C.3   5001  DMU5001     0.0000
     19  O49      -33.3920  -27.2900   -5.5430 O.3   5001  DMU5001    -0.2149
     20  O55      -36.2050  -27.4120   -5.3360 O.3   5001  DMU5001    -0.2175
     21  C57      -35.5890  -26.1900   -0.4770 C.3   5001  DMU5001     0.2141
     22  O61      -35.9570  -27.4760   -0.0350 O.3   5001  DMU5001    -0.2176
     23  C5       -39.4280  -26.4510   -4.1860 C.3   5001  DMU5001     0.2406
     24  C7       -40.0590  -25.1310   -3.7060 C.3   5001  DMU5001     0.2198
     25  C8       -40.7780  -25.3390   -2.3720 C.3   5001  DMU5001     0.2144
     26  C9       -39.7330  -25.8460   -1.3670 C.3   5001  DMU5001     0.1835
     27  O1       -39.1630  -27.0770   -1.8740 O.3   5001  DMU5001    -0.3256
     28  C10      -38.4630  -26.9560   -3.1190 C.3   5001  DMU5001     0.2695
     29  O2       -41.4470  -24.1540   -1.9500 O.3   5001  DMU5001    -0.2176
     30  O3       -38.7000  -26.1920   -5.3640 O.3   5001  DMU5001    -0.2149
     31  O4       -40.9430  -24.5980   -4.6730 O.3   5001  DMU5001    -0.2174
     32  C11      -40.2200  -26.0320    0.0780 C.3   5001  DMU5001     0.2142
     33  O6       -41.2800  -26.9800    0.0630 O.3   5001  DMU5001    -0.2176
@<TRIPOS>BOND
     1    18    17    1
     2    17    16    1
     3    19     1    1
     4    30    23    1
     5    20     2    1
     6    15    16    1
     7    15    14    1
     8    31    24    1
     9     2     1    1
    10     2     3    1
    11     1     6    1
    12    23    24    1
    13    23    28    1
    14    14    13    1
    15    13    12    1
    16    24    25    1
    17     6     8    1
    18     6     5    1
    19    28     7    1
    20    28    27    1
    21    10     9    1
    22    10    11    1
    23     8     9    1
    24     7     3    1
    25     3     4    1
    26    12    11    1
    27    25    29    1
    28    25    26    1
    29     5     4    1
    30     4    21    1
    31    27    26    1
    32    26    32    1
    33    21    22    1
    34    33    32    1
