@<TRIPOS>MOLECULE
2gsp_3GP_A_1.pdb
 24 26 0 0 0
SMALL
GASTEIGER

@<TRIPOS>ATOM
      1  P         23.6800   35.3270   19.8990 P.3   106  3GP106      0.5327
      2  O1P       24.6350   34.1870   19.8280 O.3   106  3GP106     -0.1145
      3  O2P       24.0560   36.3940   20.8590 O.3   106  3GP106     -0.1145
      4  O3P       23.2300   35.8330   18.5880 O.2   106  3GP106     -0.2224
      5  O5'       20.2170   37.8540   22.4670 O.3   106  3GP106     -0.2176
      6  C5'       19.8000   36.5220   22.8290 C.3   106  3GP106      0.2141
      7  C4'       20.7810   35.3620   22.4040 C.3   106  3GP106      0.1802
      8  O4'       20.0940   34.0680   22.4960 O.3   106  3GP106     -0.3326
      9  C3'       21.1840   35.4890   20.9150 C.3   106  3GP106      0.1903
     10  O3'       22.3480   34.6620   20.5560 O.3   106  3GP106     -0.2674
     11  C2'       19.9350   34.8910   20.3110 C.3   106  3GP106      0.2283
     12  O2'       20.2310   34.5920   18.9660 O.3   106  3GP106     -0.2159
     13  C1'       19.7020   33.6380   21.1590 C.3   106  3GP106      0.2292
     14  N9        18.2540   33.2340   21.0400 N.pl3 106  3GP106     -0.2354
     15  C8        17.7330   32.1480   20.3600 C.3   106  3GP106      0.2246
     16  N7        16.4270   32.0600   20.4000 N.2   106  3GP106     -0.2322
     17  C5        16.0380   33.1640   21.1620 C.2   106  3GP106      0.2182
     18  C6        14.7410   33.6130   21.5550 C.1   106  3GP106      0.2372
     19  O6        13.6770   33.0760   21.2770 O.2   106  3GP106     -0.2069
     20  N1        14.7610   34.7730   22.3220 N.2   106  3GP106     -0.2485
     21  C2        15.9140   35.4430   22.6810 C.1   106  3GP106      0.2531
     22  N2        15.7780   36.5510   23.4230 N.pl3 106  3GP106     -0.0226
     23  N3        17.1390   35.0220   22.3130 N.2   106  3GP106     -0.3074
     24  C4        17.1370   33.8850   21.5590 C.2   106  3GP106      0.2300
@<TRIPOS>BOND
     1     4     1    2
     2    12    11    1
     3     2     1    1
     4     1    10    1
     5     1     3    1
     6    11     9    1
     7    11    13    1
     8    15    16    1
     9    15    14    1
    10    16    17    2
    11    10     9    1
    12     9     7    1
    13    14    13    1
    14    14    24    1
    15    13     8    1
    16    17    18    1
    17    17    24    1
    18    19    18    2
    19    18    20    2
    20    24    23    2
    21    23    21    2
    22    20    21    2
    23     7     8    1
    24     7     6    1
    25     5     6    1
    26    21    22    1
