@<TRIPOS>MOLECULE
2gsp_SGP_A_1.pdb
 23 26 0 0 0
SMALL
GASTEIGER

@<TRIPOS>ATOM
      1  P         20.8440   37.4130   19.3330 P.3   105  SGP105      0.4036
      2  S1P       21.1980   39.1980   19.5700 S.3   105  SGP105      0.0393
      3  O1P       21.0790   37.1810   17.9020 O.2   105  SGP105     -0.2449
      4  O5'       19.8070   35.7600   23.8400 O.3   105  SGP105     -0.2176
      5  C5'       21.0650   35.1340   23.5240 C.3   105  SGP105      0.2141
      6  C4'       21.2650   34.7790   22.0270 C.3   105  SGP105      0.1800
      7  O4'       20.3620   33.7410   21.5650 O.3   105  SGP105     -0.3327
      8  C3'       20.9720   36.0420   21.2070 C.3   105  SGP105      0.1860
      9  O3'       21.7040   36.2470   19.9860 O.3   105  SGP105     -0.2835
     10  C2'       19.5420   35.8160   20.7110 C.3   105  SGP105      0.2011
     11  O2'       19.4340   36.6580   19.5250 O.3   105  SGP105     -0.2818
     12  C1'       19.5300   34.2650   20.5030 C.3   105  SGP105      0.2264
     13  N9        18.1660   33.6390   20.6330 N.pl3 105  SGP105     -0.2354
     14  C8        17.7080   32.4930   20.0180 C.3   105  SGP105      0.2246
     15  N7        16.4510   32.2180   20.2570 N.2   105  SGP105     -0.2322
     16  C5        16.0340   33.2510   21.0930 C.2   105  SGP105      0.2182
     17  C6        14.7630   33.5090   21.6820 C.1   105  SGP105      0.2372
     18  O6        13.7530   32.8350   21.5310 O.2   105  SGP105     -0.2069
     19  N1        14.7440   34.6540   22.4640 N.2   105  SGP105     -0.2485
     20  C2        15.8330   35.4740   22.6650 C.1   105  SGP105      0.2531
     21  N2        15.6710   36.5410   23.4500 N.pl3 105  SGP105     -0.0226
     22  N3        17.0240   35.2400   22.1110 N.2   105  SGP105     -0.3074
     23  C4        17.0660   34.1210   21.3380 C.2   105  SGP105      0.2300
@<TRIPOS>BOND
     1     3     1    2
     2     1    11    1
     3     1     2    1
     4     1     9    1
     5    11    10    1
     6     9     8    1
     7    14    15    1
     8    14    13    1
     9    15    16    2
    10    12    13    1
    11    12    10    1
    12    12     7    1
    13    13    23    1
    14    10     8    1
    15    16    23    1
    16    16    17    1
    17     8     6    1
    18    23    22    2
    19    18    17    2
    20     7     6    1
    21    17    19    2
    22     6     5    1
    23    22    20    2
    24    19    20    2
    25    20    21    1
    26     5     4    1
