@<TRIPOS>MOLECULE
2gsr_GTS_A_1.pdb
 23 22 0 0 0
SMALL
GASTEIGER

@<TRIPOS>ATOM
      1  N1        56.2580   17.4370   21.3080 N.3   208  GTS208     -0.1208
      2  CA1       56.4800   16.0690   20.9380 C.3   208  GTS208      0.1948
      3  C1        57.9960   15.9810   20.8950 C.2   208  GTS208      0.3819
      4  O11       58.6430   16.9690   20.5490 O.co2 208  GTS208     -0.2441
      5  O12       58.5140   14.9370   21.2510 O.co2 208  GTS208     -0.2441
      6  CB1       55.9620   15.7710   19.5680 C.3   208  GTS208      0.0402
      7  CG1       56.0330   14.2870   19.2970 C.3   208  GTS208      0.0889
      8  CD1       55.1380   13.8910   18.1400 C.2   208  GTS208      0.2419
      9  OE1       54.6830   14.7080   17.3180 O.2   208  GTS208     -0.2733
     10  N2        55.0880   12.5600   18.0810 N.am  208  GTS208     -0.1961
     11  CA2       54.4960   11.8210   16.9790 C.3   208  GTS208      0.1924
     12  C2        53.5560   10.7820   17.5390 C.2   208  GTS208      0.2634
     13  O2        53.8230   10.2480   18.6300 O.2   208  GTS208     -0.2714
     14  CB2       55.5230   11.0620   16.1760 C.3   208  GTS208      0.1362
     15  SG2       56.5740   12.1050   15.1470 S.3   208  GTS208     -0.1938
     16  O1S       57.4390   12.9290   15.9240 O.3   208  GTS208     -0.3074
     17  O2S       57.3200   11.2350   14.3020 O.3   208  GTS208     -0.3074
     18  O3S       55.8140   12.9600   14.2950 O.3   208  GTS208     -0.3074
     19  N3        52.5060   10.4960   16.7660 N.am  208  GTS208     -0.1917
     20  CA3       51.5640    9.4580   17.1220 C.3   208  GTS208      0.2285
     21  C3        50.3220   10.0020   17.7870 C.2   208  GTS208      0.3865
     22  O31       50.1610   11.2190   17.9680 O.co2 208  GTS208     -0.2437
     23  O32       49.4810    9.1670   18.0720 O.co2 208  GTS208     -0.2437
@<TRIPOS>BOND
     1    18    15    1
     2    17    15    1
     3    15    16    1
     4    15    14    1
     5    14    11    1
     6    19    20    1
     7    19    12   am
     8    11    12    1
     9    11    10    1
    10    20    21    1
    11     9     8    2
    12    12    13    2
    13    21    22   ar
    14    21    23   ar
    15    10     8   am
    16     8     7    1
    17     7     6    1
    18     6     2    1
    19     4     3   ar
    20     3     2    1
    21     3     5   ar
    22     2     1    1
