@<TRIPOS>MOLECULE
2gss_EAA_A_1.pdb
 19 19 0 0 0
SMALL
GASTEIGER

@<TRIPOS>ATOM
      1  C1         7.9400    3.6820   25.9280 C.ar    0  EAA0        0.1506
      2  O2         8.9290    4.1010   25.0970 O.3     0  EAA0       -0.4628
      3  C2         8.2770    2.6700   26.8480 C.ar    0  EAA0        0.1021
      4 CL1         9.9000    2.0990   26.8510 Cl      0  EAA0       -0.0782
      5  C3         7.3580    2.1900   27.7220 C.ar    0  EAA0        0.0742
      6 CL2         7.8080    0.9230   28.8280 Cl      0  EAA0       -0.0812
      7  C4         6.0400    2.6530   27.7270 C.ar    0  EAA0        0.0502
      8  C5         5.7110    3.6480   26.8010 C.ar    0  EAA0        0.0072
      9  C6         6.6340    4.1410   25.9200 C.ar    0  EAA0        0.0380
     10  C7         5.0500    2.2350   28.7710 C.2     0  EAA0        0.1925
     11  O1         4.5330    1.1470   28.7190 O.2     0  EAA0       -0.2869
     12  C8         4.7170    3.1410   29.9000 C.2     0  EAA0        0.0168
     13  C9         4.9690    2.6060   31.2620 C.3     0  EAA0        0.0296
     14  C10        5.6550    3.4510   32.2280 C.3     0  EAA0        0.0051
     15  C11        4.1860    4.3020   29.6430 C.2     0  EAA0       -0.0013
     16  C12        8.6800    5.2280   24.2860 C.3     0  EAA0        0.3186
     17  C13        9.9070    5.5890   23.5350 C.2     0  EAA0        0.4084
     18  O          9.8520    6.6840   22.9080 O.co2   0  EAA0       -0.2415
     19  OXT       10.9340    4.8540   23.5630 O.co2   0  EAA0       -0.2415
@<TRIPOS>BOND
     1    18    17   ar
     2    17    19   ar
     3    17    16    1
     4    16     2    1
     5     2     1    1
     6     9     1   ar
     7     9     8   ar
     8     1     3   ar
     9     8     7   ar
    10     3     4    1
    11     3     5   ar
    12     5     7   ar
    13     5     6    1
    14     7    10    1
    15    11    10    2
    16    10    12    1
    17    15    12    2
    18    12    13    1
    19    13    14    1
