@<TRIPOS>MOLECULE
2gst_GPS_A_1.pdb
 35 37 0 0 0
SMALL
GASTEIGER

@<TRIPOS>ATOM
      1  C1        13.3570   16.4680   26.1920 C.2   220  GPS220      0.3819
      2  N1        14.5290   14.7370   24.8900 N.3   220  GPS220     -0.1208
      3  C2        17.0800   16.5220   32.7420 C.2   220  GPS220      0.2626
      4  N2        16.3040   16.5080   30.4590 N.am  220  GPS220     -0.1969
      5  O2        17.8450   17.0550   33.5350 O.2   220  GPS220     -0.2714
      6  C3        16.7690   13.6100   34.5130 C.2   220  GPS220      0.3865
      7  N3        16.3980   15.3850   32.8590 N.am  220  GPS220     -0.1917
      8  O5        21.4250   19.1070   30.0180 O.3   220  GPS220     -0.2170
      9  O11       13.2920   17.1450   24.9790 O.co2 220  GPS220     -0.2441
     10  O12       12.4840   16.8710   26.9910 O.co2 220  GPS220     -0.2441
     11  O31       17.6580   13.1470   33.7470 O.co2 220  GPS220     -0.2437
     12  O32       16.4020   13.0050   35.6380 O.co2 220  GPS220     -0.2437
     13  CA1       14.2360   15.2720   26.2990 C.3   220  GPS220      0.1948
     14  CA2       17.4070   17.0290   31.2870 C.3   220  GPS220      0.1834
     15  CA3       16.0460   14.8750   34.1920 C.3   220  GPS220      0.2285
     16  CA4       19.0400   19.4160   29.3160 C.3   220  GPS220      0.1044
     17  CA5       20.0380   19.2230   30.4890 C.3   220  GPS220      0.1881
     18  CB1       15.6600   15.6090   26.8930 C.3   220  GPS220      0.0402
     19  CB2       17.1720   18.5740   31.3290 C.3   220  GPS220      0.0890
     20  CB4       19.4100   20.7740   28.7470 C.ar  220  GPS220     -0.0097
     21  CB5       20.0200   20.4050   31.4260 C.ar  220  GPS220      0.0089
     22  CD1       16.5850   16.1850   29.1690 C.2   220  GPS220      0.2418
     23  CD4       19.6050   22.0520   26.7350 C.ar  220  GPS220     -0.0003
     24  CD5       20.1880   21.2700   33.6940 C.ar  220  GPS220     -0.0002
     25  OE1       17.7430   15.9140   28.7680 O.2   220  GPS220     -0.2733
     26  CE4       20.0650   23.1500   27.4810 C.ar  220  GPS220     -0.0000
     27  CE5       20.0770   22.5870   33.1920 C.ar  220  GPS220     -0.0000
     28  CG1       15.3370   15.9670   28.3530 C.3   220  GPS220      0.0889
     29  SG2       17.3830   19.3950   29.7930 S.3   220  GPS220     -0.1314
     30  CG4       19.2580   20.8670   27.3240 C.ar  220  GPS220     -0.0034
     31  CG5       20.1680   20.1760   32.8320 C.ar  220  GPS220     -0.0018
     32  CH4       19.8680   21.8530   29.5160 C.ar  220  GPS220     -0.0033
     33  CH5       19.9440   21.6730   30.9250 C.ar  220  GPS220     -0.0018
     34  CZ4       20.1690   23.0530   28.8730 C.ar  220  GPS220     -0.0003
     35  CZ5       19.9530   22.7900   31.8070 C.ar  220  GPS220     -0.0002
@<TRIPOS>BOND
     1     2    13    1
     2     9     1   ar
     3     1    13    1
     4     1    10   ar
     5    13    18    1
     6    23    30   ar
     7    23    26   ar
     8    18    28    1
     9    30    20   ar
    10    26    34   ar
    11    28    22    1
    12    20    16    1
    13    20    32   ar
    14    25    22    2
    15    34    32   ar
    16    22     4   am
    17    16    29    1
    18    16    17    1
    19    32    33    1
    20    29    19    1
    21     8    17    1
    22     4    14    1
    23    17    21    1
    24    33    21   ar
    25    33    35   ar
    26    14    19    1
    27    14     3    1
    28    21    31   ar
    29    35    27   ar
    30     3     7   am
    31     3     5    2
    32    31    24   ar
    33     7    15    1
    34    27    24   ar
    35    11     6   ar
    36    15     6    1
    37     6    12   ar
