@<TRIPOS>MOLECULE
2gsu_AMP_A_1.pdb
 23 25 0 0 0
SMALL
GASTEIGER

@<TRIPOS>ATOM
      1  P         29.5860   43.9380   22.7300 P.3   1004  AMP1004     0.5327
      2  O1P       28.3430   44.7100   23.0700 O.3   1004  AMP1004    -0.1145
      3  O2P       29.8250   42.6930   23.5730 O.3   1004  AMP1004    -0.1145
      4  O3P       30.7940   44.7930   22.5040 O.2   1004  AMP1004    -0.2224
      5  O5'       29.2740   43.4120   21.2330 O.3   1004  AMP1004    -0.2675
      6  C5'       27.9430   43.1350   20.7540 C.3   1004  AMP1004     0.1860
      7  C4'       27.5620   44.0160   19.5540 C.3   1004  AMP1004     0.1823
      8  O4'       27.1770   43.2010   18.4360 O.3   1004  AMP1004    -0.3135
      9  C3'       26.3930   44.9470   19.8320 C.3   1004  AMP1004     0.2184
     10  O3'       26.8460   46.3080   19.9420 O.3   1004  AMP1004    -0.2174
     11  C2'       25.4030   44.7610   18.6890 C.3   1004  AMP1004     0.2570
     12  O2'       25.2850   45.9640   17.9180 O.3   1004  AMP1004    -0.2130
     13  C1'       25.9170   43.5790   17.8560 C.3   1004  AMP1004     0.3186
     14  N9        24.9970   42.3930   17.8350 N.pl3 1004  AMP1004    -0.1439
     15  C8        23.9770   42.1770   18.6850 C.3   1004  AMP1004     0.3377
     16  N7        23.3240   41.0220   18.4250 N.2   1004  AMP1004    -0.2095
     17  C5        23.9220   40.4530   17.3840 C.2   1004  AMP1004     0.2526
     18  C6        23.7040   39.2090   16.6220 C.2   1004  AMP1004     0.4393
     19  N6        22.6940   38.3710   16.9670 N.pl3 1004  AMP1004     0.2180
     20  N1        24.5400   38.9570   15.5870 N.2   1004  AMP1004     0.0021
     21  C2        25.5310   39.8090   15.2560 C.3   1004  AMP1004     0.5254
     22  N3        25.7730   40.9590   15.9250 N.2   1004  AMP1004    -0.0055
     23  C4        25.0230   41.3460   16.9900 C.2   1004  AMP1004     0.3518
@<TRIPOS>BOND
     1    21    20    1
     2    21    22    1
     3    20    18    2
     4    22    23    2
     5    18    19    1
     6    18    17    1
     7    23    17    1
     8    23    14    1
     9    17    16    2
    10    14    13    1
    11    14    15    1
    12    13     8    1
    13    13    11    1
    14    12    11    1
    15    16    15    1
    16     8     7    1
    17    11     9    1
    18     7     9    1
    19     7     6    1
    20     9    10    1
    21     6     5    1
    22     5     1    1
    23     4     1    2
    24     1     2    1
    25     1     3    1
