@<TRIPOS>MOLECULE
2gsw_FMN_A_1.pdb
 31 33 0 0 0
SMALL
GASTEIGER

@<TRIPOS>ATOM
      1  N1        -7.9310    4.3760   32.0400 N.2   201  FMN201     -0.2890
      2  C2        -7.6460    4.5240   30.7160 C.1   201  FMN201      0.3669
      3  O2        -8.2990    4.1590   29.7340 O.2   201  FMN201     -0.1744
      4  N3        -6.3750    5.2130   30.3560 N.2   201  FMN201     -0.2300
      5  C4        -5.4430    5.7260   31.3400 C.1   201  FMN201      0.2513
      6  O4        -4.4340    6.2690   30.8460 O.2   201  FMN201     -0.2057
      7  C4A       -5.7880    5.5470   32.6850 C.2   201  FMN201      0.2700
      8  N5        -4.9650    5.9880   33.6160 N.2   201  FMN201     -0.3878
      9  C5A       -5.2550    5.8250   35.0150 C.2   201  FMN201      0.1320
     10  C6        -4.3680    6.2810   36.0570 C.2   201  FMN201      0.0250
     11  C7        -4.6970    6.0670   37.4850 C.2   201  FMN201     -0.0238
     12  C7M       -3.5720    6.6560   38.3400 C.3   201  FMN201      0.0308
     13  C8        -5.9470    5.3650   37.8660 C.2   201  FMN201     -0.0280
     14  C8M       -6.2640    5.1480   39.2880 C.3   201  FMN201      0.0304
     15  C9        -6.8310    4.9190   36.8730 C.2   201  FMN201     -0.0041
     16  C9A       -6.5510    5.0990   35.3820 C.3   201  FMN201      0.1497
     17  N10       -7.4940    4.6110   34.4200 N.pl3 201  FMN201     -0.2691
     18  C10       -7.1320    4.8090   33.0640 C.2   201  FMN201      0.2416
     19  C1'       -8.7560    3.9090   34.6940 C.3   201  FMN201      0.1294
     20  C2'       -8.6200    2.4160   34.8790 C.3   201  FMN201      0.2044
     21  O2'       -8.0120    1.8500   33.7450 O.3   201  FMN201     -0.2185
     22  C3'       -9.9890    1.8900   35.1000 C.3   201  FMN201      0.2164
     23  O3'      -10.4160    2.2600   36.4490 O.3   201  FMN201     -0.2175
     24  C4'      -10.2170    0.3580   35.0600 C.3   201  FMN201      0.2147
     25  O4'      -11.5780    0.1010   35.3010 O.3   201  FMN201     -0.2176
     26  C5'       -9.3320   -0.4870   36.0650 C.3   201  FMN201      0.1892
     27  O5'       -9.7890   -0.1610   37.3980 O.3   201  FMN201     -0.2674
     28  P         -9.0970   -0.8200   38.6310 P.3   201  FMN201      0.5327
     29  O1P       -9.8860   -0.2120   39.8090 O.3   201  FMN201     -0.1145
     30  O2P       -9.2580   -2.2970   38.5590 O.2   201  FMN201     -0.2224
     31  O3P       -7.6490   -0.3580   38.7330 O.3   201  FMN201     -0.1145
@<TRIPOS>BOND
     1     3     2    2
     2     4     2    2
     3     4     5    2
     4     2     1    2
     5     6     5    2
     6     5     7    1
     7     1    18    2
     8     7    18    1
     9     7     8    2
    10    18    17    1
    11     8     9    2
    12    21    20    1
    13    17    19    1
    14    17    16    1
    15    19    20    1
    16    20    22    1
    17     9    16    1
    18     9    10    1
    19    24    22    1
    20    24    25    1
    21    24    26    1
    22    22    23    1
    23    16    15    1
    24    10    11    2
    25    26    27    1
    26    15    13    2
    27    27    28    1
    28    11    13    1
    29    11    12    1
    30    13    14    1
    31    30    28    2
    32    28    31    1
    33    28    29    1
