@<TRIPOS>MOLECULE
2gsz_ADP_F_1.pdb
 27 29 0 0 0
SMALL
GASTEIGER

@<TRIPOS>ATOM
      1  PB         0.2960    8.6740  -30.8960 P.3   500  ADP500      0.5373
      2  O1B        1.4550    8.0320  -31.6080 O.2   500  ADP500     -0.2221
      3  O2B       -0.2100    7.7970  -29.7890 O.3   500  ADP500     -0.1143
      4  O3B        0.5610   10.0940  -30.4640 O.3   500  ADP500     -0.1143
      5  PA        -2.1560    9.4350  -32.5260 P.3   500  ADP500      0.2231
      6  O1A       -2.1010   10.7760  -31.8220 O.3   500  ADP500     -0.4370
      7  O2A       -2.2820    9.4560  -34.0420 O.2   500  ADP500     -0.5169
      8  O3A       -0.8490    8.5460  -32.0640 O.3   500  ADP500     -0.2261
      9  O5'       -3.4470    8.5840  -31.9980 O.3   500  ADP500     -0.3111
     10  C5'       -3.9700    7.3770  -32.6090 C.3   500  ADP500      0.1813
     11  C4'       -5.4320    7.5510  -33.0740 C.3   500  ADP500      0.1821
     12  O4'       -6.3970    7.5990  -31.9760 O.3   500  ADP500     -0.3135
     13  C3'       -5.6070    8.8480  -33.8710 C.3   500  ADP500      0.2184
     14  O3'       -5.8360    8.5550  -35.2620 O.3   500  ADP500     -0.2174
     15  C2'       -6.7660    9.5920  -33.2020 C.3   500  ADP500      0.2570
     16  O2'       -7.6380   10.2350  -34.1480 O.3   500  ADP500     -0.2130
     17  C1'       -7.4720    8.5250  -32.3460 C.3   500  ADP500      0.3186
     18  N9        -8.2770    9.0840  -31.1800 N.pl3 500  ADP500     -0.1439
     19  C8        -8.1120    8.7140  -29.8820 C.3   500  ADP500      0.3377
     20  N7        -8.9650    9.3650  -29.0380 N.2   500  ADP500     -0.2095
     21  C5        -9.7320   10.1940  -29.7910 C.2   500  ADP500      0.2526
     22  C6       -10.8440   11.1730  -29.5260 C.2   500  ADP500      0.4393
     23  N6       -11.3060   11.3960  -28.2510 N.pl3 500  ADP500      0.2180
     24  N1       -11.3720   11.8300  -30.6110 N.2   500  ADP500      0.0021
     25  C2       -10.9300   11.6240  -31.8780 C.3   500  ADP500      0.5254
     26  N3        -9.9320   10.7550  -32.1780 N.2   500  ADP500     -0.0055
     27  C4        -9.2890   10.0090  -31.2080 C.2   500  ADP500      0.3518
@<TRIPOS>BOND
     1    14    13    1
     2    16    15    1
     3     7     5    2
     4    13    15    1
     5    13    11    1
     6    15    17    1
     7    11    10    1
     8    11    12    1
     9    10     9    1
    10     5     8    1
    11     5     9    1
    12     5     6    1
    13    17    12    1
    14    17    18    1
    15    26    25    1
    16    26    27    2
    17     8     1    1
    18    25    24    1
    19     2     1    2
    20    27    18    1
    21    27    21    1
    22    18    19    1
    23     1     4    1
    24     1     3    1
    25    24    22    2
    26    19    20    1
    27    21    22    1
    28    21    20    2
    29    22    23    1
