@<TRIPOS>MOLECULE
2gt4_BMA_B_1.pdb
 11 11 0 0 0
SMALL
GASTEIGER

@<TRIPOS>ATOM
      1  C1       101.4230   35.2760   11.0050 C.3   202  BMA202      0.1777
      2  C2        99.9200   35.0590   10.8650 C.3   202  BMA202      0.2141
      3  C3        99.2300   36.3070   10.3300 C.3   202  BMA202      0.2173
      4  C4        99.6630   37.5460   11.1040 C.3   202  BMA202      0.2142
      5  C5       101.1810   37.6160   11.2090 C.3   202  BMA202      0.1810
      6  C6       101.6190   38.8220   12.0320 C.3   202  BMA202      0.2141
      7  O2        99.3660   34.7150   12.1400 O.3   202  BMA202     -0.2176
      8  O3        97.8100   36.1500   10.4350 O.3   202  BMA202     -0.2175
      9  O4        99.1740   38.7180   10.4430 O.3   202  BMA202     -0.2176
     10  O5       101.6670   36.4220   11.8180 O.3   202  BMA202     -0.3481
     11  O6       102.9860   38.6610   12.4250 O.3   202  BMA202     -0.2176
@<TRIPOS>BOND
     1     3     8    1
     2     3     2    1
     3     3     4    1
     4     9     4    1
     5     2     1    1
     6     2     7    1
     7     1    10    1
     8     4     5    1
     9     5    10    1
    10     5     6    1
    11     6    11    1
