@<TRIPOS>MOLECULE
2gt4_GDD_A_1.pdb
 39 42 0 0 0
SMALL
GASTEIGER

@<TRIPOS>ATOM
      1  N2       118.7690   61.0040   14.3460 N.pl3 201  GDD201     -0.0226
      2  C2       117.4200   61.0890   14.2980 C.1   201  GDD201      0.2531
      3  N1       116.6410   60.1510   14.9140 N.2   201  GDD201     -0.2485
      4  N3       116.8440   62.1250   13.6530 N.2   201  GDD201     -0.3074
      5  C4       115.4930   62.2340   13.6010 C.2   201  GDD201      0.2300
      6  C5       114.6880   61.2780   14.2180 C.2   201  GDD201      0.2182
      7  C6       115.2910   60.2190   14.8990 C.1   201  GDD201      0.2372
      8  O6       114.6170   59.3360   15.4880 O.2   201  GDD201     -0.2069
      9  N7       113.4070   61.6470   14.0060 N.2   201  GDD201     -0.2322
     10  C8       113.4150   62.7870   13.2750 C.3   201  GDD201      0.2246
     11  N9       114.6950   63.1400   13.0280 N.pl3 201  GDD201     -0.2354
     12  C1'      115.1740   64.3250   12.2640 C.3   201  GDD201      0.2293
     13  C2'      114.3510   64.5940   11.0130 C.3   201  GDD201      0.2310
     14  O2'      114.9440   64.0450    9.8270 O.3   201  GDD201     -0.2158
     15  C3'      114.2840   66.1050   10.9410 C.3   201  GDD201      0.2158
     16  O3'      115.3630   66.5950   10.1430 O.3   201  GDD201     -0.2175
     17  C4'      114.4710   66.5860   12.3700 C.3   201  GDD201      0.1799
     18  O4'      115.0300   65.4820   13.0940 O.3   201  GDD201     -0.3326
     19  C5'      113.1210   66.9680   12.9670 C.3   201  GDD201      0.1813
     20  O5'      112.1590   66.0920   12.3830 O.3   201  GDD201     -0.3112
     21  PA       110.5930   66.0830   12.7670 P.3   201  GDD201      0.2189
     22  O1A      110.3480   65.0090   13.7960 O.3   201  GDD201     -0.4371
     23  O2A      110.1180   67.4980   13.0480 O.2   201  GDD201     -0.5170
     24  O3A      110.0070   65.5200   11.3650 O.3   201  GDD201     -0.2703
     25  PB       110.2230   66.2830    9.9550 P.3   201  GDD201      0.2208
     26  O2B      110.3350   67.7770   10.1820 O.3   201  GDD201     -0.4371
     27  O3B      111.3060   65.5620    9.2110 O.2   201  GDD201     -0.5170
     28  O1B      108.8370   65.9850    9.2050 O.3   201  GDD201     -0.2857
     29  C11      107.9490   67.0500    8.8990 C.3   201  GDD201      0.2742
     30  O51      108.4010   67.7040    7.7070 O.3   201  GDD201     -0.3254
     31  C51      108.2170   67.0300    6.4490 C.3   201  GDD201      0.1835
     32  C61      108.5330   68.0060    5.3240 C.3   201  GDD201      0.2142
     33  O6A      109.9360   68.2430    5.3110 O.3   201  GDD201     -0.2176
     34  C21      106.5140   66.5430    8.7730 C.3   201  GDD201      0.2409
     35  O21      105.6750   67.7030    8.7840 O.3   201  GDD201     -0.2149
     36  C31      106.3180   65.7430    7.4800 C.3   201  GDD201      0.2198
     37  O31      104.9410   65.4050    7.2990 O.3   201  GDD201     -0.2174
     38  C41      106.7820   66.5550    6.2680 C.3   201  GDD201      0.2144
     39  O41      106.6650   65.7990    5.0530 O.3   201  GDD201     -0.2176
@<TRIPOS>BOND
     1    39    38    1
     2    33    32    1
     3    32    31    1
     4    38    31    1
     5    38    36    1
     6    31    30    1
     7    37    36    1
     8    36    34    1
     9    30    29    1
    10    34    35    1
    11    34    29    1
    12    29    28    1
    13    28    25    1
    14    27    25    2
    15    14    13    1
    16    25    26    1
    17    25    24    1
    18    16    15    1
    19    15    13    1
    20    15    17    1
    21    13    12    1
    22    24    21    1
    23    12    11    1
    24    12    18    1
    25    17    19    1
    26    17    18    1
    27    20    21    1
    28    20    19    1
    29    21    23    2
    30    21    22    1
    31    11    10    1
    32    11     5    1
    33    10     9    1
    34     5     4    2
    35     5     6    1
    36     4     2    2
    37     9     6    2
    38     6     7    1
    39     2     1    1
    40     2     3    2
    41     7     3    2
    42     7     8    2
