@<TRIPOS>MOLECULE
2gtb_AZP_A_1.pdb
 46 47 0 0 0
SMALL
GASTEIGER

@<TRIPOS>ATOM
      1  N         16.6830  -14.5140   12.2850 N.am  401  AZP401     -0.1611
      2  CAI       16.6040  -15.3460   13.3150 C.2   401  AZP401      0.4218
      3  OAH       15.3100  -15.4930   13.9290 O.3   401  AZP401     -0.4285
      4  CAG       15.3840  -15.6530   15.3540 C.3   401  AZP401      0.2368
      5  CAE       13.9630  -16.0420   15.7630 C.ar  401  AZP401      0.0213
      6  CAD       13.0150  -15.0560   16.0830 C.ar  401  AZP401     -0.0007
      7  CAC       11.7140  -15.4640   16.4730 C.ar  401  AZP401     -0.0002
      8  CAB       11.3370  -16.8150   16.4990 C.ar  401  AZP401     -0.0000
      9  CAA       12.2630  -17.7970   16.1680 C.ar  401  AZP401     -0.0002
     10  CAF       13.5720  -17.4010   15.8050 C.ar  401  AZP401     -0.0007
     11  OAL       17.5570  -15.9900   13.7180 O.2   401  AZP401     -0.2245
     12  CA        17.7560  -14.4570   11.2640 C.3   401  AZP401      0.1761
     13  CB        17.2660  -14.9640    9.8930 C.3   401  AZP401      0.0312
     14  CG        17.5330  -16.4420    9.6700 C.3   401  AZP401      0.0022
     15  CD1       16.6370  -17.2480   10.5710 C.3   401  AZP401      0.0001
     16  CD2       17.1180  -16.8680    8.2580 C.3   401  AZP401      0.0001
     17  C         18.0810  -13.0060   11.1450 C.2   401  AZP401      0.2617
     18  O         17.1990  -12.1760   10.9500 O.2   401  AZP401     -0.2715
     19  NAS       19.3290  -12.6130   11.2410 N.am  401  AZP401     -0.1959
     20  CAT       19.7080  -11.2200   11.1110 C.3   401  AZP401      0.1787
     21  CAV       21.2170  -11.0820   11.2540 C.3   401  AZP401      0.0575
     22  CAW       21.7060  -11.3080   12.6670 C.ar  401  AZP401     -0.0200
     23  CBF       21.1500  -10.6560   13.7660 C.ar  401  AZP401     -0.0042
     24  CBG       21.6840  -10.8670   15.0490 C.ar  401  AZP401     -0.0003
     25  CBH       22.7500  -11.7340   15.2550 C.ar  401  AZP401     -0.0000
     26  CBI       23.2790  -12.3960   14.1660 C.ar  401  AZP401     -0.0003
     27  CBJ       22.7630  -12.1630   12.8890 C.ar  401  AZP401     -0.0042
     28  CAU       19.3290  -10.7380    9.7580 C.2   401  AZP401      0.2795
     29  OAY       19.4060  -11.4610    8.7330 O.2   401  AZP401     -0.2698
     30  NAX       18.9280   -9.4630    9.7230 N.am  401  AZP401     -0.1061
     31  NAZ       18.5760   -8.9150    8.4510 N.am  401  AZP401     -0.1868
     32  CBA       17.1910   -8.9970    8.0550 C.3   401  AZP401      0.1266
     33  CBB       17.0110   -9.7150    6.7120 C.3   401  AZP401      0.1119
     34  CBC       15.5040   -9.8080    6.4590 C.2   401  AZP401      0.2625
     35  NBE       15.0040  -10.6810    5.5720 N.am  401  AZP401     -0.0877
     36  OBD       14.7380   -9.0870    7.0740 O.2   401  AZP401     -0.2716
     37  CBK       19.5770   -8.3800    7.6950 C.2   401  AZP401      0.2459
     38  OBL       19.3720   -7.9480    6.5890 O.2   401  AZP401     -0.2732
     39  CBM       20.9900   -8.2640    8.2150 C.3   401  AZP401      0.1313
     40  CBO       22.0460   -9.1350    7.5220 C.3   401  AZP401      0.2587
     41  OBN       21.6360  -10.4670    7.7650 O.3   401  AZP401     -0.2105
     42  CBP       23.3830   -8.9070    8.1690 C.2   401  AZP401      0.3482
     43  OBQ       24.0830   -8.0060    7.7960 O.2   401  AZP401     -0.2473
     44  OBR       23.7880   -9.7970    9.2380 O.3   401  AZP401     -0.4468
     45  CBS       24.9540   -9.4230    9.9460 C.3   401  AZP401      0.2086
     46  CBT       25.0940  -10.5440   10.9450 C.3   401  AZP401      0.0513
@<TRIPOS>BOND
     1    35    34   am
     2    34    33    1
     3    34    36    2
     4    38    37    2
     5    33    32    1
     6    40    41    1
     7    40    42    1
     8    40    39    1
     9    37    39    1
    10    37    31   am
    11    43    42    2
    12    32    31    1
    13    42    44    1
    14    16    14    1
    15    31    30    1
    16    29    28    2
    17    44    45    1
    18    14    13    1
    19    14    15    1
    20    30    28   am
    21    28    20    1
    22    13    12    1
    23    45    46    1
    24    18    17    2
    25    20    19    1
    26    20    21    1
    27    17    19   am
    28    17    12    1
    29    21    22    1
    30    12     1    1
    31     1     2   am
    32    22    27   ar
    33    22    23   ar
    34    27    26   ar
    35     2    11    2
    36     2     3    1
    37    23    24   ar
    38     3     4    1
    39    26    25   ar
    40    24    25   ar
    41     4     5    1
    42     5    10   ar
    43     5     6   ar
    44    10     9   ar
    45     6     7   ar
    46     9     8   ar
    47     7     8   ar
