@<TRIPOS>MOLECULE
2gte_VA_A_1.pdb
 22 21 0 0 0
SMALL
GASTEIGER

@<TRIPOS>ATOM
      1  O21       -5.3850   10.2920   -4.4910 O.2   501  VA501      -0.2501
      2  C20       -4.9090    9.5610   -5.3410 C.2   501  VA501       0.3176
      3  C22       -4.2030   10.0770   -6.5510 C.3   501  VA501       0.1212
      4  O19       -5.0600    8.1270   -5.1840 O.3   501  VA501      -0.4485
      5  C1        -5.9620    7.6460   -4.1720 C.3   501  VA501       0.2084
      6  C2        -6.5120    6.2800   -4.5620 C.3   501  VA501       0.0474
      7  C3        -7.2060    5.5930   -3.3910 C.3   501  VA501       0.0038
      8  C4        -7.7780    4.2300   -3.7820 C.3   501  VA501       0.0001
      9  C5        -7.0280    3.1040   -3.0680 C.3   501  VA501       0.0000
     10  C6        -6.7950    1.9090   -3.9920 C.3   501  VA501       0.0000
     11  C7        -5.4260    1.9680   -4.6650 C.3   501  VA501       0.0000
     12  C8        -4.3080    1.7300   -3.6560 C.3   501  VA501       0.0003
     13  C9        -3.4130    0.5810   -4.0830 C.3   501  VA501       0.0047
     14  C10       -2.1230    1.1380   -4.6620 C.3   501  VA501       0.0257
     15  C11       -0.9950    0.9400   -3.6750 C.2   501  VA501      -0.0307
     16  C12       -0.0450    1.8490   -3.4570 C.2   501  VA501      -0.0307
     17  C13        0.0240    3.1850   -4.1590 C.3   501  VA501       0.0257
     18  C14       -0.1800    4.3000   -3.1450 C.3   501  VA501       0.0047
     19  C15       -1.6330    4.7540   -3.1490 C.3   501  VA501       0.0003
     20  C16       -2.1300    5.0100   -1.7360 C.3   501  VA501       0.0000
     21  C17       -3.5840    5.4590   -1.7670 C.3   501  VA501       0.0000
     22  C18       -3.7570    6.7800   -1.0520 C.3   501  VA501       0.0000
@<TRIPOS>BOND
     1     3     2    1
     2     2     4    1
     3     2     1    2
     4     4     5    1
     5    11    10    1
     6    11    12    1
     7    14    13    1
     8    14    15    1
     9     6     5    1
    10     6     7    1
    11    17    16    1
    12    17    18    1
    13    13    12    1
    14    10     9    1
    15     8     7    1
    16     8     9    1
    17    15    16    2
    18    19    18    1
    19    19    20    1
    20    21    20    1
    21    21    22    1
