@<TRIPOS>MOLECULE
2gtf_HEM_X_1.pdb
 43 50 0 0 0
SMALL
GASTEIGER

@<TRIPOS>ATOM
      1 FE         17.6020   13.8750  116.4430 Fe    201  HEM201      0.0000
      2  CHA       17.8560   14.4870  119.7720 C.2   201  HEM201      0.0000
      3  CHB       20.6310   12.2150  116.5530 C.2   201  HEM201      0.0000
      4  CHC       17.0160   12.6910  113.3150 C.2   201  HEM201      0.0000
      5  CHD       15.0320   16.0640  116.1430 C.2   201  HEM201      0.0000
      6  NA        18.9330   13.3900  117.8940 N.2   201  HEM201      0.0000
      7  C1A       18.8790   13.7870  119.2080 C.2   201  HEM201      0.0000
      8  C2A       20.0670   13.3290  119.8790 C.2   201  HEM201      0.0000
      9  C3A       20.8120   12.7330  118.9710 C.2   201  HEM201      0.0000
     10  C4A       20.1440   12.8020  117.6920 C.2   201  HEM201      0.0000
     11  CMA       22.1870   12.1130  119.1690 C.3   201  HEM201      0.0000
     12  CAA       20.4410   13.4560  121.3660 C.3   201  HEM201      0.0000
     13  CBA       19.7050   12.3570  122.1520 C.3   201  HEM201      0.0000
     14  CGA       20.0220   12.5310  123.6390 C.2   201  HEM201      0.0000
     15  O1A       21.1490   12.2720  124.1260 O.co2 201  HEM201      0.0000
     16  O2A       19.1340   12.9640  124.3580 O.co2 201  HEM201      0.0000
     17  NB        18.6260   12.6930  115.1850 N.ar  201  HEM201      0.0000
     18  C1B       19.8440   12.0640  115.4530 C.ar  201  HEM201      0.0000
     19  C2B       20.1650   11.2480  114.3160 C.ar  201  HEM201      0.0000
     20  C3B       19.1870   11.3680  113.4040 C.ar  201  HEM201      0.0000
     21  C4B       18.1640   12.2780  113.9330 C.ar  201  HEM201      0.0000
     22  CMB       21.4260   10.4980  114.0760 C.3   201  HEM201      0.0000
     23  CAB       19.0160   10.6740  112.0730 C.2   201  HEM201      0.0000
     24  CBB       19.4180    9.4040  111.8240 C.2   201  HEM201      0.0000
     25  NC        16.2910   14.3220  115.0130 N.2   201  HEM201      0.0000
     26  C1C       16.2140   13.6800  113.7820 C.2   201  HEM201      0.0000
     27  C2C       15.1490   14.3390  113.0390 C.2   201  HEM201      0.0000
     28  C3C       14.6080   15.2560  113.8080 C.2   201  HEM201      0.0000
     29  C4C       15.3340   15.2760  115.0500 C.2   201  HEM201      0.0000
     30  CMC       14.7520   13.8820  111.6490 C.3   201  HEM201      0.0000
     31  CAC       13.4610   16.2530  113.5450 C.2   201  HEM201      0.0000
     32  CBC       12.6240   16.1430  112.5510 C.2   201  HEM201      0.0000
     33  ND        16.6220   15.0510  117.7310 N.ar  201  HEM201      0.0000
     34  C1D       15.5800   15.8960  117.3700 C.ar  201  HEM201      0.0000
     35  C2D       15.0390   16.4930  118.6070 C.ar  201  HEM201      0.0000
     36  C3D       15.9130   16.0060  119.6890 C.ar  201  HEM201      0.0000
     37  C4D       16.8950   15.1500  119.0850 C.ar  201  HEM201      0.0000
     38  CMD       13.8610   17.4500  118.7930 C.3   201  HEM201      0.0000
     39  CAD       15.7690   16.3940  121.1650 C.3   201  HEM201      0.0000
     40  CBD       15.0550   15.2850  121.8950 C.3   201  HEM201      0.0000
     41  CGD       15.1140   15.5280  123.4060 C.2   201  HEM201      0.0000
     42  O1D       15.8050   16.4350  123.9710 O.co2 201  HEM201      0.0000
     43  O2D       14.4010   14.7780  124.0690 O.co2 201  HEM201      0.0000
@<TRIPOS>BOND
     1    30    27    1
     2    24    23    2
     3    23    20    1
     4    32    31    2
     5    27    26    1
     6    27    28    2
     7     4    26    2
     8     4    21    1
     9    20    21   ar
    10    20    19   ar
    11    31    28    1
    12    26    25    1
    13    28    29    1
    14    21    17   ar
    15    22    19    1
    16    19    18   ar
    17    25    29    2
    18    25     1    1
    19    29     5    1
    20    17    18   ar
    21    17     1    1
    22    18     3    1
    23     5    34    2
    24     1    33    1
    25     1     6    1
    26     3    10    2
    27    34    33   ar
    28    34    35   ar
    29    10     6    1
    30    10     9    1
    31    33    37   ar
    32     6     7    2
    33    35    38    1
    34    35    36   ar
    35     9    11    1
    36     9     8    2
    37    37    36   ar
    38    37     2    2
    39     7     2    1
    40     7     8    1
    41    36    39    1
    42     8    12    1
    43    39    40    1
    44    12    13    1
    45    40    41    1
    46    13    14    1
    47    41    42   ar
    48    41    43   ar
    49    14    15   ar
    50    14    16   ar
