@<TRIPOS>MOLECULE
2gtk_208_A_1.pdb
 31 34 0 0 0
SMALL
GASTEIGER

@<TRIPOS>ATOM
      1  C30        0.2960   28.7680   15.4750 C.3   1001  2081001     0.0347
      2  C28       -0.1200   27.8040   16.5870 C.3   1001  2081001     0.1429
      3  O25        0.3980   28.2430   17.8380 O.3   1001  2081001    -0.3448
      4  C15       -0.0240   27.4050   18.9110 C.3   1001  2081001     0.2220
      5  C13       -1.3820   27.8110   19.4020 C.2   1001  2081001     0.3917
      6  O22       -2.1170   26.9220   19.9260 O.co2 1001  2081001    -0.2429
      7  O20       -1.7210   29.0300   19.3250 O.co2 1001  2081001    -0.2429
      8  C19        0.9770   27.4680   20.0680 C.3   1001  2081001     0.0676
      9  C18        2.2210   26.6840   19.7700 C.ar  1001  2081001    -0.0191
     10  C21        3.2640   27.2670   19.0130 C.ar  1001  2081001    -0.0027
     11  C17        2.3360   25.3940   20.2620 C.ar  1001  2081001    -0.0027
     12  C11        3.5190   24.6780   20.0120 C.ar  1001  2081001     0.0170
     13  C12        3.9450   23.3650   20.3950 C.ar  1001  2081001     0.0201
     14  C10        5.2050   23.1970   19.9190 C.ar  1001  2081001     0.0762
     15  C8         4.5360   25.2810   19.2860 C.ar  1001  2081001     0.0602
     16  C14        4.4370   26.5740   18.7580 C.ar  1001  2081001     0.0169
     17  N4         5.6220   24.3690   19.2270 N.ar  1001  2081001    -0.3196
     18  C9         6.9290   24.5960   18.5960 C.3   1001  2081001     0.1645
     19  C3         6.8700   24.2440   17.1430 C.2   1001  2081001     0.1526
     20  C7         7.1540   24.9540   16.0390 C.3   1001  2081001     0.2179
     21  C26        7.6300   26.3670   15.8900 C.3   1001  2081001     0.0549
     22  O5         6.9430   24.1820   14.9140 O.2   1001  2081001    -0.4485
     23  N2         6.4580   22.9710   16.6950 N.2   1001  2081001    -0.3710
     24  C1         6.5170   22.9690   15.3210 C.2   1001  2081001     0.2780
     25  C6         6.1750   21.8420   14.4770 C.ar  1001  2081001     0.0766
     26  C16        6.3860   21.8500   13.0830 C.ar  1001  2081001     0.0632
     27 CL23        7.0720   23.2420   12.2750 Cl    1001  2081001    -0.0821
     28  C27        6.0550   20.7330   12.3140 C.ar  1001  2081001     0.0116
     29  C31        5.5110   19.6080   12.9190 C.ar  1001  2081001     0.0009
     30  C29        5.2930   19.5900   14.2990 C.ar  1001  2081001     0.0002
     31  C24        5.6210   20.6950   15.0690 C.ar  1001  2081001     0.0066
@<TRIPOS>BOND
     1    27    26    1
     2    28    29   ar
     3    28    26   ar
     4    29    30   ar
     5    26    25   ar
     6    30    31   ar
     7    25    31   ar
     8    25    24    1
     9    22    24    1
    10    22    20    1
    11    24    23    2
    12     1     2    1
    13    21    20    1
    14    20    19    1
    15     2     3    1
    16    23    19    2
    17    19    18    1
    18     3     4    1
    19    18    17    1
    20    16    10   ar
    21    16    15   ar
    22     4     5    1
    23     4     8    1
    24    10     9   ar
    25    17    15   ar
    26    17    14   ar
    27    15    12   ar
    28     7     5   ar
    29     5     6   ar
    30     9     8    1
    31     9    11   ar
    32    14    13   ar
    33    12    11   ar
    34    12    13   ar
