@<TRIPOS>MOLECULE
2gtl_HEM_A_1.pdb
 43 50 0 0 0
SMALL
GASTEIGER

@<TRIPOS>ATOM
      1 FE         22.1790  130.6090   31.2110 Fe    160  HEM160      0.0000
      2  CHA       24.6150  132.4990   29.8680 C.2   160  HEM160      0.0000
      3  CHB       23.6910  127.8220   30.1320 C.2   160  HEM160      0.0000
      4  CHC       19.6870  128.7660   32.6230 C.2   160  HEM160      0.0000
      5  CHD       20.4100  133.4690   32.0130 C.2   160  HEM160      0.0000
      6  NA        23.7820  130.2650   30.2020 N.ar  160  HEM160      0.0000
      7  C1A       24.6940  131.1510   29.7190 C.ar  160  HEM160      0.0000
      8  C2A       25.7480  130.5100   28.9950 C.ar  160  HEM160      0.0000
      9  C3A       25.5060  129.2120   29.1020 C.ar  160  HEM160      0.0000
     10  C4A       24.2640  129.0530   29.8190 C.ar  160  HEM160      0.0000
     11  CMA       26.4210  128.1180   28.5600 C.3   160  HEM160      0.0000
     12  CAA       26.8000  131.1370   28.0810 C.3   160  HEM160      0.0000
     13  CBA       28.1440  131.4450   28.7250 C.3   160  HEM160      0.0000
     14  CGA       29.1400  132.0500   27.7470 C.2   160  HEM160      0.0000
     15  O1A       29.4190  131.4070   26.7250 O.co2 160  HEM160      0.0000
     16  O2A       29.6500  133.1610   27.9980 O.co2 160  HEM160      0.0000
     17  NB        21.7850  128.7090   31.3590 N.2   160  HEM160      0.0000
     18  C1B       22.5370  127.6670   30.8760 C.2   160  HEM160      0.0000
     19  C2B       22.0100  126.3890   31.3230 C.2   160  HEM160      0.0000
     20  C3B       20.9310  126.6500   32.0600 C.2   160  HEM160      0.0000
     21  C4B       20.7530  128.0950   32.0390 C.2   160  HEM160      0.0000
     22  CMB       22.5630  124.9910   31.1030 C.3   160  HEM160      0.0000
     23  CAB       20.2330  125.6990   32.7810 C.3   160  HEM160      0.0000
     24  CBB       19.1320  124.9740   32.1860 C.3   160  HEM160      0.0000
     25  NC        20.4550  131.0340   32.1410 N.ar  160  HEM160      0.0000
     26  C1C       19.5540  130.1400   32.6620 C.ar  160  HEM160      0.0000
     27  C2C       18.4180  130.8090   33.2400 C.ar  160  HEM160      0.0000
     28  C3C       18.6190  132.1280   33.0780 C.ar  160  HEM160      0.0000
     29  C4C       19.8730  132.2660   32.3910 C.ar  160  HEM160      0.0000
     30  CMC       17.2280  130.1560   33.9370 C.3   160  HEM160      0.0000
     31  CAC       17.7910  133.1280   33.5420 C.3   160  HEM160      0.0000
     32  CBC       16.8450  133.7800   32.6860 C.3   160  HEM160      0.0000
     33  ND        22.4780  132.5390   31.0370 N.2   160  HEM160      0.0000
     34  C1D       21.6140  133.5810   31.3420 C.2   160  HEM160      0.0000
     35  C2D       22.1060  134.8200   30.8090 C.2   160  HEM160      0.0000
     36  C3D       23.3150  134.5780   30.2850 C.2   160  HEM160      0.0000
     37  C4D       23.5540  133.1570   30.4520 C.2   160  HEM160      0.0000
     38  CMD       21.3470  136.1360   30.6770 C.3   160  HEM160      0.0000
     39  CAD       24.1680  135.6150   29.5510 C.3   160  HEM160      0.0000
     40  CBD       24.1660  135.4980   28.0210 C.3   160  HEM160      0.0000
     41  CGD       24.9890  136.5860   27.3550 C.2   160  HEM160      0.0000
     42  O1D       24.6020  137.7800   27.4610 O.co2 160  HEM160      0.0000
     43  O2D       26.0230  136.2450   26.7330 O.co2 160  HEM160      0.0000
@<TRIPOS>BOND
     1    15    14   ar
     2    43    41   ar
     3    41    42   ar
     4    41    40    1
     5    14    16   ar
     6    14    13    1
     7    40    39    1
     8    12    13    1
     9    12     8    1
    10    11     9    1
    11     8     9   ar
    12     8     7   ar
    13     9    10   ar
    14    39    36    1
    15     7     2    2
    16     7     6   ar
    17    10     3    2
    18    10     6   ar
    19     2    37    1
    20     3    18    1
    21     6     1    1
    22    36    37    1
    23    36    35    2
    24    37    33    2
    25    38    35    1
    26    35    34    1
    27    18    19    1
    28    18    17    2
    29    33     1    1
    30    33    34    1
    31    22    19    1
    32     1    17    1
    33     1    25    1
    34    19    20    2
    35    34     5    2
    36    17    21    1
    37     5    29    1
    38    21    20    1
    39    21     4    2
    40    20    23    1
    41    25    29   ar
    42    25    26   ar
    43    24    23    1
    44    29    28   ar
    45     4    26    1
    46    26    27   ar
    47    32    31    1
    48    28    27   ar
    49    28    31    1
    50    27    30    1
