@<TRIPOS>MOLECULE
2gtm_LID_A_1.pdb
 28 31 0 0 0
SMALL
GASTEIGER

@<TRIPOS>ATOM
      1  C5         2.2310    3.1250   22.7900 C.1   353  LID353      0.1669
      2  C8         3.1620    0.2030   19.6060 C.cat 353  LID353      0.2677
      3  C10        2.5640   -1.0420   21.7860 C.3   353  LID353      0.1018
      4  N12        3.4460   -0.9060   18.8330 N.pl3 353  LID353     -0.1692
      5  C13        3.9070   -0.7670   17.5290 C.ar  353  LID353      0.0848
      6  C15        1.3470    2.7250   24.9850 C.ar  353  LID353      0.1372
      7  C17       -0.1090    0.9960   25.8960 C.ar  353  LID353      0.0312
      8  C20        2.0690    2.7700   26.1550 C.ar  353  LID353      0.1583
      9  C21        3.0810   -1.0490   16.5140 C.ar  353  LID353      0.0175
     10  C22        3.4150   -0.9040   15.2290 C.ar  353  LID353      0.0014
     11  C24        5.6580   -0.0410   16.0700 C.ar  353  LID353      0.0127
     12  F28       -0.5480    1.7330   23.6270 F     353  LID353     -0.2027
     13  C16        0.1970    1.7870   24.7950 C.ar  353  LID353      0.1583
     14  C18        0.6520    1.0890   27.0970 C.ar  353  LID353      0.0047
     15  C19        1.7320    1.9440   27.2320 C.ar  353  LID353      0.0312
     16  F27        3.1060    3.6290   26.2000 F     353  LID353     -0.2027
     17  N14        1.7100    3.5690   24.0400 N.pl3 353  LID353     -0.1314
     18  N6         2.4120    4.1010   21.7000 N.2   353  LID353     -0.1884
     19  N4         2.1840    1.7040   22.5170 N.2   353  LID353     -0.3182
     20  C3         2.6540    1.3290   21.2950 C.2   353  LID353      0.2303
     21  N7         2.7500    0.1060   20.8930 N.pl3 353  LID353     -0.2219
     22  C11        1.5090   -1.9660   21.2720 C.3   353  LID353      0.0238
     23  C2         2.9080    2.2200   20.3200 C.2   353  LID353      0.1823
     24  C1         2.8310    3.6710   20.5490 C.3   353  LID353      0.2012
     25  N9         3.2790    1.5260   19.1950 N.2   353  LID353     -0.3696
     26  C23        4.7760   -0.3120   14.8310 C.ar  353  LID353      0.0010
     27  C25        5.1270   -0.2630   17.2960 C.ar  353  LID353      0.0730
     28 CL26        6.1740    0.0700   18.6380 Cl    353  LID353     -0.0809
@<TRIPOS>BOND
     1    26    10   ar
     2    26    11   ar
     3    10     9   ar
     4    11    27   ar
     5     9     5   ar
     6    27     5   ar
     7    27    28    1
     8     5     4    1
     9     4     2    1
    10    25     2    2
    11    25    23    2
    12     2    21    1
    13    23    24    1
    14    23    20    1
    15    24    18    1
    16    21    20    1
    17    21     3    1
    18    22     3    1
    19    20    19    2
    20    18     1    2
    21    19     1    2
    22     1    17    1
    23    12    13    1
    24    17     6    1
    25    13     6   ar
    26    13     7   ar
    27     6     8   ar
    28     7    14   ar
    29     8    16    1
    30     8    15   ar
    31    14    15   ar
