@<TRIPOS>MOLECULE
2gtn_LIE_A_1.pdb
 29 32 0 0 0
SMALL
GASTEIGER

@<TRIPOS>ATOM
      1  C5        -1.6120   -3.2020   22.6350 C.1   354  LIE354      0.2543
      2  C6        -2.3210   -1.3800   21.3880 C.2   354  LIE354      0.2318
      3  C7        -2.3840    1.0750   21.9590 C.3   354  LIE354      0.0833
      4  C10       -3.0640   -0.2450   19.8160 C.cat 354  LIE354      0.2677
      5  N12       -3.4760    0.8380   19.1410 N.pl3 354  LIE354     -0.1678
      6  C13       -0.7850   -2.7840   24.8120 C.ar  354  LIE354      0.2146
      7  C15       -1.5490   -2.8490   25.9460 C.ar  354  LIE354      0.1778
      8  C17        0.5280   -0.9750   25.7670 C.ar  354  LIE354      0.0330
      9  C26       -2.9800    0.9110   23.3360 C.3   354  LIE354      0.0220
     10  F40       -6.0740   -0.1700   18.7670 F     354  LIE354     -0.2028
     11  C36       -5.3430    0.1770   17.6870 C.ar  354  LIE354      0.1554
     12  C39       -5.9070    0.0290   16.4230 C.ar  354  LIE354      0.0310
     13  C35       -5.1390    0.4440   15.3220 C.ar  354  LIE354      0.0024
     14  C38       -3.8640    0.9840   15.4900 C.ar  354  LIE354      0.0015
     15  C37       -3.3050    1.0990   16.7490 C.ar  354  LIE354      0.0189
     16  C34       -4.0530    0.7020   17.8420 C.ar  354  LIE354      0.1017
     17  N11       -3.1510   -1.4870   19.2970 N.2   354  LIE354     -0.3696
     18  C3        -2.6500   -2.2100   20.3600 C.2   354  LIE354      0.1824
     19  C1        -2.4180   -3.5680   20.4920 C.3   354  LIE354      0.2028
     20  N8        -2.5960   -0.1390   21.0970 N.pl3 354  LIE354     -0.2235
     21  C25       -0.9250    1.5590   21.9580 C.3   354  LIE354      0.0220
     22  N2        -1.7540   -1.8820   22.5160 N.2   354  LIE354     -0.3026
     23  N4        -1.8970   -4.0760   21.6350 N.2   354  LIE354     -0.1713
     24  O9        -1.0740   -3.6730   23.7970 O.3   354  LIE354     -0.3788
     25  F19       -2.5200   -3.7520   25.9210 F     354  LIE354     -0.2008
     26  C18       -1.3210   -1.9780   27.0020 C.ar  354  LIE354      0.0330
     27  C14       -0.2840   -1.0530   26.9080 C.ar  354  LIE354      0.0048
     28  C16        0.2570   -1.8590   24.7170 C.ar  354  LIE354      0.1778
     29  F20        0.9590   -1.8610   23.5860 F     354  LIE354     -0.2008
@<TRIPOS>BOND
     1    13    14   ar
     2    13    12   ar
     3    14    15   ar
     4    12    11   ar
     5    15    16   ar
     6    11    16   ar
     7    11    10    1
     8    16     5    1
     9     5     4    1
    10    17     4    2
    11    17    18    2
    12     4    20    1
    13    18    19    1
    14    18     2    1
    15    19    23    1
    16    20     2    1
    17    20     3    1
    18     2    22    2
    19    23     1    2
    20    21     3    1
    21     3     9    1
    22    22     1    2
    23     1    24    1
    24    29    28    1
    25    24     6    1
    26    28     6   ar
    27    28     8   ar
    28     6     7   ar
    29     8    27   ar
    30    25     7    1
    31     7    26   ar
    32    27    26   ar
