@<TRIPOS>MOLECULE
2gtp_GDP_A_1.pdb
 28 30 0 0 0
SMALL
GASTEIGER

@<TRIPOS>ATOM
      1  PB        13.1760   29.7550   22.6700 P.3   402  GDP402      0.5373
      2  O1B       12.0250   30.7530   22.7160 O.3   402  GDP402     -0.1143
      3  O2B       13.4560   29.1960   21.2840 O.2   402  GDP402     -0.2221
      4  O3B       14.4740   30.3440   23.2060 O.3   402  GDP402     -0.1143
      5  O3A       12.8530   28.5240   23.6850 O.3   402  GDP402     -0.2261
      6  PA        11.3910   28.3250   24.3500 P.3   402  GDP402      0.2231
      7  O1A       10.3720   28.2780   23.2550 O.2   402  GDP402     -0.5169
      8  O2A       11.0190   29.3880   25.3690 O.3   402  GDP402     -0.4370
      9  O5'       11.5360   26.9270   25.1120 O.3   402  GDP402     -0.3111
     10  C5'       11.6870   25.6930   24.4320 C.3   402  GDP402      0.1813
     11  C4'       11.0360   24.5960   25.2540 C.3   402  GDP402      0.1799
     12  O4'       11.8350   24.3180   26.3870 O.3   402  GDP402     -0.3326
     13  C3'        9.6490   24.9810   25.7670 C.3   402  GDP402      0.2158
     14  O3'        8.7610   23.8560   25.6790 O.3   402  GDP402     -0.2175
     15  C2'        9.8640   25.3400   27.2120 C.3   402  GDP402      0.2310
     16  O2'        8.7410   24.9790   28.0150 O.3   402  GDP402     -0.2158
     17  C1'       11.0830   24.5200   27.5900 C.3   402  GDP402      0.2293
     18  N9        11.9520   25.1820   28.5860 N.pl3 402  GDP402     -0.2354
     19  C8        12.5100   26.3970   28.5030 C.3   402  GDP402      0.2246
     20  N7        13.2870   26.6600   29.5970 N.2   402  GDP402     -0.2322
     21  C5        13.2230   25.5900   30.3930 C.2   402  GDP402      0.2182
     22  C6        13.7920   25.1840   31.6920 C.1   402  GDP402      0.2372
     23  O6        14.5500   25.9570   32.3360 O.2   402  GDP402     -0.2069
     24  N1        13.4660   23.9780   32.1730 N.2   402  GDP402     -0.2485
     25  C2        12.6720   23.1320   31.5060 C.1   402  GDP402      0.2531
     26  N2        12.3960   21.9190   32.0330 N.pl3 402  GDP402     -0.0226
     27  N3        12.1180   23.4400   30.3230 N.2   402  GDP402     -0.3074
     28  C4        12.3550   24.6220   29.7200 C.2   402  GDP402      0.2300
@<TRIPOS>BOND
     1     3     1    2
     2     1     2    1
     3     1     4    1
     4     1     5    1
     5     7     6    2
     6     5     6    1
     7     6     9    1
     8     6     8    1
     9    10     9    1
    10    10    11    1
    11    11    13    1
    12    11    12    1
    13    14    13    1
    14    13    15    1
    15    12    17    1
    16    15    17    1
    17    15    16    1
    18    17    18    1
    19    19    18    1
    20    19    20    1
    21    18    28    1
    22    20    21    2
    23    28    27    2
    24    28    21    1
    25    27    25    2
    26    21    22    1
    27    25    26    1
    28    25    24    2
    29    22    24    2
    30    22    23    2
