@<TRIPOS>MOLECULE
2gtv_TSA_X_1.pdb
 26 27 0 0 0
SMALL
GASTEIGER

@<TRIPOS>ATOM
      1  C1        -5.4700    0.6150    2.4380 C.3   501  TSA501      0.0807
      2  C2        -5.3100   -0.1610    3.7510 C.3   501  TSA501     -0.0152
      3  C3        -6.2690   -0.0750    4.6940 C.3   501  TSA501     -0.0029
      4  C4        -7.3310    1.0170    4.7540 C.3   501  TSA501      0.0848
      5  O5        -6.9000    1.9550    5.7170 O.3   501  TSA501     -0.3889
      6  C5        -7.4810    1.7910    3.4160 C.3   501  TSA501      0.0869
      7  C6        -6.0770    1.9860    2.7930 C.3   501  TSA501     -0.0078
      8  O7        -8.2940    1.1270    2.4590 O.3   501  TSA501     -0.3594
      9  C8        -7.8850   -0.0160    1.7060 C.3   501  TSA501      0.1607
     10  C9        -6.4000    0.0380    1.3500 C.3   501  TSA501      0.0003
     11  C10       -4.1550    0.6720    1.6420 C.2   501  TSA501      0.3625
     12  O1        -3.9680    1.6560    0.9120 O.co2 501  TSA501     -0.2457
     13  O2        -3.3260   -0.2530    1.7390 O.co2 501  TSA501     -0.2457
     14  C11       -8.1970   -1.3060    2.4650 C.2   501  TSA501      0.3842
     15  O3        -7.9060   -2.4350    2.0170 O.co2 501  TSA501     -0.2434
     16  O4        -8.7640   -1.1490    3.5540 O.co2 501  TSA501     -0.2434
     17  H2        -4.4160   -0.7590    3.8720 H     501  TSA501      0.0318
     18  H3        -6.3160   -0.8180    5.4710 H     501  TSA501      0.0333
     19  H4        -8.2950    0.5980    5.0650 H     501  TSA501      0.0622
     20  HO5       -7.1190    1.5600    6.5670 H     501  TSA501      0.2099
     21  H5        -7.9620    2.7410    3.6370 H     501  TSA501      0.0622
     22  H61       -6.1560    2.6170    1.9000 H     501  TSA501      0.0302
     23  H62       -5.4140    2.5480    3.4340 H     501  TSA501      0.0302
     24  H8        -8.4950   -0.0620    0.8120 H     501  TSA501      0.0715
     25  H91       -6.0720   -0.9750    1.0980 H     501  TSA501      0.0306
     26  H92       -6.2720    0.5140    0.3850 H     501  TSA501      0.0306
@<TRIPOS>BOND
     1    26    10    1
     2    24     9    1
     3    12    11   ar
     4    25    10    1
     5    10     9    1
     6    10     1    1
     7    11    13   ar
     8    11     1    1
     9     9     8    1
    10     9    14    1
    11    22     7    1
    12    15    14   ar
    13     1     7    1
    14     1     2    1
    15     8     6    1
    16    14    16   ar
    17     7     6    1
    18     7    23    1
    19     6    21    1
    20     6     4    1
    21     2    17    1
    22     2     3    1
    23     3     4    1
    24     3    18    1
    25     4    19    1
    26     4     5    1
    27     5    20    1
