@<TRIPOS>MOLECULE
2gtx_NLP_A_1.pdb
 10 9 0 0 0
SMALL
GASTEIGER

@<TRIPOS>ATOM
      1  N         -8.1880    1.0630    2.8920 N.3   3808  NLP3808    -0.1251
      2  CA        -8.5010   -0.1600    2.1330 C.3   3808  NLP3808     0.1432
      3  CB        -8.4540    0.1160    0.6310 C.3   3808  NLP3808     0.0265
      4  CG        -9.5230   -0.7100   -0.0840 C.3   3808  NLP3808     0.0020
      5  CD        -9.6330   -0.2590   -1.5440 C.3   3808  NLP3808     0.0001
      6  CE       -10.9010    0.5730   -1.7300 C.3   3808  NLP3808     0.0000
      7  P         -7.3630   -1.5160    2.5930 P.3   3808  NLP3808     0.1344
      8  O1        -6.4980   -1.8870    1.4420 O.2   3808  NLP3808    -0.4587
      9  O2        -6.4240   -1.0590    3.8140 O.3   3808  NLP3808    -0.3562
     10  O3        -8.2410   -2.7910    3.0370 O.3   3808  NLP3808    -0.3562
@<TRIPOS>BOND
     1     6     5    1
     2     5     4    1
     3     4     3    1
     4     3     2    1
     5     8     7    2
     6     2     7    1
     7     2     1    1
     8     7    10    1
     9     7     9    1
