@<TRIPOS>MOLECULE
2gu4_NLP_A_1.pdb
 10 9 0 0 0
SMALL
GASTEIGER

@<TRIPOS>ATOM
      1  N         -8.4930    1.0930    2.7330 N.3   3808  NLP3808    -0.1251
      2  CA        -8.6690   -0.2150    2.0770 C.3   3808  NLP3808     0.1432
      3  CB        -8.5100   -0.0840    0.5630 C.3   3808  NLP3808     0.0265
      4  CG        -9.7000   -0.7420   -0.1360 C.3   3808  NLP3808     0.0020
      5  CD        -9.7180   -0.3450   -1.6140 C.3   3808  NLP3808     0.0001
      6  CE       -10.8080    0.7020   -1.8520 C.3   3808  NLP3808     0.0000
      7  P         -7.4960   -1.4300    2.7660 P.3   3808  NLP3808     0.1344
      8  O1        -6.4210   -1.7350    1.7910 O.2   3808  NLP3808    -0.4587
      9  O2        -6.8390   -0.8400    4.1020 O.3   3808  NLP3808    -0.3562
     10  O3        -8.2940   -2.7750    3.1260 O.3   3808  NLP3808    -0.3562
@<TRIPOS>BOND
     1     6     5    1
     2     5     4    1
     3     4     3    1
     4     3     2    1
     5     8     7    2
     6     2     1    1
     7     2     7    1
     8     7    10    1
     9     7     9    1
