@<TRIPOS>MOLECULE
2gu5_NLP_A_1.pdb
 10 9 0 0 0
SMALL
GASTEIGER

@<TRIPOS>ATOM
      1  N         -8.5120    1.0230    2.8400 N.3   3808  NLP3808    -0.1251
      2  CA        -8.7050   -0.3040    2.2330 C.3   3808  NLP3808     0.1432
      3  CB        -8.5990   -0.2160    0.7120 C.3   3808  NLP3808     0.0265
      4  CG        -9.9950   -0.2250    0.1000 C.3   3808  NLP3808     0.0020
      5  CD        -9.8850   -0.3950   -1.4150 C.3   3808  NLP3808     0.0001
      6  CE       -10.8560    0.5670   -2.0950 C.3   3808  NLP3808     0.0000
      7  P         -7.4990   -1.4920    2.8980 P.3   3808  NLP3808     0.1344
      8  O1        -6.2830   -1.5260    2.0570 O.2   3808  NLP3808    -0.4587
      9  O2        -7.1120   -1.0600    4.3940 O.3   3808  NLP3808    -0.3562
     10  O3        -8.1690   -2.9520    2.9320 O.3   3808  NLP3808    -0.3562
@<TRIPOS>BOND
     1     6     5    1
     2     5     4    1
     3     4     3    1
     4     3     2    1
     5     8     7    2
     6     2     1    1
     7     2     7    1
     8     7    10    1
     9     7     9    1
