@<TRIPOS>MOLECULE
2gu6_NLP_A_1.pdb
 10 9 0 0 0
SMALL
GASTEIGER

@<TRIPOS>ATOM
      1  N         -8.7440    0.9480    2.8530 N.3   3808  NLP3808    -0.1251
      2  CA        -8.7510   -0.4430    2.3620 C.3   3808  NLP3808     0.1432
      3  CB        -8.5440   -0.4710    0.8490 C.3   3808  NLP3808     0.0265
      4  CG        -9.8670   -0.1780    0.1400 C.3   3808  NLP3808     0.0020
      5  CD        -9.6560   -0.2360   -1.3750 C.3   3808  NLP3808     0.0001
      6  CE       -10.8640    0.3810   -2.0790 C.3   3808  NLP3808     0.0000
      7  P         -7.4660   -1.4110    3.2100 P.3   3808  NLP3808     0.1344
      8  O1        -6.1340   -1.0690    2.6480 O.2   3808  NLP3808    -0.4587
      9  O2        -7.4980   -1.0400    4.7730 O.3   3808  NLP3808    -0.3562
     10  O3        -7.7580   -2.9820    3.0150 O.3   3808  NLP3808    -0.3562
@<TRIPOS>BOND
     1     6     5    1
     2     5     4    1
     3     4     3    1
     4     3     2    1
     5     2     1    1
     6     2     7    1
     7     8     7    2
     8    10     7    1
     9     7     9    1
