@<TRIPOS>MOLECULE
2gu8_796_A_1.pdb
 28 30 0 0 0
SMALL
GASTEIGER

@<TRIPOS>ATOM
      1  O23       -9.6900   -9.2610    0.6840 O.2   1001  7961001    -0.2678
      2  C22      -10.0940   -9.5220    1.8320 C.2   1001  7961001     0.2708
      3  C18       -9.1420   -9.7940    2.9270 C.ar  1001  7961001     0.0845
      4  S1        -7.4760   -9.9170    2.3660 S.2   1001  7961001    -0.0798
      5  C17       -9.2430  -10.0010    4.2890 C.ar  1001  7961001     0.0117
      6  C16       -8.0150  -10.2540    4.9150 C.ar  1001  7961001     0.0097
      7  C15       -6.9350  -10.2680    4.0330 C.ar  1001  7961001     0.0601
      8  C3        -5.4560  -10.3730    4.2130 C.2   1001  7961001     0.1516
      9  C2        -4.8850  -10.4440    5.4910 C.2   1001  7961001     0.0550
     10  N4        -4.6670  -10.2940    3.1150 N.2   1001  7961001    -0.3359
     11  C5        -3.3130  -10.3060    3.2990 C.1   1001  7961001     0.1653
     12  N9        -2.5670  -10.2390    2.2320 N.pl3 1001  7961001    -0.1602
     13  C10       -3.2340   -9.9220    0.9880 C.3   1001  7961001     0.1494
     14  N6        -2.7590  -10.4040    4.5180 N.2   1001  7961001    -0.1686
     15  C1        -3.4870  -10.4710    5.6370 C.2   1001  7961001     0.1144
     16  N24      -11.3640   -9.5860    2.2010 N.am  1001  7961001    -0.2011
     17  C25      -12.3920   -8.9870    1.3750 C.3   1001  7961001     0.1190
     18  C27      -12.5970   -7.5230    1.7500 C.3   1001  7961001     0.1312
     19  N43      -13.3690   -6.7970    0.7530 N.3   1001  7961001    -0.1295
     20  C28      -13.5920   -9.8620    1.6990 C.3   1001  7961001     0.0504
     21  C30      -13.4750  -11.1960    0.9510 C.ar  1001  7961001    -0.0098
     22  C37      -13.8750  -11.3060   -0.3710 C.ar  1001  7961001    -0.0025
     23  C36      -13.7900  -12.5400   -1.0330 C.ar  1001  7961001     0.0111
     24  C35      -13.3070  -13.6450   -0.3650 C.ar  1001  7961001     0.0585
     25 CL4       -13.1680  -15.2310   -1.1410 Cl    1001  7961001    -0.0822
     26  C34      -12.8850  -13.5670    0.9220 C.ar  1001  7961001     0.0225
     27  C33      -12.9660  -12.3430    1.5530 C.ar  1001  7961001     0.0546
     28 CL2       -12.4060  -12.3460    3.2400 Cl    1001  7961001    -0.0825
@<TRIPOS>BOND
     1    25    24    1
     2    23    22   ar
     3    23    24   ar
     4    22    21   ar
     5    24    26   ar
     6     1     2    2
     7    19    18    1
     8    26    27   ar
     9    21    27   ar
    10    21    20    1
    11    13    12    1
    12    17    20    1
    13    17    18    1
    14    17    16    1
    15    27    28    1
    16     2    16   am
    17     2     3    1
    18    12    11    1
    19     4     3   ar
    20     4     7   ar
    21     3     5   ar
    22    10    11    2
    23    10     8    2
    24    11    14    2
    25     7     8    1
    26     7     6   ar
    27     8     9    1
    28     5     6   ar
    29    14    15    1
    30     9    15    2
