@<TRIPOS>MOLECULE
2guc_MAN_A_1.pdb
 12 12 0 0 0
SMALL
GASTEIGER

@<TRIPOS>ATOM
      1  C1        -1.2080   21.0970   20.5580 C.3   122  MAN122      0.3024
      2  C2        -0.7470   19.7930   19.8910 C.3   122  MAN122      0.2434
      3  C3         0.5160   19.2000   20.5740 C.3   122  MAN122      0.2199
      4  C4         1.6040   20.2810   20.7370 C.3   122  MAN122      0.2144
      5  C5         1.0410   21.5300   21.4510 C.3   122  MAN122      0.1836
      6  C6         2.0340   22.7110   21.4480 C.3   122  MAN122      0.2142
      7  O1        -1.7770   20.8460   21.8270 O.3   122  MAN122     -0.1869
      8  O2        -0.5040   20.0870   18.5100 O.3   122  MAN122     -0.2148
      9  O3         1.0240   18.0920   19.8490 O.3   122  MAN122     -0.2174
     10  O4         2.7070   19.7860   21.4790 O.3   122  MAN122     -0.2176
     11  O5        -0.1210   22.0130   20.8020 O.3   122  MAN122     -0.3236
     12  O6         2.1780   23.1020   20.1010 O.3   122  MAN122     -0.2176
@<TRIPOS>BOND
     1     8     2    1
     2     9     3    1
     3     2     1    1
     4     2     3    1
     5    12     6    1
     6     1    11    1
     7     1     7    1
     8     3     4    1
     9     4     5    1
    10     4    10    1
    11    11     5    1
    12     6     5    1
