@<TRIPOS>MOLECULE
2gud_MAN_A_1.pdb
 12 12 0 0 0
SMALL
GASTEIGER

@<TRIPOS>ATOM
      1  C1        -1.2250   21.1780   20.7270 C.3   122  MAN122      0.3024
      2  C2        -0.8350   19.9180   19.9420 C.3   122  MAN122      0.2434
      3  C3         0.4140   19.3010   20.5230 C.3   122  MAN122      0.2199
      4  C4         1.4760   20.3650   20.6250 C.3   122  MAN122      0.2144
      5  C5         0.9930   21.6220   21.3540 C.3   122  MAN122      0.1836
      6  C6         1.9960   22.7620   21.3760 C.3   122  MAN122      0.2142
      7  O1        -1.6880   20.8380   22.0240 O.3   122  MAN122     -0.1869
      8  O2        -0.6030   20.2620   18.6100 O.3   122  MAN122     -0.2148
      9  O3         0.9200   18.2080   19.7710 O.3   122  MAN122     -0.2174
     10  O4         2.5600   19.7910   21.2720 O.3   122  MAN122     -0.2176
     11  O5        -0.1730   22.1200   20.7390 O.3   122  MAN122     -0.3236
     12  O6         2.4050   23.1770   20.0930 O.3   122  MAN122     -0.2176
@<TRIPOS>BOND
     1     8     2    1
     2     9     3    1
     3     2     3    1
     4     2     1    1
     5    12     6    1
     6     3     4    1
     7     4    10    1
     8     4     5    1
     9     1    11    1
    10     1     7    1
    11    11     5    1
    12     5     6    1
