@<TRIPOS>MOLECULE
2gud_BMA_A_1.pdb
 12 12 0 0 0
SMALL
GASTEIGER

@<TRIPOS>ATOM
      1  C1        -0.9760   20.3940   20.3100 C.3   123  BMA123      0.3024
      2  C2        -0.3180   19.1970   19.6290 C.3   123  BMA123      0.2434
      3  C3         0.8610   18.7100   20.4850 C.3   123  BMA123      0.2199
      4  C4         1.8650   19.8260   20.6970 C.3   123  BMA123      0.2144
      5  C5         1.1070   21.0070   21.2740 C.3   123  BMA123      0.1836
      6  C6         1.9960   22.2240   21.3030 C.3   123  BMA123      0.2142
      7  O1        -2.0520   20.9330   19.5430 O.3   123  BMA123     -0.1869
      8  O2         0.0980   19.6140   18.3300 O.3   123  BMA123     -0.2148
      9  O3         1.5260   17.6160   19.8670 O.3   123  BMA123     -0.2174
     10  O4         2.9440   19.4310   21.5670 O.3   123  BMA123     -0.2176
     11  O5         0.0030   21.4030   20.4750 O.3   123  BMA123     -0.3236
     12  O6         2.0720   22.7600   19.9600 O.3   123  BMA123     -0.2176
@<TRIPOS>BOND
     1     8     2    1
     2     7     1    1
     3     2     1    1
     4     2     3    1
     5     9     3    1
     6    12     6    1
     7     1    11    1
     8    11     5    1
     9     3     4    1
    10     4     5    1
    11     4    10    1
    12     5     6    1
