@<TRIPOS>MOLECULE
2gue_NAG_B_1.pdb
 15 15 0 0 0
SMALL
GASTEIGER

@<TRIPOS>ATOM
      1  C1        18.9500   18.3500  -10.8160 C.3   122  NAG122      0.2917
      2  C2        20.1740   17.5180  -11.2580 C.3   122  NAG122      0.1871
      3  C3        21.4400   17.9390  -10.4680 C.3   122  NAG122      0.2095
      4  C4        21.6160   19.4360  -10.8050 C.3   122  NAG122      0.2136
      5  C5        20.4290   20.0730  -10.1000 C.3   122  NAG122      0.1835
      6  C6        20.5470   21.5640   -9.8110 C.3   122  NAG122      0.2142
      7  C7        19.9120   15.2560  -12.1660 C.2   122  NAG122      0.2421
      8  C8        20.4970   15.7530  -13.4710 C.3   122  NAG122      0.0964
      9  N2        19.7820   16.1120  -11.1240 N.am  122  NAG122     -0.1991
     10  O1        17.7800   18.0470  -11.6090 O.3   122  NAG122     -0.1879
     11  O3        22.6050   17.1660  -10.7650 O.3   122  NAG122     -0.2183
     12  O4        22.8700   20.0550  -10.4710 O.3   122  NAG122     -0.2176
     13  O5        19.2710   19.7500  -10.8800 O.3   122  NAG122     -0.3242
     14  O6        20.6530   22.3180  -11.0220 O.3   122  NAG122     -0.2176
     15  O7        19.5810   14.0930  -12.0740 O.2   122  NAG122     -0.2733
@<TRIPOS>BOND
     1     8     7    1
     2     7    15    2
     3     7     9   am
     4    10     1    1
     5     2     9    1
     6     2     1    1
     7     2     3    1
     8    14     6    1
     9    13     1    1
    10    13     5    1
    11     4    12    1
    12     4     3    1
    13     4     5    1
    14    11     3    1
    15     5     6    1
