@<TRIPOS>MOLECULE
2guf_MPG_A_10.pdb
 24 23 0 0 0
SMALL
GASTEIGER

@<TRIPOS>ATOM
      1  C2       -11.7590    8.5400   24.5610 C.3   710  MPG710      0.0321
      2  C3       -11.9840    7.0490   24.7860 C.3   710  MPG710      0.0026
      3  C4       -10.9680    6.2080   24.0160 C.3   710  MPG710      0.0001
      4  C5       -10.8180    4.7630   24.5000 C.3   710  MPG710      0.0000
      5  C6       -12.1320    3.9930   24.5470 C.3   710  MPG710      0.0003
      6  C7       -12.0950    2.8630   25.5790 C.3   710  MPG710      0.0047
      7  C8       -12.8500    3.1840   26.8810 C.3   710  MPG710      0.0257
      8  C9       -12.3220    2.2820   27.9880 C.2   710  MPG710     -0.0307
      9  C10      -11.2070    2.5360   28.7010 C.2   710  MPG710     -0.0307
     10  C11      -10.7240    1.5830   29.7690 C.3   710  MPG710      0.0257
     11  C12      -10.9380    0.1270   29.3220 C.3   710  MPG710      0.0047
     12  C13       -9.7080   -0.7910   29.3410 C.3   710  MPG710      0.0003
     13  C14       -9.3500   -1.3300   27.9570 C.3   710  MPG710      0.0000
     14  C15       -8.6460   -2.6870   28.0760 C.3   710  MPG710      0.0000
     15  C16       -7.6400   -2.9570   26.9600 C.3   710  MPG710      0.0000
     16  C17       -8.0180   -4.0180   25.9320 C.3   710  MPG710      0.0000
     17  C18       -6.7460   -4.5160   25.2510 C.3   710  MPG710      0.0000
     18  O1       -11.0290   10.4130   26.0840 O.3   710  MPG710     -0.3510
     19  C1       -10.7160    9.1090   25.5440 C.3   710  MPG710      0.1423
     20  CXD      -11.0560   11.8040   28.0710 C.3   710  MPG710      0.2141
     21  O2        -9.9310   11.8200   28.9370 O.3   710  MPG710     -0.2176
     22  C21      -12.2730   12.1700   28.9070 C.3   710  MPG710      0.2174
     23  O3       -11.9600   13.3140   29.7280 O.3   710  MPG710     -0.2175
     24  CX3      -11.1510   10.4010   27.5110 C.3   710  MPG710      0.1776
@<TRIPOS>BOND
     1     3     4    1
     2     3     2    1
     3     4     5    1
     4     5     6    1
     5     1     2    1
     6     1    19    1
     7    17    16    1
     8    19    18    1
     9     6     7    1
    10    16    15    1
    11    18    24    1
    12     7     8    1
    13    15    14    1
    14    24    20    1
    15    13    14    1
    16    13    12    1
    17     8     9    2
    18    20    22    1
    19    20    21    1
    20     9    10    1
    21    22    23    1
    22    11    12    1
    23    11    10    1
