@<TRIPOS>MOLECULE
2gui_U5P_A_1.pdb
 20 21 0 0 0
SMALL
GASTEIGER

@<TRIPOS>ATOM
      1  N1        -2.4560   24.5970    2.3400 N.am  2000  U5P2000    -0.2063
      2  C2        -2.7620   23.5430    3.2220 C.1   2000  U5P2000     0.2176
      3  N3        -3.8750   23.6260    3.9820 N.2   2000  U5P2000    -0.1624
      4  C4        -4.6960   24.6810    3.9050 C.2   2000  U5P2000     0.1094
      5  C5        -4.4190   25.7300    3.0350 C.2   2000  U5P2000     0.0176
      6  C6        -3.2720   25.6660    2.2410 C.3   2000  U5P2000     0.1328
      7  O2        -1.9920   22.5590    3.3010 O.2   2000  U5P2000    -0.2059
      8  C1'       -1.2330   24.4820    1.5380 C.3   2000  U5P2000     0.2356
      9  C2'       -1.4890   23.6450    0.2870 C.3   2000  U5P2000     0.2316
     10  O2'       -0.3970   22.7340    0.1060 O.3   2000  U5P2000    -0.2157
     11  C3'       -1.4930   24.6950   -0.8060 C.3   2000  U5P2000     0.2158
     12  C4'       -0.5650   25.7800   -0.2650 C.3   2000  U5P2000     0.1801
     13  O3'       -1.0240   24.1750   -2.0540 O.3   2000  U5P2000    -0.2175
     14  O4'       -0.7890   25.7890    1.1490 O.3   2000  U5P2000    -0.3322
     15  C5'       -0.8660   27.1390   -0.8560 C.3   2000  U5P2000     0.1859
     16  O5'       -2.2370   27.4400   -0.6420 O.3   2000  U5P2000    -0.2675
     17  P         -2.7670   28.8690   -1.1800 P.3   2000  U5P2000     0.5327
     18  O1P       -1.9500   29.8790   -0.4460 O.3   2000  U5P2000    -0.1145
     19  O2P       -4.2310   28.8850   -0.7950 O.3   2000  U5P2000    -0.1145
     20  O3P       -2.4080   28.9590   -2.6440 O.2   2000  U5P2000    -0.2224
@<TRIPOS>BOND
     1    20    17    2
     2    13    11    1
     3    17    19    1
     4    17    16    1
     5    17    18    1
     6    15    16    1
     7    15    12    1
     8    11    12    1
     9    11     9    1
    10    12    14    1
    11    10     9    1
    12     9     8    1
    13    14     8    1
    14     8     1    1
    15     6     1    1
    16     6     5    1
    17     1     2   am
    18     5     4    2
    19     2     7    2
    20     2     3    2
    21     4     3    1
