@<TRIPOS>MOLECULE
2gup_SUC_A_1.pdb
 23 24 0 0 0
SMALL
GASTEIGER

@<TRIPOS>ATOM
      1  C1         8.5120   35.0440    5.8480 C.3   290  SUC290      0.2713
      2  C2         9.0420   33.8420    5.0350 C.3   290  SUC290      0.2406
      3  C3        10.5840   33.8870    5.0800 C.3   290  SUC290      0.2198
      4  C4        11.0330   35.2250    4.4170 C.3   290  SUC290      0.2144
      5  C5        10.2730   36.4560    4.9580 C.3   290  SUC290      0.1835
      6  C6        10.5200   37.7050    4.0910 C.3   290  SUC290      0.2142
      7  O1         9.0300   35.0790    7.2080 O.3   290  SUC290     -0.3033
      8  O2         8.4570   32.6680    5.5420 O.3   290  SUC290     -0.2149
      9  O3        11.1600   32.7880    4.3850 O.3   290  SUC290     -0.2174
     10  O4        12.4460   35.3900    4.4510 O.3   290  SUC290     -0.2176
     11  O5         8.8520   36.2160    5.0830 O.3   290  SUC290     -0.3256
     12  O6        11.4050   38.5170    4.8310 O.3   290  SUC290     -0.2176
     13  C1'        7.8100   37.1880    7.7680 C.3   290  SUC290      0.2406
     14  C2'        8.1930   35.7560    8.1740 C.3   290  SUC290      0.2516
     15  C3'        6.9510   34.8830    8.5260 C.3   290  SUC290      0.2381
     16  C4'        7.6240   33.8770    9.4390 C.3   290  SUC290      0.2167
     17  C5'        8.6910   34.7010   10.2140 C.3   290  SUC290      0.1835
     18  C6'       10.0910   34.0240   10.3730 C.3   290  SUC290      0.2142
     19  O1'        9.0190   37.9380    7.6690 O.3   290  SUC290     -0.2149
     20  O2'        8.9120   35.8760    9.4220 O.3   290  SUC290     -0.3272
     21  O3'        6.2130   34.3090    7.4210 O.3   290  SUC290     -0.2150
     22  O4'        6.6330   33.1580   10.1600 O.3   290  SUC290     -0.2175
     23  O6'       10.8620   34.6950   11.4100 O.3   290  SUC290     -0.2176
@<TRIPOS>BOND
     1     6    12    1
     2     6     5    1
     3     9     3    1
     4     4    10    1
     5     4     5    1
     6     4     3    1
     7     5    11    1
     8     2     3    1
     9     2     8    1
    10     2     1    1
    11    11     1    1
    12     1     7    1
    13     7    14    1
    14    21    15    1
    15    19    13    1
    16    13    14    1
    17    14    15    1
    18    14    20    1
    19    15    16    1
    20    20    17    1
    21    16    22    1
    22    16    17    1
    23    17    18    1
    24    18    23    1
