@<TRIPOS>MOLECULE
2guu_UP6_A_1.pdb
 21 22 0 0 0
SMALL
GASTEIGER

@<TRIPOS>ATOM
      1  N1        41.9180    9.9580   53.0420 N.am  5203  UP65203    -0.0968
      2  C2        41.8890   11.0550   53.8260 C.1   5203  UP65203     0.3005
      3  N3        41.7840   10.9540   55.1930 N.2   5203  UP65203    -0.2426
      4  C4        41.7540    9.7270   55.7560 C.1   5203  UP65203     0.2380
      5  C5        41.8130    8.5650   54.9800 C.2   5203  UP65203     0.2253
      6  N6        41.8980    8.6610   53.6360 N.2   5203  UP65203    -0.1496
      7  O2        41.9220   12.1920   53.3330 O.2   5203  UP65203    -0.1905
      8  O4        41.6720    9.6420   57.0000 O.2   5203  UP65203    -0.2069
      9  C1'       42.0790   10.0280   51.5820 C.3   5203  UP65203     0.2577
     10  C2'       41.0460   10.8660   50.8560 C.3   5203  UP65203     0.2334
     11  C3'       41.8610   11.4020   49.6910 C.3   5203  UP65203     0.2159
     12  C4'       43.2300   11.6210   50.3190 C.3   5203  UP65203     0.1801
     13  O2'       39.9240   10.0710   50.4540 O.3   5203  UP65203    -0.2157
     14  O3'       42.0440   10.3750   48.6920 O.3   5203  UP65203    -0.2175
     15  O4'       43.3650   10.6260   51.3500 O.3   5203  UP65203    -0.3309
     16  C5'       43.4820   13.0490   50.8000 C.3   5203  UP65203     0.1859
     17  O5'       43.5620   13.9210   49.6690 O.3   5203  UP65203    -0.2675
     18  P         43.8600   15.5110   49.7870 P.3   5203  UP65203     0.5327
     19  O1P       45.3590   15.5940   50.0030 O.3   5203  UP65203    -0.1145
     20  O2P       43.3470   15.9530   48.4250 O.2   5203  UP65203    -0.2224
     21  O3P       43.0160   15.9610   50.9640 O.3   5203  UP65203    -0.1145
@<TRIPOS>BOND
     1    20    18    2
     2    14    11    1
     3    17    18    1
     4    17    16    1
     5    11    12    1
     6    11    10    1
     7    18    19    1
     8    18    21    1
     9    12    16    1
    10    12    15    1
    11    13    10    1
    12    10     9    1
    13    15     9    1
    14     9     1    1
    15     1     6    1
    16     1     2   am
    17     7     2    2
    18     6     5    2
    19     2     3    2
    20     5     4    1
    21     3     4    2
    22     4     8    2
