@<TRIPOS>MOLECULE
2gv6_730_A_1.pdb
 39 42 0 0 0
SMALL
GASTEIGER

@<TRIPOS>ATOM
      1  S1        18.5000   64.1160   28.8110 S.O2    1  7301        0.0772
      2  O39       18.2950   63.4140   30.0570 O.2     1  7301       -0.1516
      3  O38       19.7530   64.8440   28.6360 O.2     1  7301       -0.1516
      4  N12       18.3320   63.0850   27.6160 N.3     1  7301       -0.0696
      5  C13       18.3940   63.4390   26.2220 C.3     1  7301        0.1780
      6  C24       17.0350   63.0600   25.5950 C.2     1  7301        0.2437
      7  N26       16.4110   63.7080   24.5120 N.am    1  7301       -0.2784
      8  C31       15.1150   63.1700   24.0230 C.3     1  7301        0.0934
      9  C30       14.0500   64.2960   23.8850 C.3     1  7301        0.0217
     10  C29       14.5530   65.6660   24.4040 C.3     1  7301        0.0070
     11  C32       13.4180   66.7690   24.2700 C.3     1  7301        0.0470
     12  C33       13.5250   67.8710   23.1550 C.3     1  7301        0.2204
     13  N34       12.3330   68.7720   23.1870 N.pl3   1  7301       -0.0865
     14  C35       12.1240   69.8150   22.3640 C.cat   1  7301        0.5346
     15  N37       11.0110   70.5200   22.5010 N.pl3   1  7301        0.1354
     16  N36       12.9730   70.1780   21.4220 N.pl3   1  7301        0.1354
     17  C28       15.8930   66.0260   23.6570 C.3     1  7301        0.0217
     18  C27       16.9920   64.8910   23.8180 C.3     1  7301        0.0934
     19  O25       16.5000   62.0790   26.1410 O.2     1  7301       -0.2733
     20  C14       19.5480   62.8090   25.3560 C.3     1  7301        0.0550
     21  C15       19.4040   61.3250   24.9740 C.ar    1  7301       -0.0200
     22  C20       19.9150   60.2860   25.8220 C.ar    1  7301        0.0038
     23  C19       19.7750   58.9090   25.4620 C.ar    1  7301        0.0972
     24  C21       20.3190   57.8180   26.3490 C.2     1  7301        0.4766
     25  N23       20.7730   58.1080   27.5460 N.pl3   1  7301        0.2047
     26  N22       20.3360   56.5860   25.9180 N.pl3   1  7301        0.2047
     27  C18       19.1120   58.5790   24.2400 C.ar    1  7301        0.0080
     28  C17       18.6030   59.5940   23.3920 C.ar    1  7301       -0.0001
     29  C16       18.7470   60.9560   23.7510 C.ar    1  7301       -0.0042
     30  C2        17.1400   65.2220   28.5100 C.ar    1  7301        0.1236
     31  C7        15.7870   64.7850   28.6180 C.ar    1  7301        0.0200
     32  C6        14.7200   65.6980   28.3440 C.ar    1  7301        0.0014
     33  C5        15.0070   67.0450   27.9590 C.ar    1  7301        0.0001
     34  C11       13.9580   67.9680   27.6780 C.ar    1  7301        0.0000
     35  C10       14.2660   69.3070   27.2930 C.ar    1  7301        0.0000
     36  C9        15.6240   69.7320   27.1910 C.ar    1  7301        0.0000
     37  C8        16.6760   68.8210   27.4680 C.ar    1  7301        0.0000
     38  C4        16.3810   67.4790   27.8520 C.ar    1  7301        0.0013
     39  C3        17.4250   66.5680   28.1250 C.ar    1  7301        0.0200
@<TRIPOS>BOND
     1    16    14    1
     2    14    15    1
     3    14    13    2
     4    12    13    1
     5    12    11    1
     6    28    29   ar
     7    28    27   ar
     8    17    18    1
     9    17    10    1
    10    29    21   ar
    11    18     7    1
    12     9     8    1
    13     9    10    1
    14     8     7    1
    15    27    23   ar
    16    11    10    1
    17     7     6   am
    18    21    20    1
    19    21    22   ar
    20    20     5    1
    21    23    22   ar
    22    23    24    1
    23     6    19    2
    24     6     5    1
    25    26    24    2
    26     5     4    1
    27    24    25    1
    28    36    35   ar
    29    36    37   ar
    30    35    34   ar
    31    37    38   ar
    32     4     1    1
    33    34    33   ar
    34    38    33   ar
    35    38    39   ar
    36    33    32   ar
    37    39    30   ar
    38    32    31   ar
    39    30    31   ar
    40    30     1    1
    41     3     1    2
    42     1     2    2
