@<TRIPOS>MOLECULE
2gv7_672_A_1.pdb
 49 52 0 0 0
SMALL
GASTEIGER

@<TRIPOS>ATOM
      1  C2        13.2860   67.7070   27.4180 C.3   245  672245      0.0223
      2  C4        13.5330   69.2330   27.4640 C.3   245  672245      0.0047
      3  C3        14.6020   66.9120   27.5460 C.ar  245  672245     -0.0231
      4  C9        14.5800   65.6700   28.2110 C.ar  245  672245     -0.0073
      5  C8        15.7570   64.8720   28.3680 C.ar  245  672245     -0.0045
      6  C13       15.6410   63.5290   29.1150 C.3   245  672245      0.0237
      7  C15       14.3740   62.7220   28.7290 C.3   245  672245      0.0047
      8  C14       15.6630   63.7950   30.6460 C.3   245  672245      0.0047
      9  C7        17.0210   65.3370   27.8400 C.ar  245  672245      0.1156
     10  S16       18.5490   64.3310   28.0320 S.O2  245  672245      0.0766
     11  N19       18.3240   63.0430   27.0200 N.3   245  672245     -0.0696
     12  C20       17.9920   63.3230   25.6170 C.3   245  672245      0.1780
     13  C23       19.0940   62.7470   24.6740 C.3   245  672245      0.0550
     14  C24       18.9320   61.2500   24.3530 C.ar  245  672245     -0.0200
     15  C29       19.5890   60.2850   25.1810 C.ar  245  672245      0.0038
     16  C28       19.4440   58.8960   24.9150 C.ar  245  672245      0.0972
     17  C30       20.1000   57.9320   25.7230 C.2   245  672245      0.4766
     18  N32       20.0620   56.6140   25.4020 N.pl3 245  672245      0.2047
     19  N31       20.7970   58.3000   26.8070 N.pl3 245  672245      0.2047
     20  C27       18.6270   58.4870   23.8090 C.ar  245  672245      0.0080
     21  C26       17.9770   59.4390   22.9820 C.ar  245  672245     -0.0001
     22  C25       18.1260   60.8180   23.2430 C.ar  245  672245     -0.0042
     23  C21       16.6060   62.7970   25.3360 C.2   245  672245      0.2438
     24  N33       15.7050   63.4740   24.3220 N.am  245  672245     -0.2748
     25  C38       16.2330   64.6340   23.6370 C.3   245  672245      0.1149
     26  C37       15.1220   65.7200   23.4970 C.3   245  672245      0.1149
     27  N36       13.7970   65.1170   23.6210 N.am  245  672245     -0.2760
     28  C39       12.7070   65.7180   22.8210 C.2   245  672245      0.2255
     29  C41       12.9730   66.9540   21.9940 C.3   245  672245      0.0832
     30  C46       13.0840   66.5060   20.5020 C.3   245  672245      0.0497
     31  C45       13.2510   67.7160   19.5630 C.3   245  672245      0.1683
     32  N44       12.0780   68.6850   19.8440 N.pl3 245  672245     -0.1885
     33  C47       11.1610   68.9890   18.8840 C.cat 245  672245      0.4954
     34  N49       11.3570   68.6040   17.6090 N.pl3 245  672245      0.1298
     35  N48       10.0270   69.6620   19.1900 N.pl3 245  672245      0.1298
     36  C43       11.9640   69.2320   21.2560 C.3   245  672245      0.1683
     37  C42       11.8190   68.0190   22.2150 C.3   245  672245      0.0497
     38  O40       11.5860   65.2140   22.8460 O.2   245  672245     -0.2749
     39  C35       13.3830   63.9740   24.4280 C.3   245  672245      0.1149
     40  C34       14.3980   62.8590   24.1900 C.3   245  672245      0.1149
     41  O22       16.2080   61.8010   25.9510 O.2   245  672245     -0.2733
     42  O18       18.6160   63.7980   29.3830 O.2   245  672245     -0.1516
     43  O17       19.7050   65.0690   27.5590 O.2   245  672245     -0.1516
     44  C6        17.0420   66.6290   27.1490 C.ar  245  672245     -0.0045
     45  C10       18.3340   67.2300   26.5450 C.3   245  672245      0.0237
     46  C12       18.8690   68.3860   27.4270 C.3   245  672245      0.0047
     47  C11       18.1000   67.7630   25.1080 C.3   245  672245      0.0047
     48  C5        15.8330   67.3840   27.0210 C.ar  245  672245     -0.0073
     49  C1        12.5640   67.3620   26.1020 C.3   245  672245      0.0047
@<TRIPOS>BOND
     1    34    33    2
     2    33    35    1
     3    33    32    1
     4    31    32    1
     5    31    30    1
     6    32    36    1
     7    30    29    1
     8    36    37    1
     9    29    37    1
    10    29    28    1
    11    28    38    2
    12    28    27   am
    13    21    22   ar
    14    21    20   ar
    15    22    14   ar
    16    26    27    1
    17    26    25    1
    18    27    39    1
    19    25    24    1
    20    20    16   ar
    21    40    24    1
    22    40    39    1
    23    24    23   am
    24    14    13    1
    25    14    15   ar
    26    13    12    1
    27    16    15   ar
    28    16    17    1
    29    47    45    1
    30    23    12    1
    31    23    41    2
    32    18    17    2
    33    12    11    1
    34    17    19    1
    35    49     1    1
    36    45    44    1
    37    45    46    1
    38    11    10    1
    39    48    44   ar
    40    48     3   ar
    41    44     9   ar
    42     1     2    1
    43     1     3    1
    44     3     4   ar
    45    43    10    2
    46     9    10    1
    47     9     5   ar
    48    10    42    2
    49     4     5   ar
    50     5     6    1
    51     7     6    1
    52     6     8    1
