@<TRIPOS>MOLECULE
2gv8_NDP_A_1.pdb
 48 52 0 0 0
SMALL
GASTEIGER

@<TRIPOS>ATOM
      1  PA       -10.0600  -16.7610  -13.4160 P.3   501  NDP501      0.2189
      2  O1A       -9.1360  -17.8480  -13.2730 O.3   501  NDP501     -0.4371
      3  O2A      -10.4270  -16.2010  -14.7480 O.2   501  NDP501     -0.5170
      4  O5B      -11.4210  -17.2150  -12.6100 O.3   501  NDP501     -0.3112
      5  C5B      -12.6400  -17.3350  -13.3020 C.3   501  NDP501      0.1813
      6  C4B      -13.1940  -18.6000  -12.6900 C.3   501  NDP501      0.1820
      7  O4B      -14.5800  -18.3150  -12.3450 O.3   501  NDP501     -0.3136
      8  C3B      -13.1840  -19.8160  -13.5480 C.3   501  NDP501      0.2157
      9  O3B      -12.8570  -20.9820  -12.7540 O.3   501  NDP501     -0.2175
     10  C2B      -14.5710  -19.9280  -14.0720 C.3   501  NDP501      0.2314
     11  O2B      -15.0410  -21.1980  -14.5130 O.3   501  NDP501     -0.2630
     12  C1B      -15.3380  -19.3470  -12.9470 C.3   501  NDP501      0.3158
     13  N9A      -16.6680  -18.8720  -13.3830 N.pl3 501  NDP501     -0.1439
     14  C8A      -17.0220  -18.0080  -14.4640 C.3   501  NDP501      0.3377
     15  N7A      -18.3280  -17.8270  -14.5150 N.2   501  NDP501     -0.2095
     16  C5A      -18.8610  -18.5550  -13.4800 C.2   501  NDP501      0.2526
     17  C6A      -20.1740  -18.7700  -12.9990 C.2   501  NDP501      0.4393
     18  N6A      -21.2070  -18.1890  -13.5980 N.pl3 501  NDP501      0.2180
     19  N1A      -20.3650  -19.5720  -11.9240 N.2   501  NDP501      0.0021
     20  C2A      -19.2940  -20.1590  -11.3220 C.3   501  NDP501      0.5254
     21  N3A      -18.0220  -20.0190  -11.6940 N.2   501  NDP501     -0.0055
     22  C4A      -17.8660  -19.1970  -12.7860 C.2   501  NDP501      0.3518
     23  O3        -9.6030  -15.5290  -12.5720 O.3   501  NDP501     -0.2703
     24  PN        -9.3500  -15.1460  -11.0390 P.3   501  NDP501      0.2189
     25  O1N       -9.6910  -16.3210  -10.2280 O.3   501  NDP501     -0.4371
     26  O2N      -10.0670  -13.8410  -10.7940 O.2   501  NDP501     -0.5170
     27  O5D       -7.7720  -14.8180  -11.1280 O.3   501  NDP501     -0.3112
     28  C5D       -7.2140  -13.7000  -11.9340 C.3   501  NDP501      0.1813
     29  C4D       -5.6560  -13.6880  -11.7300 C.3   501  NDP501      0.1799
     30  O4D       -5.4750  -13.3950  -10.3640 O.3   501  NDP501     -0.3327
     31  C3D       -4.9860  -15.0570  -11.9300 C.3   501  NDP501      0.2158
     32  O3D       -3.7360  -14.8750  -12.5970 O.3   501  NDP501     -0.2175
     33  C2D       -4.8340  -15.6330  -10.5490 C.3   501  NDP501      0.2309
     34  O2D       -3.7480  -16.5600  -10.5160 O.3   501  NDP501     -0.2158
     35  C1D       -4.5990  -14.3140   -9.7420 C.3   501  NDP501      0.2263
     36  N1N       -4.9970  -14.4170   -8.3100 N.pl3 501  NDP501     -0.2787
     37  C2N       -3.9200  -14.6010   -7.4390 C.3   501  NDP501      0.1244
     38  C3N       -4.2070  -14.6810   -6.0530 C.2   501  NDP501      0.0544
     39  C7N       -3.0880  -14.8460   -5.1450 C.2   501  NDP501      0.2818
     40  O7N       -1.9670  -14.3700   -5.3550 O.2   501  NDP501     -0.2670
     41  N7N       -3.2570  -15.5690   -3.9950 N.am  501  NDP501     -0.0839
     42  C4N       -5.5440  -14.5820   -5.6190 C.2   501  NDP501      0.0033
     43  C5N       -6.6090  -14.4100   -6.4860 C.2   501  NDP501      0.0157
     44  C6N       -6.3330  -14.3190   -7.8530 C.2   501  NDP501      0.0633
     45  P2B      -14.4220  -21.9780  -15.6920 P.3   501  NDP501      0.5328
     46  O1X      -15.4540  -23.0320  -15.9400 O.3   501  NDP501     -0.1145
     47  O2X      -13.1100  -22.5070  -15.2410 O.3   501  NDP501     -0.1145
     48  O3X      -14.2600  -21.0300  -16.9130 O.2   501  NDP501     -0.2224
@<TRIPOS>BOND
     1    48    45    2
     2    46    45    1
     3    45    47    1
     4    45    11    1
     5     3     1    2
     6    15    14    1
     7    15    16    2
     8    11    10    1
     9    14    13    1
    10    10     8    1
    11    10    12    1
    12    18    17    1
    13     8     9    1
    14     8     6    1
    15    16    17    1
    16    16    22    1
    17     1     2    1
    18     1     4    1
    19     1    23    1
    20    13    12    1
    21    13    22    1
    22     5     6    1
    23     5     4    1
    24    17    19    2
    25    12     7    1
    26    22    21    2
    27     6     7    1
    28    32    31    1
    29    23    24    1
    30    28    29    1
    31    28    27    1
    32    31    29    1
    33    31    33    1
    34    19    20    1
    35    29    30    1
    36    21    20    1
    37    27    24    1
    38    24    26    2
    39    24    25    1
    40    33    34    1
    41    33    35    1
    42    30    35    1
    43    35    36    1
    44    36    44    1
    45    36    37    1
    46    44    43    2
    47    37    38    1
    48    43    42    1
    49    38    42    2
    50    38    39    1
    51    40    39    2
    52    39    41   am
