@<TRIPOS>MOLECULE
2gvd_GSP_C_1.pdb
 32 34 0 0 0
SMALL
GASTEIGER

@<TRIPOS>ATOM
      1  PG        23.6170    3.4360   28.6790 P.3   395  GSP395      0.4340
      2  O3B       22.6740    3.4110   27.3190 O.3   395  GSP395     -0.2405
      3  S1G       25.1750    4.3550   28.0970 S.3   395  GSP395      0.0416
      4  O2G       22.7880    3.9830   29.4860 O.3   395  GSP395     -0.1305
      5  O3G       24.1970    2.0790   28.9750 O.2   395  GSP395     -0.2423
      6  PB        21.1580    2.7250   27.2300 P.3   395  GSP395      0.2262
      7  O1B       21.4700    1.5480   26.4750 O.2   395  GSP395     -0.5168
      8  O2B       20.4150    2.4310   28.4750 O.3   395  GSP395     -0.4369
      9  PA        18.9900    4.5030   26.9750 P.3   395  GSP395      0.2189
     10  O1A       17.9090    3.4970   27.2910 O.2   395  GSP395     -0.5170
     11  O2A       19.5000    5.5180   27.9770 O.3   395  GSP395     -0.4371
     12  O3A       20.2370    3.7510   26.3860 O.3   395  GSP395     -0.2701
     13  O5'       18.4540    5.3700   25.6950 O.3   395  GSP395     -0.3112
     14  C5'       19.2260    6.4490   25.1100 C.3   395  GSP395      0.1813
     15  C4'       18.2440    7.4780   24.6000 C.3   395  GSP395      0.1799
     16  O4'       17.5080    6.9200   23.4550 O.3   395  GSP395     -0.3326
     17  C3'       17.1140    7.8070   25.6130 C.3   395  GSP395      0.2158
     18  O3'       17.0060    9.2520   25.6050 O.3   395  GSP395     -0.2175
     19  C2'       15.7990    7.1710   25.0590 C.3   395  GSP395      0.2310
     20  O2'       14.6340    7.9490   25.3550 O.3   395  GSP395     -0.2158
     21  C1'       16.0680    7.1030   23.5430 C.3   395  GSP395      0.2293
     22  N9        15.4780    5.9210   22.8420 N.pl3 395  GSP395     -0.2354
     23  C8        15.4540    4.6030   23.1480 C.3   395  GSP395      0.2246
     24  N7        14.8540    3.8560   22.3060 N.2   395  GSP395     -0.2322
     25  C5        14.4380    4.7320   21.3230 C.2   395  GSP395      0.2182
     26  C6        13.6990    4.4520   20.0970 C.1   395  GSP395      0.2372
     27  O6        13.3480    3.3100   19.7830 O.2   395  GSP395     -0.2069
     28  N1        13.4790    5.6490   19.3880 N.2   395  GSP395     -0.2485
     29  C2        13.8940    6.9440   19.7670 C.1   395  GSP395      0.2531
     30  N2        13.6260    7.9920   19.0060 N.pl3 395  GSP395     -0.0226
     31  N3        14.5820    7.1710   20.9230 N.2   395  GSP395     -0.3074
     32  C4        14.8130    6.0140   21.6460 C.2   395  GSP395      0.2300
@<TRIPOS>BOND
     1    30    29    1
     2    28    29    2
     3    28    26    2
     4    29    31    2
     5    27    26    2
     6    26    25    1
     7    31    32    2
     8    25    32    1
     9    25    24    2
    10    32    22    1
    11    24    23    1
    12    22    23    1
    13    22    21    1
    14    16    21    1
    15    16    15    1
    16    21    19    1
    17    15    14    1
    18    15    17    1
    19    19    20    1
    20    19    17    1
    21    14    13    1
    22    18    17    1
    23    13     9    1
    24    12     9    1
    25    12     6    1
    26     7     6    2
    27     9    10    2
    28     9    11    1
    29     6     2    1
    30     6     8    1
    31     2     1    1
    32     3     1    1
    33     1     5    2
    34     1     4    1
