@<TRIPOS>MOLECULE
2gvd_128_A_1.pdb
 46 50 0 0 0
SMALL
GASTEIGER

@<TRIPOS>ATOM
      1  PG        57.8700   -6.0460   59.3860 P.3   584  128584      0.5373
      2  O1G       57.9260   -5.5980   57.8520 O.2   584  128584     -0.2221
      3  O2G       56.4760   -5.5190   59.9590 O.3   584  128584     -0.1143
      4  O3G       58.9590   -5.3530   60.0530 O.3   584  128584     -0.1143
      5  PB        59.1730   -8.7830   59.1110 P.3   584  128584      0.2277
      6  O1B       60.1970   -8.4080   59.6110 O.3   584  128584     -0.4368
      7  O2B       58.9550   -9.7740   59.3200 O.2   584  128584     -0.5168
      8  O3B       58.0730   -7.7060   59.4870 O.3   584  128584     -0.2258
      9  PA        59.2740   -8.7980   55.9170 P.3   584  128584      0.2189
     10  O1A       57.7160   -8.6870   55.6480 O.3   584  128584     -0.4371
     11  O2A       60.1140   -7.7380   55.2340 O.2   584  128584     -0.5170
     12  O3A       59.6900   -8.6190   57.4840 O.3   584  128584     -0.2700
     13  O5'       59.7200  -10.3860   55.6810 O.3   584  128584     -0.3112
     14  C5'       58.9570  -11.4880   56.2450 C.3   584  128584      0.1812
     15  C4'       59.6420  -12.9080   55.8760 C.3   584  128584      0.1789
     16  O4'       58.7280  -13.4920   54.8650 O.3   584  128584     -0.3137
     17  C3'       60.8850  -13.0000   55.1350 C.3   584  128584      0.1814
     18  O3'       61.7880  -13.8740   55.8680 O.3   584  128584     -0.3250
     19  C2'       60.6220  -13.6440   53.7020 C.3   584  128584      0.2201
     20  O2'       61.3820  -14.8750   53.5240 O.3   584  128584     -0.3208
     21  C1'       59.0980  -13.9520   53.6000 C.3   584  128584      0.3152
     22  N9        58.3210  -13.1510   52.5890 N.pl3 584  128584     -0.1440
     23  C8        58.1930  -11.8130   52.3850 C.3   584  128584      0.3377
     24  N7        57.4230  -11.4670   51.4000 N.2   584  128584     -0.2095
     25  C5        56.9930  -12.6280   50.8990 C.2   584  128584      0.2526
     26  C6        56.1170  -12.8540   49.7760 C.2   584  128584      0.4393
     27  N6        55.6000  -11.7980   49.1140 N.pl3 584  128584      0.2180
     28  N1        55.7780  -14.1920   49.3930 N.2   584  128584      0.0021
     29  C2        56.3370  -15.2260   50.1110 C.3   584  128584      0.5254
     30  N3        57.1720  -14.9820   51.1800 N.2   584  128584     -0.0055
     31  C4        57.5500  -13.6990   51.6000 C.2   584  128584      0.3518
     32  C1F       62.0960  -15.0030   54.8850 C.3   584  128584      0.2592
     33  C2F       63.6080  -15.0670   54.5010 C.3   584  128584      0.2466
     34  C3F       64.4150  -16.1640   54.8860 C.2   584  128584      0.0324
     35  C4F       64.0340  -17.2900   55.6140 C.2   584  128584      0.1423
     36  C5F       62.6690  -17.3270   56.0160 C.2   584  128584      0.0484
     37  C6F       61.6400  -16.2620   55.7110 C.2   584  128584      0.1752
     38  N2F       64.2810  -14.0260   53.7390 N.pl3 584  128584      0.0420
     39  N4F       64.8310  -18.3180   55.9540 N.pl3 584  128584      0.0575
     40  N6F       60.3100  -16.5890   56.2540 N.pl3 584  128584      0.0584
     41  O2F       63.7440  -13.0360   53.3380 O.2   584  128584     -0.1305
     42  O3F       65.4680  -14.0950   53.4510 O.2   584  128584     -0.1305
     43  O4F       64.4570  -19.2960   56.5930 O.2   584  128584     -0.1261
     44  O5F       66.0020  -18.3470   55.6390 O.2   584  128584     -0.1261
     45  O6F       60.1290  -17.6470   56.8930 O.2   584  128584     -0.1263
     46  O7F       59.3300  -15.9370   56.1540 O.2   584  128584     -0.1263
@<TRIPOS>BOND
     1    27    26    1
     2    28    26    2
     3    28    29    1
     4    26    25    1
     5    29    30    1
     6    25    24    2
     7    25    31    1
     8    30    31    2
     9    24    23    1
    10    31    22    1
    11    23    22    1
    12    22    21    1
    13    41    38    2
    14    42    38    2
    15    20    19    1
    16    20    32    1
    17    21    19    1
    18    21    16    1
    19    19    17    1
    20    38    33    1
    21    33    32    1
    22    33    34    1
    23    16    15    1
    24    32    37    1
    25    32    18    1
    26    34    35    2
    27    17    18    1
    28    17    15    1
    29    11     9    2
    30    35    39    1
    31    35    36    1
    32    44    39    2
    33    10     9    1
    34    13     9    1
    35    13    14    1
    36    37    36    2
    37    37    40    1
    38    15    14    1
    39     9    12    1
    40    39    43    2
    41    46    40    2
    42    40    45    2
    43    12     5    1
    44     2     1    2
    45     5     7    2
    46     5     8    1
    47     5     6    1
    48     1     8    1
    49     1     3    1
    50     1     4    1
