@<TRIPOS>MOLECULE
2gvd_FKP_A_1.pdb
 39 42 0 0 0
SMALL
GASTEIGER

@<TRIPOS>ATOM
      1  C1        42.6000  -12.4600   51.9820 C.3   583  FKP583      0.1547
      2  O2        42.5680  -13.6480   51.1880 O.3   583  FKP583     -0.2231
      3  C2        43.5060  -12.7570   53.2270 C.3   583  FKP583      0.0330
      4  C3        44.9620  -13.1810   52.7540 C.3   583  FKP583      0.0027
      5  C4        45.6390  -12.0350   51.9370 C.3   583  FKP583      0.0027
      6  C5        44.7130  -11.6730   50.6580 C.3   583  FKP583      0.0393
      7  C6        45.3820  -10.4830   49.7590 C.3   583  FKP583      0.1943
      8  O3        45.6870   -9.2790   50.4550 O.3   583  FKP583     -0.2192
      9  C7        44.4190  -10.2050   48.4980 C.3   583  FKP583      0.2260
     10  O4        44.9250   -9.1530   47.6460 O.3   583  FKP583     -0.4470
     11  C8        42.9370   -9.8000   48.8410 C.3   583  FKP583      0.1639
     12  O1        42.1860   -9.6370   47.6090 O.3   583  FKP583     -0.3524
     13  C9        42.3260  -10.9340   49.7390 C.3   583  FKP583      0.2051
     14  O6        42.3440  -12.1000   48.9020 O.3   583  FKP583     -0.2155
     15  C10       43.1700  -11.2570   51.1240 C.3   583  FKP583      0.0652
     16  C11       40.8080  -10.5210   49.9970 C.2   583  FKP583      0.1831
     17  O7        40.2290  -10.8270   51.0170 O.2   583  FKP583     -0.2933
     18  C12       40.0020   -9.7170   48.9160 C.3   583  FKP583      0.0985
     19  C13       40.7590   -9.3230   47.5860 C.3   583  FKP583      0.1183
     20  C14       40.1180  -10.1180   46.4560 C.2   583  FKP583      0.0006
     21  C15       40.3950  -11.3940   46.2190 C.2   583  FKP583     -0.0025
     22  C16       40.5100   -7.8480   47.2330 C.3   583  FKP583      0.0346
     23  C17       43.0660   -8.3530   49.4380 C.3   583  FKP583      0.0365
     24  C18       47.0270  -12.5250   51.5020 C.3   583  FKP583      0.0001
     25  C19       46.0330  -11.0320   53.0320 C.3   583  FKP583      0.0001
     26  C20       43.1280  -10.0160   52.1080 C.3   583  FKP583      0.0056
     27  C21       46.2030   -9.2350   47.1730 C.2   583  FKP583      0.3170
     28  O5        46.6310  -10.2640   46.6800 O.2   583  FKP583     -0.2501
     29  C22       47.0670   -7.9220   47.2960 C.3   583  FKP583      0.1096
     30  C23       47.8190   -7.6100   48.6690 C.3   583  FKP583      0.0131
     31  C24       48.9050   -8.6850   49.0700 C.3   583  FKP583      0.0179
     32  C25       49.8190   -8.2720   50.2920 C.3   583  FKP583      0.0722
     33  N1        49.8420   -9.2950   51.4240 N.3   583  FKP583     -0.2703
     34  C26       49.6170   -8.5630   52.7390 C.3   583  FKP583      0.0897
     35  C27       49.6190   -9.3940   53.8400 C.3   583  FKP583      0.0897
     36  N2        50.8900  -10.1760   53.9640 N.3   583  FKP583     -0.2691
     37  C28       51.1400  -11.0060   52.7380 C.3   583  FKP583      0.0897
     38  C29       51.1540  -10.0830   51.4680 C.3   583  FKP583      0.0897
     39  C30       50.8050  -11.0100   55.1780 C.3   583  FKP583      0.0897
@<TRIPOS>BOND
     1    21    20    2
     2    20    19    1
     3    28    27    2
     4    27    29    1
     5    27    10    1
     6    22    19    1
     7    29    30    1
     8    19    12    1
     9    19    18    1
    10    12    11    1
    11    10     9    1
    12     9    11    1
    13     9     7    1
    14    30    31    1
    15    11    23    1
    16    11    13    1
    17    14    13    1
    18    18    16    1
    19    31    32    1
    20    13    16    1
    21    13    15    1
    22     7     8    1
    23     7     6    1
    24    16    17    2
    25    32    33    1
    26     6    15    1
    27     6     5    1
    28    15     1    1
    29    15    26    1
    30     2     1    1
    31    33    38    1
    32    33    34    1
    33    38    37    1
    34    24     5    1
    35     5     4    1
    36     5    25    1
    37     1     3    1
    38    37    36    1
    39    34    35    1
    40     4     3    1
    41    35    36    1
    42    36    39    1
