@<TRIPOS>MOLECULE
2gvg_NMN_A_1.pdb
 22 23 0 0 0
SMALL
GASTEIGER

@<TRIPOS>ATOM
      1  O3P       34.2120    6.9330   49.0550 O.2   501  NMN501     -0.2224
      2  P         33.2870    5.9060   49.8980 P.3   501  NMN501      0.5327
      3  O1P       32.0150    6.5620   50.3270 O.3   501  NMN501     -0.1145
      4  O2P       34.0300    5.4180   51.0940 O.3   501  NMN501     -0.1145
      5  O5R       32.9700    4.5890   49.0260 O.3   501  NMN501     -0.2675
      6  C5R       31.7070    4.5620   48.3980 C.3   501  NMN501      0.1859
      7  C4R       31.8430    4.8040   46.9790 C.3   501  NMN501      0.1801
      8  O4R       31.8910    3.5240   46.1020 O.3   501  NMN501     -0.3327
      9  C3R       30.6860    5.6480   46.5210 C.3   501  NMN501      0.2158
     10  O3R       31.0850    7.0340   46.3890 O.3   501  NMN501     -0.2175
     11  C2R       30.2310    5.0150   45.2100 C.3   501  NMN501      0.2309
     12  O2R       30.8080    5.7650   44.1160 O.3   501  NMN501     -0.2158
     13  C1R       30.7190    3.5470   45.3050 C.3   501  NMN501      0.2263
     14  N1        29.6660    2.4940   45.8300 N.pl3 501  NMN501     -0.2787
     15  C2        28.4170    2.5860   45.1400 C.3   501  NMN501      0.1244
     16  C3        27.3730    1.6970   45.4900 C.2   501  NMN501      0.0544
     17  C7        25.9310    1.6020   44.8760 C.2   501  NMN501      0.2818
     18  O7        25.8070    2.5360   43.9180 O.2   501  NMN501     -0.2670
     19  N7        25.0310    0.8370   45.1690 N.am  501  NMN501     -0.0839
     20  C4        27.5260    0.6440   46.5760 C.2   501  NMN501      0.0033
     21  C5        28.8350    0.6290   47.2230 C.2   501  NMN501      0.0157
     22  C6        29.9420    1.5100   46.9080 C.2   501  NMN501      0.0633
@<TRIPOS>BOND
     1    18    17    2
     2    12    11    1
     3    17    19   am
     4    17    16    1
     5    15    16    1
     6    15    14    1
     7    11    13    1
     8    11     9    1
     9    13    14    1
    10    13     8    1
    11    16    20    2
    12    14    22    1
    13     8     7    1
    14    10     9    1
    15     9     7    1
    16    20    21    1
    17    22    21    2
    18     7     6    1
    19     6     5    1
    20     5     2    1
    21     1     2    2
    22     2     3    1
    23     2     4    1
