@<TRIPOS>MOLECULE
2gvj_DGB_A_1.pdb
 29 31 0 0 0
SMALL
GASTEIGER

@<TRIPOS>ATOM
      1  CAK       11.5590    1.8770   -7.1940 C.ar  502  DGB502      0.0045
      2  CAF       10.1700    1.7710   -7.1460 C.ar  502  DGB502      0.0001
      3  CAE        9.4390    2.6280   -6.3300 C.ar  502  DGB502      0.0000
      4  CAG       10.0840    3.5880   -5.5580 C.ar  502  DGB502      0.0001
      5  CAL       11.4700    3.6920   -5.6050 C.ar  502  DGB502      0.0045
      6  CBA       12.2060    2.8390   -6.4220 C.ar  502  DGB502      0.0536
      7  CAY       13.7020    2.9590   -6.4530 C.2   502  DGB502      0.2490
      8  OAB       14.2240    3.4290   -7.4560 O.2   502  DGB502     -0.2699
      9  NBC       14.4130    2.5740   -5.3820 N.am  502  DGB502     -0.2761
     10  CAU       13.7760    2.0040   -4.1890 C.3   502  DGB502      0.0937
     11  CAS       14.0800    2.9240   -3.0080 C.3   502  DGB502      0.0216
     12  CAT       15.8830    2.6730   -5.3250 C.3   502  DGB502      0.0937
     13  CAR       16.2090    3.5990   -4.1360 C.3   502  DGB502      0.0216
     14  CBB       15.5960    3.0540   -2.8340 C.3   502  DGB502      0.0034
     15  CAQ       15.9640    3.8740   -1.5860 C.3   502  DGB502      0.0002
     16  CAO       15.3230    5.2590   -1.4410 C.3   502  DGB502      0.0018
     17  CAN       15.7740    5.8840   -0.1190 C.3   502  DGB502      0.0234
     18  CAP       15.7220    7.4170   -0.0830 C.3   502  DGB502      0.1155
     19  NAW       15.6990    7.7150    1.3430 N.am  502  DGB502     -0.2017
     20  CAX       14.8440    8.5130    1.9830 C.2   502  DGB502      0.2649
     21  OAA       13.9340    9.1130    1.4180 O.2   502  DGB502     -0.2684
     22  CAC       15.0460    8.6150    3.3080 C.2   502  DGB502      0.0595
     23  CAD       14.2730    9.3540    4.1120 C.2   502  DGB502      0.0063
     24  CAZ       14.5370    9.4020    5.5750 C.ar  502  DGB502      0.0193
     25  CAJ       15.5870    8.6740    6.1390 C.ar  502  DGB502      0.0031
     26  CAH       15.8010    8.7500    7.5060 C.ar  502  DGB502      0.0207
     27  CAI       14.9600    9.5450    8.2790 C.ar  502  DGB502      0.0989
     28  NAV       13.9480   10.2360    7.7260 N.ar  502  DGB502     -0.2423
     29  CAM       13.7280   10.1780    6.4030 C.ar  502  DGB502      0.0988
@<TRIPOS>BOND
     1     8     7    2
     2     1     2   ar
     3     1     6   ar
     4     2     3   ar
     5     7     6    1
     6     7     9   am
     7     6     5   ar
     8     3     4   ar
     9     5     4   ar
    10     9    12    1
    11     9    10    1
    12    12    13    1
    13    10    11    1
    14    13    14    1
    15    11    14    1
    16    14    15    1
    17    15    16    1
    18    16    17    1
    19    17    18    1
    20    18    19    1
    21    19    20   am
    22    21    20    2
    23    20    22    1
    24    22    23    2
    25    23    24    1
    26    24    25   ar
    27    24    29   ar
    28    25    26   ar
    29    29    28   ar
    30    26    27   ar
    31    28    27   ar
