@<TRIPOS>MOLECULE
2gvq_BE2_A_1.pdb
 10 10 0 0 0
SMALL
GASTEIGER

@<TRIPOS>ATOM
      1  C         11.5410   -4.7910   38.1620 C.2   346  BE2346      0.3891
      2  O1        11.6730   -5.9500   37.7110 O.co2 346  BE2346     -0.2405
      3  O2        12.4650   -3.8760   37.9410 O.co2 346  BE2346     -0.2405
      4  C1        10.3650   -4.3660   38.9810 C.ar  346  BE2346      0.0965
      5  C2         9.2930   -5.2830   39.2800 C.ar  346  BE2346      0.0954
      6  C3         8.1850   -4.8510   40.0730 C.ar  346  BE2346      0.0183
      7  N2         9.2710   -6.5780   38.8590 N.pl3 346  BE2346     -0.1278
      8  C4         8.1370   -3.5270   40.5440 C.ar  346  BE2346      0.0014
      9  C5         9.1740   -2.6130   40.2520 C.ar  346  BE2346      0.0003
     10  C6        10.2680   -3.0220   39.4770 C.ar  346  BE2346      0.0079
@<TRIPOS>BOND
     1     2     1   ar
     2     3     1   ar
     3     1     4    1
     4     7     5    1
     5     4     5   ar
     6     4    10   ar
     7     5     6   ar
     8    10     9   ar
     9     6     8   ar
    10     9     8   ar
