@<TRIPOS>MOLECULE
2gvv_DI9_A_1.pdb
 15 16 0 0 0
SMALL
GASTEIGER

@<TRIPOS>ATOM
      1  CAB       19.6170    4.9840   58.4910 C.3   502  DI9502      0.0301
      2  CAJ       21.0620    4.6560   58.1030 C.3   502  DI9502      0.0026
      3  CAK       21.4050    3.5080   59.0510 C.3   502  DI9502      0.0026
      4  CAL       20.8830    4.1270   60.3470 C.3   502  DI9502      0.0301
      5  CAC       19.4540    4.4810   59.9300 C.3   502  DI9502      0.1252
      6  OAD       18.6820    3.2760   59.8910 O.3   502  DI9502     -0.2836
      7  PAE       17.7730    2.8330   61.1460 P.3   502  DI9502      0.4427
      8  NAM       17.4800    4.1850   61.9950 N.3   502  DI9502     -0.0198
      9  OAA       16.5330    2.1360   60.7390 O.2   502  DI9502     -0.2369
     10  OAF       18.7160    1.9200   62.0790 O.3   502  DI9502     -0.2836
     11  CAG       18.3480    1.6610   63.4370 C.3   502  DI9502      0.1252
     12  CAH       18.4440    0.1580   63.7050 C.3   502  DI9502      0.0301
     13  CAI       19.9590   -0.0010   63.8190 C.3   502  DI9502      0.0026
     14  CAO       20.2210    1.0740   64.8740 C.3   502  DI9502      0.0026
     15  CAN       19.4320    2.2700   64.3340 C.3   502  DI9502      0.0301
@<TRIPOS>BOND
     1     2     1    1
     2     2     3    1
     3     1     5    1
     4     3     4    1
     5     6     5    1
     6     6     7    1
     7     5     4    1
     8     9     7    2
     9     7     8    1
    10     7    10    1
    11    10    11    1
    12    11    12    1
    13    11    15    1
    14    12    13    1
    15    13    14    1
    16    15    14    1
