@<TRIPOS>MOLECULE
2gvy_BGC_A_1.pdb
 12 12 0 0 0
SMALL
GASTEIGER

@<TRIPOS>ATOM
      1  C2        20.0420    3.8680    9.5380 C.3   1002  BGC1002     0.2434
      2  C3        18.9080    4.8170    9.8340 C.3   1002  BGC1002     0.2199
      3  C4        18.3770    4.4650   11.2200 C.3   1002  BGC1002     0.2144
      4  C5        19.4960    4.3890   12.2500 C.3   1002  BGC1002     0.1836
      5  C6        18.9190    4.0240   13.6170 C.3   1002  BGC1002     0.2142
      6  C1        21.0800    3.9230   10.6530 C.3   1002  BGC1002     0.3024
      7  O1        22.0820    2.9770   10.3320 O.3   1002  BGC1002    -0.1869
      8  O2        20.5830    4.1410    8.2690 O.3   1002  BGC1002    -0.2148
      9  O3        17.9220    4.6350    8.8400 O.3   1002  BGC1002    -0.2174
     10  O4        17.5390    5.5200   11.6140 O.3   1002  BGC1002    -0.2176
     11  O5        20.4640    3.4510   11.8300 O.3   1002  BGC1002    -0.3236
     12  O6        18.5340    2.6650   13.5980 O.3   1002  BGC1002    -0.2176
@<TRIPOS>BOND
     1     8     1    1
     2     9     2    1
     3     1     2    1
     4     1     6    1
     5     2     3    1
     6     7     6    1
     7     6    11    1
     8     3    10    1
     9     3     4    1
    10    11     4    1
    11     4     5    1
    12    12     5    1
