@<TRIPOS>MOLECULE
2gvy_GLC_A_1.pdb
 11 11 0 0 0
SMALL
GASTEIGER

@<TRIPOS>ATOM
      1  C1        16.1960    5.0850   11.7600 C.3   1001  GLC1001     0.1777
      2  C2        15.2960    6.0160   10.9200 C.3   1001  GLC1001     0.2141
      3  C3        15.3480    7.4360   11.4500 C.3   1001  GLC1001     0.2173
      4  C4        15.0550    7.4840   12.9610 C.3   1001  GLC1001     0.2142
      5  C5        15.9380    6.4520   13.7110 C.3   1001  GLC1001     0.1810
      6  C6        15.6350    6.3090   15.2190 C.3   1001  GLC1001     0.2141
      7  O2        15.6100    6.0380    9.5220 O.3   1001  GLC1001    -0.2176
      8  O3        14.3760    8.1660   10.7310 O.3   1001  GLC1001    -0.2175
      9  O4        15.3940    8.8240   13.3200 O.3   1001  GLC1001    -0.2176
     10  O5        15.8570    5.1490   13.1260 O.3   1001  GLC1001    -0.3481
     11  O6        14.3100    5.8390   15.4300 O.3   1001  GLC1001    -0.2176
@<TRIPOS>BOND
     1     7     2    1
     2     8     3    1
     3     2     3    1
     4     2     1    1
     5     3     4    1
     6     1    10    1
     7     4     9    1
     8     4     5    1
     9    10     5    1
    10     5     6    1
    11     6    11    1
