@<TRIPOS>MOLECULE
2gvz_ONA_A_1.pdb
 41 44 0 0 0
SMALL
GASTEIGER

@<TRIPOS>ATOM
      1  CA7       66.4750  -13.8310   54.2670 C.3   100  ONA100      0.1355
      2  NA1       65.0900  -14.2600   54.5890 N.pl3 100  ONA100     -0.2355
      3  CA6       64.6280  -15.4970   54.9490 C.ar  100  ONA100      0.0716
      4  CA5       65.6330  -16.7210   55.0680 C.ar  100  ONA100      0.0163
      5  CA4       65.0050  -18.1670   55.2880 C.ar  100  ONA100      0.0013
      6  CA3       63.5100  -18.2060   55.7560 C.ar  100  ONA100      0.0003
      7  CA2       62.7080  -16.8750   55.5750 C.ar  100  ONA100      0.0077
      8  CA1       63.2250  -15.6280   55.2040 C.ar  100  ONA100      0.0904
      9  CA        62.2010  -14.4790   55.1090 C.2   100  ONA100      0.3425
     10  OA        62.2030  -13.3990   56.0610 O.2   100  ONA100     -0.2448
     11  O3'       61.3070  -14.5820   54.0780 O.3   100  ONA100     -0.4436
     12  C3'       60.3130  -13.5540   53.6830 C.3   100  ONA100      0.2355
     13  C2'       59.5560  -14.0960   52.4810 C.3   100  ONA100      0.2665
     14  O2'       60.4470  -14.7100   51.5470 O.3   100  ONA100     -0.2119
     15  C4'       59.1710  -13.4130   54.6860 C.3   100  ONA100      0.1918
     16  C5'       58.4050  -12.0480   54.8740 C.3   100  ONA100      0.1825
     17  O5'       58.7830  -10.9190   54.3950 O.3   100  ONA100     -0.3111
     18  PA        57.5360   -9.8790   54.5440 P.3   100  ONA100      0.2189
     19  O3A       58.0550   -8.7880   53.5430 O.2   100  ONA100     -0.5170
     20  O2A       56.2280  -10.4840   54.2330 O.3   100  ONA100     -0.4371
     21  O1A       57.7730   -9.6350   56.0790 O.3   100  ONA100     -0.2700
     22  PB        56.7890   -8.9600   57.0770 P.3   100  ONA100      0.2277
     23  O3B       55.6160  -10.0680   56.9290 O.3   100  ONA100     -0.4368
     24  O2B       56.1280   -7.5930   56.8900 O.2   100  ONA100     -0.5168
     25  O1B       57.6880   -9.3530   58.2650 O.3   100  ONA100     -0.2258
     26  PG        58.4560   -8.1580   58.8760 P.3   100  ONA100      0.5373
     27  O3G       58.9490   -7.1550   57.6840 O.2   100  ONA100     -0.2221
     28  O1G       57.3550   -7.4640   59.8430 O.3   100  ONA100     -0.1143
     29  O2G       59.6300   -8.6540   59.6390 O.3   100  ONA100     -0.1143
     30  O4'       58.1630  -14.4440   54.3430 O.3   100  ONA100     -0.3124
     31  C1'       58.6190  -15.1150   53.1320 C.3   100  ONA100      0.3197
     32  N9        57.4750  -15.5500   52.2530 N.pl3 100  ONA100     -0.1438
     33  C8        57.2030  -16.8360   51.9360 C.3   100  ONA100      0.3377
     34  N7        56.1400  -16.8940   51.1300 N.2   100  ONA100     -0.2095
     35  C5        55.7230  -15.6530   50.9250 C.2   100  ONA100      0.2526
     36  C4        56.5740  -14.7780   51.6440 C.2   100  ONA100      0.3518
     37  N3        56.3950  -13.4190   51.6250 N.2   100  ONA100     -0.0055
     38  C2        55.4100  -12.8080   50.9330 C.3   100  ONA100      0.5254
     39  N1        54.5160  -13.6240   50.1830 N.2   100  ONA100      0.0021
     40  C6        54.6750  -15.0600   50.1770 C.2   100  ONA100      0.4393
     41  N6        53.8360  -15.8190   49.4700 N.pl3 100  ONA100      0.2180
@<TRIPOS>BOND
     1    41    40    1
     2    40    39    2
     3    40    35    1
     4    39    38    1
     5    35    34    2
     6    35    36    1
     7    38    37    1
     8    34    33    1
     9    14    13    1
    10    37    36    2
    11    36    32    1
    12    33    32    1
    13    32    31    1
    14    13    31    1
    15    13    12    1
    16    31    30    1
    17    19    18    2
    18    12    11    1
    19    12    15    1
    20    11     9    1
    21    20    18    1
    22     1     2    1
    23    30    15    1
    24    17    18    1
    25    17    16    1
    26    18    21    1
    27     2     3    1
    28    15    16    1
    29     3     4   ar
    30     3     8   ar
    31     4     5   ar
    32     9     8    1
    33     9    10    2
    34     8     7   ar
    35     5     6   ar
    36     7     6   ar
    37    21    22    1
    38    24    22    2
    39    23    22    1
    40    22    25    1
    41    27    26    2
    42    25    26    1
    43    26    29    1
    44    26    28    1
