@<TRIPOS>MOLECULE
2gvz_GSP_C_1.pdb
 32 34 0 0 0
SMALL
GASTEIGER

@<TRIPOS>ATOM
      1  PG        22.9690    3.2100   28.6790 P.3   395  GSP395      0.4340
      2  O3B       22.4230    2.8290   27.1890 O.3   395  GSP395     -0.2405
      3  S1G       24.7780    3.6960   28.3660 S.3   395  GSP395      0.0416
      4  O2G       21.9560    4.2190   29.0240 O.2   395  GSP395     -0.2423
      5  O3G       23.1390    1.9950   29.5130 O.3   395  GSP395     -0.1305
      6  PB        20.8720    2.2750   27.0270 P.3   395  GSP395      0.2262
      7  O1B       21.1230    1.1160   26.1680 O.2   395  GSP395     -0.5168
      8  O2B       20.1300    1.9250   28.2500 O.3   395  GSP395     -0.4369
      9  PA        18.7940    4.1290   27.0200 P.3   395  GSP395      0.2189
     10  O1A       17.7780    3.1770   27.5240 O.2   395  GSP395     -0.5170
     11  O2A       19.4500    5.1040   27.9150 O.3   395  GSP395     -0.4371
     12  O3A       19.9260    3.3410   26.2960 O.3   395  GSP395     -0.2701
     13  O5'       18.0900    5.0000   25.8130 O.3   395  GSP395     -0.3112
     14  C5'       18.7590    6.0330   25.0680 C.3   395  GSP395      0.1813
     15  C4'       17.6970    6.8080   24.3260 C.3   395  GSP395      0.1799
     16  O4'       17.0250    5.9350   23.3650 O.3   395  GSP395     -0.3326
     17  C3'       16.5040    7.3130   25.2460 C.3   395  GSP395      0.2158
     18  O3'       16.3750    8.7730   25.0660 O.3   395  GSP395     -0.2175
     19  C2'       15.2270    6.5770   24.6630 C.3   395  GSP395      0.2310
     20  O2'       14.0070    7.3230   24.7410 O.3   395  GSP395     -0.2158
     21  C1'       15.6400    6.3320   23.2080 C.3   395  GSP395      0.2293
     22  N9        14.9330    5.2100   22.5850 N.pl3 395  GSP395     -0.2354
     23  C8        14.7860    3.8870   22.9210 C.3   395  GSP395      0.2246
     24  N7        14.0670    3.1770   22.1130 N.2   395  GSP395     -0.2322
     25  C5        13.7050    4.1180   21.1570 C.2   395  GSP395      0.2182
     26  C6        12.8820    3.9190   19.9870 C.1   395  GSP395      0.2372
     27  O6        12.3780    2.8260   19.6970 O.2   395  GSP395     -0.2069
     28  N1        12.7570    5.1240   19.2790 N.2   395  GSP395     -0.2485
     29  C2        13.3260    6.3590   19.6160 C.1   395  GSP395      0.2531
     30  N2        13.1220    7.4150   18.8470 N.pl3 395  GSP395     -0.0226
     31  N3        14.1000    6.5200   20.7340 N.2   395  GSP395     -0.3074
     32  C4        14.2380    5.3580   21.4460 C.2   395  GSP395      0.2300
@<TRIPOS>BOND
     1    30    29    1
     2    28    29    2
     3    28    26    2
     4    29    31    2
     5    27    26    2
     6    26    25    1
     7    31    32    2
     8    25    32    1
     9    25    24    2
    10    32    22    1
    11    24    23    1
    12    22    23    1
    13    22    21    1
    14    21    16    1
    15    21    19    1
    16    16    15    1
    17    15    14    1
    18    15    17    1
    19    19    20    1
    20    19    17    1
    21    18    17    1
    22    14    13    1
    23    13     9    1
    24     7     6    2
    25    12     9    1
    26    12     6    1
    27     9    10    2
    28     9    11    1
    29     6     2    1
    30     6     8    1
    31     2     1    1
    32     3     1    1
    33     1     4    2
    34     1     5    1
