@<TRIPOS>MOLECULE
2gvz_FKP_A_1.pdb
 39 42 0 0 0
SMALL
GASTEIGER

@<TRIPOS>ATOM
      1  C1        42.3800  -12.0890   51.8690 C.3     1  FKP1        0.1547
      2  O2        42.2650  -13.4210   51.4430 O.3     1  FKP1       -0.2231
      3  C2        43.4500  -12.0550   53.0940 C.3     1  FKP1        0.0330
      4  C3        44.6360  -13.0200   52.6240 C.3     1  FKP1        0.0027
      5  C4        45.3660  -12.2810   51.4410 C.3     1  FKP1        0.0027
      6  C5        44.3670  -11.9190   50.2570 C.3     1  FKP1        0.0393
      7  C6        45.0860  -10.9080   49.1910 C.3     1  FKP1        0.1943
      8  O3        45.4380   -9.6720   49.8000 O.3     1  FKP1       -0.2192
      9  C7        44.1700  -10.6090   47.9550 C.3     1  FKP1        0.2260
     10  O4        44.7440   -9.5710   47.0350 O.3     1  FKP1       -0.4470
     11  C8        42.7250  -10.1360   48.2090 C.3     1  FKP1        0.1639
     12  O1        42.0200  -10.0880   46.9450 O.3     1  FKP1       -0.3524
     13  C9        42.0650  -11.1080   49.2560 C.3     1  FKP1        0.2051
     14  O6        42.0240  -12.3840   48.6670 O.3     1  FKP1       -0.2155
     15  C10       42.9430  -11.1830   50.7240 C.3     1  FKP1        0.0652
     16  C11       40.5850  -10.5930   49.4030 C.2     1  FKP1        0.1831
     17  O7        39.9890  -10.7370   50.4290 O.2     1  FKP1       -0.2933
     18  C12       39.8320   -9.9140   48.1950 C.3     1  FKP1        0.0985
     19  C13       40.6060   -9.7550   46.8330 C.3     1  FKP1        0.1183
     20  C14       39.9950  -10.6770   45.8110 C.2     1  FKP1        0.0006
     21  C15       40.3860  -11.9320   45.6580 C.2     1  FKP1       -0.0025
     22  C16       40.3600   -8.3530   46.2790 C.3     1  FKP1        0.0346
     23  C17       42.8910   -8.6120   48.6040 C.3     1  FKP1        0.0365
     24  C18       46.4160  -13.2520   50.9510 C.3     1  FKP1        0.0001
     25  C19       46.4110  -11.3490   51.9860 C.3     1  FKP1        0.0001
     26  C20       43.0170   -9.7610   51.4270 C.3     1  FKP1        0.0056
     27  C21       46.0320   -9.5340   46.5850 C.2     1  FKP1        0.3170
     28  O5        46.4940  -10.4340   45.9610 O.2     1  FKP1       -0.2501
     29  C22       46.8410   -8.1980   46.8980 C.3     1  FKP1        0.1096
     30  C23       47.5130   -7.8970   48.3420 C.3     1  FKP1        0.0131
     31  C24       48.6150   -8.9490   48.8220 C.3     1  FKP1        0.0179
     32  C25       49.7490   -8.4050   49.7990 C.3     1  FKP1        0.0722
     33  N1        49.6720   -8.9500   51.2250 N.3     1  FKP1       -0.2703
     34  C26       50.0840   -7.8470   52.1990 C.3     1  FKP1        0.0897
     35  C27       50.0280   -8.3440   53.6880 C.3     1  FKP1        0.0897
     36  N2        50.8680   -9.5730   53.9000 N.3     1  FKP1       -0.2691
     37  C28       50.4520  -10.6590   52.9520 C.3     1  FKP1        0.0897
     38  C29       50.5620  -10.1760   51.4460 C.3     1  FKP1        0.0897
     39  C30       50.7500   -9.9680   55.3180 C.3     1  FKP1        0.0897
@<TRIPOS>BOND
     1    21    20    2
     2    20    19    1
     3    28    27    2
     4    22    19    1
     5    27    29    1
     6    27    10    1
     7    19    12    1
     8    19    18    1
     9    29    30    1
    10    12    11    1
    11    10     9    1
    12     9    11    1
    13     9     7    1
    14    18    16    1
    15    11    23    1
    16    11    13    1
    17    30    31    1
    18    14    13    1
    19    31    32    1
    20     7     8    1
    21     7     6    1
    22    13    16    1
    23    13    15    1
    24    16    17    2
    25    32    33    1
    26     6    15    1
    27     6     5    1
    28    15    26    1
    29    15     1    1
    30    24     5    1
    31    33    38    1
    32    33    34    1
    33     5    25    1
    34     5     4    1
    35     2     1    1
    36    38    37    1
    37     1     3    1
    38    34    35    1
    39     4     3    1
    40    37    36    1
    41    35    36    1
    42    36    39    1
