@<TRIPOS>MOLECULE
2gwc_BSC_A_1.pdb
 14 13 0 0 0
SMALL
GASTEIGER

@<TRIPOS>ATOM
      1  CAB       34.4830   21.8730   43.8880 C.3     2  BSC2        0.0000
      2  CAC       34.9480   21.6420   42.4500 C.3     2  BSC2        0.0010
      3  CAD       35.2110   20.1880   42.0890 C.3     2  BSC2        0.0137
      4  CAE       33.9580   19.3140   42.0430 C.3     2  BSC2        0.0847
      5  SAF       33.1830   19.0750   40.3970 S.3     2  BSC2        0.0088
      6  NAA       34.2560   18.8340   39.2890 N.3     2  BSC2       -0.0533
      7  OAG       32.2780   17.9130   40.5610 O.3     2  BSC2       -0.1543
      8  CAH       32.1270   20.5000   40.0460 C.3     2  BSC2        0.0868
      9  CB        31.2000   20.3260   38.8950 C.3     2  BSC2        0.0443
     10  CA        30.6220   21.6940   38.5890 C.3     2  BSC2        0.1953
     11  C         30.0570   21.5700   37.1920 C.2     2  BSC2        0.3819
     12  O         28.9140   22.0120   37.0280 O.co2   2  BSC2       -0.2441
     13  OXT       30.7800   21.0210   36.3270 O.co2   2  BSC2       -0.2441
     14  N         29.5810   22.0820   39.5710 N.3     2  BSC2       -0.1208
@<TRIPOS>BOND
     1    13    11   ar
     2    12    11   ar
     3    11    10    1
     4    10     9    1
     5    10    14    1
     6     9     8    1
     7     6     5    1
     8     8     5    1
     9     5     7    1
    10     5     4    1
    11     4     3    1
    12     3     2    1
    13     2     1    1
