@<TRIPOS>MOLECULE
2gwd_GLU_A_1.pdb
 10 9 0 0 0
SMALL
GASTEIGER

@<TRIPOS>ATOM
      1  N         37.6810   24.5400   19.0870 N.3   521  GLU521     -0.1208
      2  CA        36.8510   25.5390   18.3890 C.3   521  GLU521      0.1949
      3  C         37.2460   26.9890   18.7870 C.2   521  GLU521      0.3819
      4  O         36.4360   27.8870   18.5210 O.co2 521  GLU521     -0.2441
      5  CB        35.3600   25.2560   18.6460 C.3   521  GLU521      0.0424
      6  CG        35.0420   23.8230   18.1680 C.3   521  GLU521      0.1161
      7  CD        33.5740   23.4370   18.3740 C.2   521  GLU521      0.3649
      8  OE1       32.8190   23.5400   17.3610 O.co2 521  GLU521     -0.2457
      9  OE2       33.2430   23.0360   19.5320 O.co2 521  GLU521     -0.2457
     10  OXT       38.3330   27.1880   19.3490 O.co2 521  GLU521     -0.2441
@<TRIPOS>BOND
     1     8     7   ar
     2     6     7    1
     3     6     5    1
     4     7     9   ar
     5     2     5    1
     6     2     3    1
     7     2     1    1
     8     4     3   ar
     9     3    10   ar
