@<TRIPOS>MOLECULE
2gwh_PCI_A_1.pdb
 12 12 0 0 0
SMALL
GASTEIGER

@<TRIPOS>ATOM
      1  O1        15.8060   25.5820   27.8010 O.3   402  PCI402     -0.2847
      2  C1        16.6080   24.8150   28.5840 C.ar  402  PCI402      0.2182
      3  C2        17.4380   25.3960   29.5200 C.ar  402  PCI402      0.1087
      4 CL1        17.4070   27.1020   29.6830 Cl    402  PCI402     -0.0780
      5  C3        18.2710   24.5880   30.2920 C.ar  402  PCI402      0.0827
      6 CL2        19.2850   25.2870   31.4580 Cl    402  PCI402     -0.0803
      7  C4        18.2690   23.1990   30.1300 C.ar  402  PCI402      0.0806
      8 CL3        19.2800   22.1430   31.0470 Cl    402  PCI402     -0.0804
      9  C5        17.4370   22.6400   29.2110 C.ar  402  PCI402      0.0827
     10 CL4        17.4300   20.9420   28.9750 Cl    402  PCI402     -0.0803
     11  C6        16.6110   23.4310   28.4490 C.ar  402  PCI402      0.1087
     12 CL5        15.5690   22.6590   27.3620 Cl    402  PCI402     -0.0780
@<TRIPOS>BOND
     1    12    11    1
     2     1     2    1
     3    11     2   ar
     4    11     9   ar
     5     2     3   ar
     6    10     9    1
     7     9     7   ar
     8     3     4    1
     9     3     5   ar
    10     7     5   ar
    11     7     8    1
    12     5     6    1
