@<TRIPOS>MOLECULE
2gwh_A3P_A_1.pdb
 27 29 0 0 0
SMALL
GASTEIGER

@<TRIPOS>ATOM
      1  P1         4.4910   26.1030   31.2030 P.3   401  A3P401      0.5327
      2  O1P        5.6060   26.0040   32.2140 O.3   401  A3P401     -0.1145
      3  O2P        3.6170   24.8800   30.9960 O.2   401  A3P401     -0.2224
      4  O3P        3.6800   27.3800   31.2950 O.3   401  A3P401     -0.1145
      5  P2        10.5910   26.0330   26.5440 P.3   401  A3P401      0.5327
      6  O4P       11.4360   25.6650   27.7270 O.3   401  A3P401     -0.1145
      7  O5P       10.2960   24.9450   25.5890 O.2   401  A3P401     -0.2224
      8  O6P       10.9330   27.3770   25.9260 O.3   401  A3P401     -0.1145
      9  O5'        9.1270   26.3970   27.1140 O.3   401  A3P401     -0.2675
     10  C5'        8.4080   25.4750   27.9880 C.3   401  A3P401      0.1859
     11  C4'        6.9900   26.0340   28.1540 C.3   401  A3P401      0.1796
     12  O4'        6.1970   25.8740   26.9590 O.3   401  A3P401     -0.3136
     13  C3'        6.2470   25.3120   29.2570 C.3   401  A3P401      0.1928
     14  O3'        5.2420   26.2310   29.7690 O.3   401  A3P401     -0.2673
     15  C2'        5.6440   24.1560   28.4860 C.3   401  A3P401      0.2543
     16  O2'        4.5640   23.5010   29.1450 O.3   401  A3P401     -0.2131
     17  C1'        5.1740   24.8730   27.2320 C.3   401  A3P401      0.3185
     18  N9         4.8630   23.9570   26.1160 N.pl3 401  A3P401     -0.1439
     19  C8         5.5880   22.8980   25.6670 C.3   401  A3P401      0.3377
     20  N7         4.9550   22.3230   24.6080 N.2   401  A3P401     -0.2095
     21  C5         3.8310   23.0430   24.3700 C.2   401  A3P401      0.2526
     22  C6         2.6960   22.9650   23.4200 C.2   401  A3P401      0.4393
     23  N6         2.6740   22.0050   22.4690 N.pl3 401  A3P401      0.2180
     24  N1         1.7090   23.9060   23.5120 N.2   401  A3P401      0.0021
     25  C2         1.7470   24.8740   24.4640 C.3   401  A3P401      0.5254
     26  N3         2.7360   24.9690   25.3720 N.2   401  A3P401     -0.0055
     27  C4         3.7860   24.0980   25.3650 C.2   401  A3P401      0.3518
@<TRIPOS>BOND
     1    23    22    1
     2    22    24    2
     3    22    21    1
     4    24    25    1
     5    21    20    2
     6    21    27    1
     7    25    26    1
     8    20    19    1
     9    27    26    2
    10    27    18    1
    11     7     5    2
    12    19    18    1
    13     8     5    1
    14    18    17    1
    15     5     9    1
    16     5     6    1
    17    12    17    1
    18    12    11    1
    19     9    10    1
    20    17    15    1
    21    10    11    1
    22    11    13    1
    23    15    16    1
    24    15    13    1
    25    13    14    1
    26    14     1    1
    27     3     1    2
    28     1     4    1
    29     1     2    1
