@<TRIPOS>MOLECULE
2gwj_ATP_A_1.pdb
 31 33 0 0 0
SMALL
GASTEIGER

@<TRIPOS>ATOM
      1  PG        45.5780    5.9710   39.2580 P.3   1380  ATP1380     0.5373
      2  O1G       46.9950    5.7820   39.6750 O.3   1380  ATP1380    -0.1143
      3  O2G       45.2410    5.1660   37.9990 O.2   1380  ATP1380    -0.2221
      4  O3G       44.6170    5.8160   40.3840 O.3   1380  ATP1380    -0.1143
      5  PB        45.0470    8.8560   39.4400 P.3   1380  ATP1380     0.2277
      6  O1B       45.8380    9.9280   38.8070 O.2   1380  ATP1380    -0.5168
      7  O2B       45.0430    8.6870   40.9160 O.3   1380  ATP1380    -0.4368
      8  O3B       45.4650    7.5140   38.7020 O.3   1380  ATP1380    -0.2258
      9  PA        42.3550    9.8990   39.3750 P.3   1380  ATP1380     0.2189
     10  O1A       41.3630    9.1000   40.2380 O.3   1380  ATP1380    -0.4371
     11  O2A       42.8570   11.2020   39.8890 O.2   1380  ATP1380    -0.5170
     12  O3A       43.5670    9.0190   38.8430 O.3   1380  ATP1380    -0.2700
     13  O5'       41.4820   10.0990   38.0360 O.3   1380  ATP1380    -0.3112
     14  C5'       42.0110   10.8330   36.9150 C.3   1380  ATP1380     0.1813
     15  C4'       41.4050   10.2680   35.6480 C.3   1380  ATP1380     0.1821
     16  O4'       40.0230   10.3940   35.8120 O.3   1380  ATP1380    -0.3135
     17  C3'       41.7430   11.0240   34.3520 C.3   1380  ATP1380     0.2184
     18  O3'       42.0010   10.0660   33.3130 O.3   1380  ATP1380    -0.2174
     19  C2'       40.4930   11.8400   34.0570 C.3   1380  ATP1380     0.2570
     20  O2'       40.3210   12.1710   32.6680 O.3   1380  ATP1380    -0.2130
     21  C1'       39.4270   10.9380   34.6380 C.3   1380  ATP1380     0.3186
     22  N9        38.2380   11.7360   34.9470 N.pl3 1380  ATP1380    -0.1439
     23  C8        38.2390   12.8070   35.7920 C.3   1380  ATP1380     0.3377
     24  N7        37.0230   13.3330   35.8570 N.2   1380  ATP1380    -0.2095
     25  C5        36.2340   12.5950   35.0070 C.2   1380  ATP1380     0.2526
     26  C6        34.8580   12.6160   34.5790 C.2   1380  ATP1380     0.4393
     27  N6        34.0480   13.5750   35.0900 N.pl3 1380  ATP1380     0.2180
     28  N1        34.3910   11.6730   33.6880 N.2   1380  ATP1380     0.0021
     29  C2        35.2160   10.7380   33.1810 C.3   1380  ATP1380     0.5254
     30  N3        36.5160   10.6240   33.5110 N.2   1380  ATP1380    -0.0055
     31  C4        37.0480   11.5330   34.4110 C.2   1380  ATP1380     0.3518
@<TRIPOS>BOND
     1    20    19    1
     2    29    30    1
     3    29    28    1
     4    18    17    1
     5    30    31    2
     6    28    26    2
     7    19    17    1
     8    19    21    1
     9    17    15    1
    10    31    22    1
    11    31    25    1
    12    26    25    1
    13    26    27    1
    14    21    22    1
    15    21    16    1
    16    22    23    1
    17    25    24    2
    18    15    16    1
    19    15    14    1
    20    23    24    1
    21    14    13    1
    22     3     1    2
    23    13     9    1
    24     8     1    1
    25     8     5    1
    26     6     5    2
    27    12     9    1
    28    12     5    1
    29     1     2    1
    30     1     4    1
    31     9    11    2
    32     9    10    1
    33     5     7    1
