@<TRIPOS>MOLECULE
2gwk_ATP_A_1.pdb
 31 33 0 0 0
SMALL
GASTEIGER

@<TRIPOS>ATOM
      1  PG        44.8900   19.5150   52.8440 P.3   1402  ATP1402     0.5373
      2  O1G       44.1330   20.7720   53.2240 O.3   1402  ATP1402    -0.1143
      3  O2G       45.6770   19.6270   51.6030 O.2   1402  ATP1402    -0.2221
      4  O3G       45.6380   18.8120   53.9840 O.3   1402  ATP1402    -0.1143
      5  PB        42.9590   17.2980   53.2580 P.3   1402  ATP1402     0.2277
      6  O1B       41.4990   17.2230   52.7800 O.2   1402  ATP1402    -0.5168
      7  O2B       43.1500   17.4700   54.6960 O.3   1402  ATP1402    -0.4368
      8  O3B       43.7210   18.4260   52.3780 O.3   1402  ATP1402    -0.2258
      9  PA        43.8460   14.5400   53.4310 P.3   1402  ATP1402     0.2189
     10  O1A       45.0840   14.3860   54.2920 O.3   1402  ATP1402    -0.4371
     11  O2A       42.5190   14.1890   54.0040 O.2   1402  ATP1402    -0.5170
     12  O3A       43.6650   15.9640   52.7480 O.3   1402  ATP1402    -0.2700
     13  O5'       44.1560   13.5780   52.2020 O.3   1402  ATP1402    -0.3112
     14  C5'       43.2710   13.5420   51.0300 C.3   1402  ATP1402     0.1813
     15  C4'       43.9920   13.1650   49.7280 C.3   1402  ATP1402     0.1821
     16  O4'       44.7080   11.9750   50.0010 O.3   1402  ATP1402    -0.3135
     17  C3'       43.1230   12.9110   48.4830 C.3   1402  ATP1402     0.2184
     18  O3'       43.6230   13.6300   47.3530 O.3   1402  ATP1402    -0.2174
     19  C2'       43.2300   11.4170   48.2820 C.3   1402  ATP1402     0.2570
     20  O2'       43.1380   11.0280   46.9300 O.3   1402  ATP1402    -0.2130
     21  C1'       44.6300   11.1430   48.8610 C.3   1402  ATP1402     0.3186
     22  N9        44.7570    9.7420   49.2640 N.pl3 1402  ATP1402    -0.1439
     23  C8        44.0460    9.0750   50.1830 C.3   1402  ATP1402     0.3377
     24  N7        44.4470    7.7790   50.2830 N.2   1402  ATP1402    -0.2095
     25  C5        45.4380    7.6490   49.3820 C.2   1402  ATP1402     0.2526
     26  C6        46.2910    6.5710   48.9330 C.2   1402  ATP1402     0.4393
     27  N6        46.1290    5.4080   49.5250 N.pl3 1402  ATP1402     0.2180
     28  N1        47.2130    6.7950   47.9860 N.2   1402  ATP1402     0.0021
     29  C2        47.3340    7.9990   47.4520 C.3   1402  ATP1402     0.5254
     30  N3        46.5850    9.0680   47.7720 N.2   1402  ATP1402    -0.0055
     31  C4        45.6540    8.9220   48.7320 C.2   1402  ATP1402     0.3518
@<TRIPOS>BOND
     1    20    19    1
     2    18    17    1
     3    29    30    1
     4    29    28    1
     5    30    31    2
     6    28    26    2
     7    19    17    1
     8    19    21    1
     9    17    15    1
    10    31    22    1
    11    31    25    1
    12    21    22    1
    13    21    16    1
    14    26    25    1
    15    26    27    1
    16    22    23    1
    17    25    24    2
    18    15    16    1
    19    15    14    1
    20    23    24    1
    21    14    13    1
    22     3     1    2
    23    13     9    1
    24     8     1    1
    25     8     5    1
    26    12     5    1
    27    12     9    1
    28     6     5    2
    29     1     2    1
    30     1     4    1
    31     5     7    1
    32     9    11    2
    33     9    10    1
