@<TRIPOS>MOLECULE
2gwl_NAD_A_1.pdb
 44 48 0 0 0
SMALL
GASTEIGER

@<TRIPOS>ATOM
      1  PA        20.6740   25.9100   22.9580 P.3   592  NAD592      0.2189
      2  O1A       21.9220   25.1340   22.8260 O.2   592  NAD592     -0.5170
      3  O2A       20.5830   26.6490   24.2460 O.3   592  NAD592     -0.4371
      4  O5B       20.3890   26.7310   21.5900 O.3   592  NAD592     -0.3112
      5  C5B       20.3210   28.1040   21.6850 C.3   592  NAD592      0.1813
      6  C4B       19.4290   28.7580   20.6530 C.3   592  NAD592      0.1821
      7  O4B       19.7000   30.0320   21.1650 O.3   592  NAD592     -0.3135
      8  C3B       19.7940   28.7770   19.1470 C.3   592  NAD592      0.2184
      9  O3B       18.8410   28.1720   18.2620 O.3   592  NAD592     -0.2174
     10  C2B       19.9530   30.2690   18.8540 C.3   592  NAD592      0.2570
     11  O2B       18.7770   30.8110   18.2660 O.3   592  NAD592     -0.2130
     12  C1B       20.1400   30.9510   20.2150 C.3   592  NAD592      0.3186
     13  N9A       21.5180   31.3700   20.4980 N.pl3 592  NAD592     -0.1439
     14  C8A       21.8190   32.5230   21.1790 C.3   592  NAD592      0.3377
     15  N7A       23.1580   32.6690   21.2300 N.2   592  NAD592     -0.2095
     16  C5A       23.6850   31.5920   20.5980 C.2   592  NAD592      0.2526
     17  C6A       24.9900   31.2730   20.3950 C.2   592  NAD592      0.4393
     18  N6A       25.8900   32.2070   20.7500 N.pl3 592  NAD592      0.2180
     19  N1A       25.2800   30.1140   19.7240 N.2   592  NAD592      0.0021
     20  C2A       24.2940   29.2800   19.2410 C.3   592  NAD592      0.5254
     21  N3A       22.9790   29.6060   19.4480 N.2   592  NAD592     -0.0055
     22  C4A       22.6820   30.7620   20.1120 C.2   592  NAD592      0.3518
     23  O3        19.4360   24.8750   22.8630 O.3   592  NAD592     -0.2703
     24  PN        19.4000   23.5370   21.9700 P.3   592  NAD592      0.2189
     25  O1N       20.7360   22.9840   21.5710 O.3   592  NAD592     -0.4371
     26  O2N       18.4070   23.8620   20.9260 O.2   592  NAD592     -0.5170
     27  O5D       18.8000   22.4070   22.9450 O.3   592  NAD592     -0.3112
     28  C5D       17.4220   22.3890   23.2530 C.3   592  NAD592      0.1813
     29  C4D       16.9890   20.9260   23.3630 C.3   592  NAD592      0.1799
     30  O4D       17.2530   20.2430   22.1490 O.3   592  NAD592     -0.3327
     31  C3D       17.7490   20.1980   24.4670 C.3   592  NAD592      0.2158
     32  O3D       16.8080   19.5390   25.2870 O.3   592  NAD592     -0.2175
     33  C2D       18.6070   19.2050   23.7240 C.3   592  NAD592      0.2309
     34  O2D       18.5810   18.0370   24.4920 O.3   592  NAD592     -0.2158
     35  C1D       17.8990   19.0220   22.3730 C.3   592  NAD592      0.2263
     36  N1N       18.7950   18.7750   21.2180 N.pl3 592  NAD592     -0.2787
     37  C2N       19.2010   19.8500   20.4640 C.3   592  NAD592      0.1244
     38  C3N       20.0600   19.6600   19.3860 C.2   592  NAD592      0.0544
     39  C7N       20.1410   20.7300   18.2940 C.2   592  NAD592      0.2818
     40  O7N       20.3450   20.2810   16.9940 O.2   592  NAD592     -0.2670
     41  N7N       19.9930   22.0550   18.5120 N.am  592  NAD592     -0.0839
     42  C4N       20.4860   18.3480   19.1090 C.2   592  NAD592      0.0033
     43  C5N       20.0750   17.2670   19.8870 C.2   592  NAD592      0.0157
     44  C6N       19.2100   17.4840   20.9400 C.2   592  NAD592      0.0633
@<TRIPOS>BOND
     1    40    39    2
     2     9     8    1
     3    11    10    1
     4    39    41   am
     5    39    38    1
     6    10     8    1
     7    10    12    1
     8    42    38    2
     9    42    43    1
    10     8     6    1
    11    20    21    1
    12    20    19    1
    13    38    37    1
    14    21    22    2
    15    19    17    2
    16    43    44    2
    17    22    13    1
    18    22    16    1
    19    12    13    1
    20    12     7    1
    21    17    16    1
    22    17    18    1
    23    37    36    1
    24    13    14    1
    25    16    15    2
    26     6     7    1
    27     6     5    1
    28    26    24    2
    29    44    36    1
    30    14    15    1
    31    36    35    1
    32    25    24    1
    33     4     5    1
    34     4     1    1
    35    24    23    1
    36    24    27    1
    37    30    35    1
    38    30    29    1
    39    35    33    1
    40     2     1    2
    41    23     1    1
    42    27    28    1
    43     1     3    1
    44    28    29    1
    45    29    31    1
    46    33    31    1
    47    33    34    1
    48    31    32    1
