@<TRIPOS>MOLECULE
2gx5_PCG_C_1.pdb
 23 26 0 0 0
SMALL
GASTEIGER

@<TRIPOS>ATOM
      1  PA       -27.7700   -5.0970   46.4390 P.3   514  PCG514      0.2141
      2  O1A      -29.1530   -4.4950   46.4870 O.2   514  PCG514     -0.5172
      3  O2A      -27.3560   -6.1240   47.4660 O.3   514  PCG514     -0.4373
      4  O5'      -26.6980   -3.8890   46.4910 O.3   514  PCG514     -0.3114
      5  C5'      -25.3350   -4.0530   46.0910 C.3   514  PCG514      0.1812
      6  C4'      -25.2280   -5.2900   45.2160 C.3   514  PCG514      0.1771
      7  O4'      -24.0840   -5.3240   44.3720 O.3   514  PCG514     -0.3327
      8  C3'      -26.3970   -5.3740   44.2570 C.3   514  PCG514      0.1857
      9  O3'      -27.5580   -5.7470   44.9790 O.3   514  PCG514     -0.3112
     10  C2'      -25.9090   -6.3770   43.2340 C.3   514  PCG514      0.2282
     11  O2'      -26.4730   -6.1530   41.9350 O.3   514  PCG514     -0.2159
     12  C1'      -24.3910   -6.1910   43.2710 C.3   514  PCG514      0.2292
     13  N9       -23.9280   -5.4820   42.0830 N.pl3 514  PCG514     -0.2354
     14  C8       -23.0900   -6.1800   41.2960 C.3   514  PCG514      0.2246
     15  N7       -22.7160   -5.4400   40.2200 N.2   514  PCG514     -0.2322
     16  C5       -23.3210   -4.2430   40.3110 C.2   514  PCG514      0.2182
     17  C6       -23.3600   -2.9910   39.5100 C.1   514  PCG514      0.2372
     18  O6       -22.7170   -2.8570   38.4440 O.2   514  PCG514     -0.2069
     19  N1       -24.1170   -1.9850   39.9670 N.2   514  PCG514     -0.2485
     20  C2       -24.8350   -2.0630   41.1060 C.1   514  PCG514      0.2531
     21  N2       -25.5710   -0.9840   41.4770 N.pl3 514  PCG514     -0.0226
     22  N3       -24.8460   -3.1780   41.8890 N.2   514  PCG514     -0.3074
     23  C4       -24.1220   -4.2760   41.5480 C.2   514  PCG514      0.2300
@<TRIPOS>BOND
     1    18    17    2
     2    17    19    2
     3    17    16    1
     4    19    20    2
     5    15    16    2
     6    15    14    1
     7    16    23    1
     8    20    21    1
     9    20    22    2
    10    14    13    1
    11    23    22    2
    12    23    13    1
    13    11    10    1
    14    13    12    1
    15    10    12    1
    16    10     8    1
    17    12     7    1
    18     8     9    1
    19     8     6    1
    20     7     6    1
    21     9     1    1
    22     6     5    1
    23     5     4    1
    24     1     2    2
    25     1     4    1
    26     1     3    1
