@<TRIPOS>MOLECULE
2gx6_RIP_A_1.pdb
 10 10 0 0 0
SMALL
GASTEIGER

@<TRIPOS>ATOM
      1  C1        33.9920   43.1630   35.7300 C.3   301  RIP301      0.3024
      2  C2        34.3540   44.3310   36.6380 C.3   301  RIP301      0.2434
      3  C3        35.5900   45.0580   36.1090 C.3   301  RIP301      0.2199
      4  C4        36.7210   44.0430   35.9780 C.3   301  RIP301      0.2143
      5  C5        36.2660   42.8950   35.0940 C.3   301  RIP301      0.1804
      6  O1        32.9380   42.4180   36.2830 O.3   301  RIP301     -0.1869
      7  O2        33.2930   45.2200   36.8500 O.3   301  RIP301     -0.2148
      8  O3        35.3080   45.7140   34.8790 O.3   301  RIP301     -0.2174
      9  O4        37.8590   44.6070   35.3830 O.3   301  RIP301     -0.2176
     10  O5        35.1080   42.3090   35.6560 O.3   301  RIP301     -0.3237
@<TRIPOS>BOND
     1     8     3    1
     2     5    10    1
     3     5     4    1
     4     9     4    1
     5    10     1    1
     6     1     6    1
     7     1     2    1
     8     4     3    1
     9     3     2    1
    10     2     7    1
