@<TRIPOS>MOLECULE
2gxa_ADP_A_1.pdb
 27 29 0 0 0
SMALL
GASTEIGER

@<TRIPOS>ATOM
      1  PB        31.3550   14.7600  -20.6400 P.3     1  ADP1        0.5373
      2  O1B       31.1030   15.5650  -19.4230 O.3     1  ADP1       -0.1143
      3  O2B       31.7280   15.6920  -21.8830 O.2     1  ADP1       -0.2221
      4  O3B       29.9940   13.9610  -20.9380 O.3     1  ADP1       -0.1143
      5  PA        32.4390   12.6970  -19.2900 P.3     1  ADP1        0.2231
      6  O1A       32.8000   13.3940  -18.0430 O.3     1  ADP1       -0.4370
      7  O2A       30.9540   12.1400  -19.2070 O.2     1  ADP1       -0.5169
      8  O3A       32.6400   13.7350  -20.5020 O.3     1  ADP1       -0.2261
      9  O5'       33.5340   11.5590  -19.4920 O.3     1  ADP1       -0.3111
     10  C5'       33.0640   10.5400  -18.6660 C.3     1  ADP1        0.1813
     11  C4'       33.9130    9.3620  -18.9130 C.3     1  ADP1        0.1821
     12  O4'       35.2270    9.5730  -18.3740 O.3     1  ADP1       -0.3135
     13  C3'       33.3010    8.1750  -18.2310 C.3     1  ADP1        0.2184
     14  O3'       32.9500    7.2210  -19.2290 O.3     1  ADP1       -0.2174
     15  C2'       34.2940    7.6440  -17.2430 C.3     1  ADP1        0.2570
     16  O2'       34.6670    6.2790  -17.5270 O.3     1  ADP1       -0.2130
     17  C1'       35.4790    8.5880  -17.3130 C.3     1  ADP1        0.3186
     18  N9        35.5660    9.1640  -15.9730 N.pl3   1  ADP1       -0.1439
     19  C8        35.1400   10.3940  -15.5540 C.3     1  ADP1        0.3377
     20  N7        35.3840   10.5440  -14.2870 N.2     1  ADP1       -0.2095
     21  C5        35.9800    9.4230  -13.8190 C.2     1  ADP1        0.2526
     22  C6        36.4690    8.9940  -12.5600 C.2     1  ADP1        0.4393
     23  N6        36.3840    9.8250  -11.4590 N.pl3   1  ADP1        0.2180
     24  N1        37.0180    7.7650  -12.4560 N.2     1  ADP1        0.0021
     25  C2        37.1030    6.9530  -13.5070 C.3     1  ADP1        0.5254
     26  N3        36.6550    7.3210  -14.7020 N.2     1  ADP1       -0.0055
     27  C4        36.0960    8.5270  -14.8950 C.2     1  ADP1        0.3518
@<TRIPOS>BOND
     1     3     1    2
     2     4     1    1
     3     1     8    1
     4     1     2    1
     5     8     5    1
     6     9     5    1
     7     9    10    1
     8     5     7    2
     9     5     6    1
    10    14    13    1
    11    11    10    1
    12    11    12    1
    13    11    13    1
    14    12    17    1
    15    13    15    1
    16    16    15    1
    17    17    15    1
    18    17    18    1
    19    18    19    1
    20    18    27    1
    21    19    20    1
    22    27    26    2
    23    27    21    1
    24    26    25    1
    25    20    21    2
    26    21    22    1
    27    25    24    1
    28    22    24    2
    29    22    23    1
