@<TRIPOS>MOLECULE
2gxq_AMP_A_1.pdb
 23 25 0 0 0
SMALL
GASTEIGER

@<TRIPOS>ATOM
      1  P          1.2110   -0.0560    5.9440 P.3   401  AMP401      0.5327
      2  O1P        2.2440    0.6410    6.7160 O.3   401  AMP401     -0.1145
      3  O2P        1.7860   -0.8930    4.8180 O.2   401  AMP401     -0.2224
      4  O3P        0.2070   -0.8200    6.7410 O.3   401  AMP401     -0.1145
      5  O5'        0.4180    1.1310    5.2080 O.3   401  AMP401     -0.2675
      6  C5'       -0.6950    0.8770    4.3930 C.3   401  AMP401      0.1860
      7  C4'       -1.1600    2.1150    3.7160 C.3   401  AMP401      0.1823
      8  O4'       -1.6680    3.1140    4.6000 O.3   401  AMP401     -0.3135
      9  C3'       -0.1030    2.8180    2.9190 C.3   401  AMP401      0.2184
     10  O3'       -0.7170    3.0940    1.6410 O.3   401  AMP401     -0.2174
     11  C2'        0.1180    4.1130    3.6590 C.3   401  AMP401      0.2570
     12  O2'        0.4450    5.2140    2.8500 O.3   401  AMP401     -0.2130
     13  C1'       -1.2280    4.4090    4.2040 C.3   401  AMP401      0.3186
     14  N9        -1.2770    5.1590    5.4520 N.pl3 401  AMP401     -0.1439
     15  C8        -0.5320    4.9050    6.5330 C.3   401  AMP401      0.3377
     16  N7        -0.8730    5.6810    7.5340 N.2   401  AMP401     -0.2095
     17  C5        -1.8540    6.4590    7.0880 C.2   401  AMP401      0.2526
     18  C6        -2.6640    7.4590    7.7050 C.2   401  AMP401      0.4393
     19  N6        -2.4650    7.7450    8.9460 N.pl3 401  AMP401      0.2180
     20  N1        -3.5800    8.0800    6.9530 N.2   401  AMP401      0.0021
     21  C2        -3.7620    7.7120    5.6830 C.3   401  AMP401      0.5254
     22  N3        -3.0840    6.7560    5.0810 N.2   401  AMP401     -0.0055
     23  C4        -2.1340    6.1230    5.7650 C.2   401  AMP401      0.3518
@<TRIPOS>BOND
     1    10     9    1
     2    12    11    1
     3     9    11    1
     4     9     7    1
     5    11    13    1
     6     7     6    1
     7     7     8    1
     8    13     8    1
     9    13    14    1
    10     6     5    1
    11     3     1    2
    12    22    21    1
    13    22    23    2
    14     5     1    1
    15    14    23    1
    16    14    15    1
    17    21    20    1
    18    23    17    1
    19     1     2    1
    20     1     4    1
    21    15    16    1
    22    20    18    2
    23    17    16    2
    24    17    18    1
    25    18    19    1
