@<TRIPOS>MOLECULE
2gxs_AMP_A_1.pdb
 23 25 0 0 0
SMALL
GASTEIGER

@<TRIPOS>ATOM
      1  P         40.3000   -0.1320   -3.8290 P.3   501  AMP501      0.5327
      2  O1P       39.4330   -0.8070   -4.9210 O.2   501  AMP501     -0.2224
      3  O2P       41.7310   -0.4790   -4.0300 O.3   501  AMP501     -0.1145
      4  O3P       39.7640   -0.2230   -2.4040 O.3   501  AMP501     -0.1145
      5  O5'       40.2610    1.4790   -4.0540 O.3   501  AMP501     -0.2675
      6  C5'       38.9890    2.1110   -4.1590 C.3   501  AMP501      0.1860
      7  C4'       39.1630    3.5160   -4.7610 C.3   501  AMP501      0.1823
      8  O4'       39.9610    4.3090   -3.8720 O.3   501  AMP501     -0.3135
      9  C3'       39.8850    3.5050   -6.1080 C.3   501  AMP501      0.2184
     10  O3'       39.3090    4.4350   -7.0380 O.3   501  AMP501     -0.2174
     11  C2'       41.2600    3.9470   -5.7100 C.3   501  AMP501      0.2570
     12  O2'       42.0640    4.4590   -6.7620 O.3   501  AMP501     -0.2130
     13  C1'       40.9700    4.9590   -4.6550 C.3   501  AMP501      0.3186
     14  N9        42.0650    5.2320   -3.7350 N.pl3 501  AMP501     -0.1439
     15  C8        42.9750    4.3260   -3.2930 C.3   501  AMP501      0.3377
     16  N7        43.8100    4.8910   -2.4230 N.2   501  AMP501     -0.2095
     17  C5        43.4650    6.2120   -2.3100 C.2   501  AMP501      0.2526
     18  C6        43.9540    7.3390   -1.5490 C.2   501  AMP501      0.4393
     19  N6        45.0210    7.2120   -0.7550 N.pl3 501  AMP501      0.2180
     20  N1        43.3220    8.5480   -1.6980 N.2   501  AMP501      0.0021
     21  C2        42.2430    8.6770   -2.4960 C.3   501  AMP501      0.5254
     22  N3        41.7420    7.6720   -3.2340 N.2   501  AMP501     -0.0055
     23  C4        42.3010    6.4150   -3.1670 C.2   501  AMP501      0.3518
@<TRIPOS>BOND
     1    10     9    1
     2    12    11    1
     3     9    11    1
     4     9     7    1
     5    11    13    1
     6     2     1    2
     7     7     6    1
     8     7     8    1
     9    13     8    1
    10    13    14    1
    11     6     5    1
    12     5     1    1
    13     3     1    1
    14     1     4    1
    15    14    15    1
    16    14    23    1
    17    15    16    1
    18    22    23    2
    19    22    21    1
    20    23    17    1
    21    21    20    1
    22    16    17    2
    23    17    18    1
    24    20    18    2
    25    18    19    1
