@<TRIPOS>MOLECULE
2gyd_DFE_A_1.pdb
 10 9 0 0 0
SMALL
GASTEIGER

@<TRIPOS>ATOM
      1  CAA       32.3280    1.7820   36.0670 C.3   172  DFE172      0.1068
      2  CAI       33.2430    0.7730   36.7990 C.3   172  DFE172      0.3662
      3  FAB       32.4640   -0.0990   37.4360 F     172  DFE172     -0.1746
      4  FAC       34.0060    1.3890   37.7000 F     172  DFE172     -0.1746
      5  OAH       34.0740    0.0490   35.8470 O.3   172  DFE172     -0.2968
      6  CAG       35.3840    0.6340   35.5780 C.3   172  DFE172      0.2502
      7  CAJ       36.2070   -0.3070   34.7050 C.3   172  DFE172      0.4250
      8  FAE       35.3750   -0.9970   33.9160 F     172  DFE172     -0.1674
      9  FAF       37.0730    0.3980   33.9770 F     172  DFE172     -0.1674
     10  FAD       36.9050   -1.1460   35.4680 F     172  DFE172     -0.1674
@<TRIPOS>BOND
     1     8     7    1
     2     9     7    1
     3     7    10    1
     4     7     6    1
     5     6     5    1
     6     5     2    1
     7     1     2    1
     8     2     3    1
     9     2     4    1
