@<TRIPOS>MOLECULE
2gyi_HYA_A_1.pdb
 10 9 0 0 0
SMALL
GASTEIGER

@<TRIPOS>ATOM
      1  C1        15.8850    5.7280  -12.2640 C.2   960  HYA960      0.1201
      2  C2        17.0010    6.3900  -11.4310 C.3   960  HYA960      0.2292
      3  C3        16.7440    6.1030   -9.9320 C.3   960  HYA960      0.2210
      4  C4        17.9580    6.0650   -8.9580 C.3   960  HYA960      0.2178
      5  N         15.8850    4.5690  -12.8860 N.am  960  HYA960     -0.2003
      6  O1        14.7680    6.4130  -12.1500 O.2   960  HYA960     -0.5373
      7  O2        18.2780    6.4390  -11.9720 O.3   960  HYA960     -0.2134
      8  O3        16.0870    7.2920   -9.6000 O.3   960  HYA960     -0.2171
      9  O4        18.6860    4.9010   -9.0880 O.3   960  HYA960     -0.2175
     10  O         14.7940    4.2980  -13.6690 O.3   960  HYA960     -0.4026
@<TRIPOS>BOND
     1    10     5    1
     2     5     1   am
     3     1     6    2
     4     1     2    1
     5     7     2    1
     6     2     3    1
     7     3     8    1
     8     3     4    1
     9     9     4    1
