@<TRIPOS>MOLECULE
2gys_FUC_B_1.pdb
 10 10 0 0 0
SMALL
GASTEIGER

@<TRIPOS>ATOM
      1  C1        17.3610   -4.2760   37.5870 C.3   1002  FUC1002     0.1776
      2  C2        16.3870   -5.4610   37.6000 C.3   1002  FUC1002     0.2141
      3  C3        15.4070   -5.0180   38.6980 C.3   1002  FUC1002     0.2172
      4  C4        14.4660   -3.9640   38.0410 C.3   1002  FUC1002     0.2116
      5  C5        15.3070   -2.7610   37.4750 C.3   1002  FUC1002     0.1483
      6  C6        14.7420   -2.0570   36.2180 C.3   1002  FUC1002     0.0349
      7  O2        17.0410   -6.7150   37.7560 O.3   1002  FUC1002    -0.2176
      8  O3        14.8030   -6.0460   39.4720 O.3   1002  FUC1002    -0.2175
      9  O4        13.5770   -4.5500   37.0840 O.3   1002  FUC1002    -0.2177
     10  O5        16.7170   -3.0130   37.2680 O.3   1002  FUC1002    -0.3508
@<TRIPOS>BOND
     1     6     5    1
     2     9     4    1
     3    10     5    1
     4    10     1    1
     5     5     4    1
     6     1     2    1
     7     2     7    1
     8     2     3    1
     9     4     3    1
    10     3     8    1
