@<TRIPOS>MOLECULE
2gyu_HI6_A_1.pdb
 21 22 0 0 0
SMALL
GASTEIGER

@<TRIPOS>ATOM
      1  O3        37.9220   18.4250    9.7200 O.2   702  HI6702     -0.2667
      2  C14       37.9610   19.5070   10.2600 C.2   702  HI6702      0.2839
      3  N4        38.9500   19.8320   11.0940 N.am  702  HI6702     -0.0837
      4  C11       36.8460   20.4530    9.9350 C.2   702  HI6702      0.0553
      5  C10       36.5620   21.6200   10.6560 C.2   702  HI6702     -0.0000
      6  C9        35.4820   22.4120   10.2520 C.3   702  HI6702      0.1197
      7  N3        34.7340   22.0320    9.1930 N.pl3 702  HI6702     -0.2775
      8  C13       35.0060   20.9210    8.4930 C.2   702  HI6702      0.0635
      9  C12       36.0670   20.1100    8.8470 C.2   702  HI6702      0.0202
     10  C8        33.6170   22.8210    8.6760 C.3   702  HI6702      0.2421
     11  O2        32.7690   23.3750    9.6510 O.3   702  HI6702     -0.3136
     12  C7        31.4450   23.3400    9.1270 C.3   702  HI6702      0.2423
     13  N2        30.7040   22.4120    9.9510 N.pl3 702  HI6702     -0.2741
     14  C2        30.6860   21.1030    9.6230 C.3   702  HI6702      0.1423
     15  C1        31.4110   20.5770    8.4220 C.2   702  HI6702      0.1426
     16  N1        31.1710   20.8630    7.2060 N.2   702  HI6702     -0.0304
     17  O1        31.9460   20.2710    6.2230 O.2   702  HI6702     -0.1434
     18  C3        30.0010   20.1990   10.4490 C.2   702  HI6702     -0.0005
     19  C4        29.3300   20.6730   11.5790 C.2   702  HI6702     -0.0012
     20  C5        29.3680   22.0370   11.8800 C.2   702  HI6702      0.0156
     21  C6        30.0750   22.8940   11.0380 C.2   702  HI6702      0.0636
@<TRIPOS>BOND
     1    17    16    1
     2    16    15    2
     3    15    14    1
     4     8     9    2
     5     8     7    1
     6    10     7    1
     7    10    11    1
     8     9     4    1
     9    12    11    1
    10    12    13    1
    11     7     6    1
    12    14    13    1
    13    14    18    1
    14     1     2    2
    15     4     2    1
    16     4     5    2
    17    13    21    1
    18     6     5    1
    19     2     3   am
    20    18    19    2
    21    21    20    2
    22    19    20    1
