@<TRIPOS>MOLECULE
2gyv_HBP_A_1.pdb
 25 26 0 0 0
SMALL
GASTEIGER

@<TRIPOS>ATOM
      1  C1        35.1380   23.2350    9.0170 C.3   1409  HBP1409     0.0914
      2  C5        33.0390   22.0270    8.4510 C.3   1409  HBP1409     0.0018
      3  O10       36.7100   26.4630    7.6270 O.2   1409  HBP1409    -0.1434
      4  N9        36.7320   25.2070    8.2360 N.2   1409  HBP1409    -0.0304
      5  C8A       37.3530   25.0310    9.3200 C.2   1409  HBP1409     0.1425
      6  C7        37.3640   23.6820    9.9390 C.3   1409  HBP1409     0.1406
      7  C6        38.4860   23.2940   10.6720 C.2   1409  HBP1409    -0.0005
      8  C4        37.4820   21.1740   11.1050 C.2   1409  HBP1409     0.0155
      9  C3        36.3770   21.6060   10.3640 C.2   1409  HBP1409     0.0618
     10  N2        36.3230   22.8340    9.7940 N.pl3 1409  HBP1409    -0.2995
     11  C2        33.8370   22.6760    9.5920 C.3   1409  HBP1409     0.0214
     12  C5A       38.5520   22.0320   11.2650 C.2   1409  HBP1409    -0.0012
     13  C8        31.6850   21.4500    8.8600 C.3   1409  HBP1409     0.0001
     14  C11       30.8440   22.4600    9.6220 C.3   1409  HBP1409     0.0018
     15  C14       29.7240   21.7600   10.3590 C.3   1409  HBP1409     0.0214
     16  C17       29.3050   22.5710   11.5750 C.3   1409  HBP1409     0.0911
     17  N20       28.2280   21.9260   12.3470 N.pl3 1409  HBP1409    -0.3023
     18  C21       28.3000   21.9810   13.6840 C.3   1409  HBP1409     0.1175
     19  C22       27.3150   21.3890   14.4750 C.2   1409  HBP1409    -0.0047
     20  C23       26.2220   20.7470   13.9080 C.2   1409  HBP1409    -0.0016
     21  C24       26.1750   20.6880   12.5310 C.2   1409  HBP1409     0.0159
     22  C25       27.1870   21.2890   11.7810 C.2   1409  HBP1409     0.0709
     23  C26       27.0980   21.2070   10.3250 C.2   1409  HBP1409     0.1594
     24  N27       26.1420   20.6200    9.7810 N.2   1409  HBP1409    -0.0265
     25  O28       26.1510   20.6370    8.4000 O.2   1409  HBP1409    -0.1431
@<TRIPOS>BOND
     1     3     4    1
     2     4     5    2
     3    25    24    1
     4     2    13    1
     5     2    11    1
     6    13    14    1
     7     1    11    1
     8     1    10    1
     9     5     6    1
    10    14    15    1
    11    24    23    2
    12    10     6    1
    13    10     9    1
    14     6     7    1
    15    23    22    1
    16    15    16    1
    17     9     8    2
    18     7    12    2
    19     8    12    1
    20    16    17    1
    21    22    17    1
    22    22    21    2
    23    17    18    1
    24    21    20    1
    25    18    19    1
    26    20    19    2
