@<TRIPOS>MOLECULE
2gyw_OBI_A_1.pdb
 21 22 0 0 0
SMALL
GASTEIGER

@<TRIPOS>ATOM
      1  O3        26.1910   20.2720   11.2190 O.2   952  OBI952     -0.1431
      2  N4        27.3810   20.9990   11.2550 N.2   952  OBI952     -0.0278
      3  C14       28.0810   21.1440   10.2200 C.2   952  OBI952      0.1447
      4  C11       29.3580   21.9050   10.2150 C.2   952  OBI952      0.0212
      5  C10       29.8150   22.5610   11.3530 C.2   952  OBI952     -0.0030
      6  C9        31.0110   23.2700   11.2920 C.3   952  OBI952      0.1196
      7  C12       30.1200   21.9640    9.0530 C.2   952  OBI952      0.0172
      8  C13       31.3210   22.6750    9.0520 C.2   952  OBI952      0.0634
      9  N3        31.7220   23.3160   10.1570 N.pl3 952  OBI952     -0.2775
     10  C8        32.9750   24.0520   10.1270 C.3   952  OBI952      0.2421
     11  O2        33.8630   23.1430    9.5020 O.3   952  OBI952     -0.3136
     12  C7        34.8540   23.7990    8.7420 C.3   952  OBI952      0.2421
     13  N2        36.0810   23.6850    9.5100 N.pl3 952  OBI952     -0.2775
     14  C4        36.2220   22.6810   10.3880 C.3   952  OBI952      0.1196
     15  C3        37.3910   22.5550   11.1260 C.2   952  OBI952     -0.0030
     16  C5        37.0280   24.6010    9.2960 C.2   952  OBI952      0.0634
     17  C6        38.2200   24.5290   10.0040 C.2   952  OBI952      0.0172
     18  C2        38.4010   23.4900   10.9160 C.2   952  OBI952      0.0212
     19  C1        39.6660   23.4470   11.6570 C.2   952  OBI952      0.1447
     20  N1        39.7790   22.7340   12.6720 N.2   952  OBI952     -0.0278
     21  O1        40.9840   22.7720   13.3690 O.2   952  OBI952     -0.1431
@<TRIPOS>BOND
     1    12    11    1
     2    12    13    1
     3     8     7    2
     4     8     9    1
     5     7     4    1
     6    16    13    1
     7    16    17    2
     8    11    10    1
     9    13    14    1
    10    17    18    1
    11    10     9    1
    12     9     6    1
    13     4     3    1
    14     4     5    2
    15     3     2    2
    16    14    15    1
    17    18    15    2
    18    18    19    1
    19     1     2    1
    20     6     5    1
    21    19    20    2
    22    20    21    1
