@<TRIPOS>MOLECULE
2gz1_NAP_A_1.pdb
 48 52 0 0 0
SMALL
GASTEIGER

@<TRIPOS>ATOM
      1  PA         3.4750   15.7680   50.0860 P.3   702  NAP702      0.2189
      2  O1A        3.1810   14.9710   48.8770 O.2   702  NAP702     -0.5170
      3  O2A        4.8710   16.0070   50.4750 O.3   702  NAP702     -0.4371
      4  O5B        2.7900   14.9940   51.3270 O.3   702  NAP702     -0.3112
      5  C5B        1.4790   14.4860   51.2190 C.3   702  NAP702      0.1813
      6  C4B        1.0040   14.0440   52.6190 C.3   702  NAP702      0.1820
      7  O4B       -0.4080   13.7920   52.4800 O.3   702  NAP702     -0.3136
      8  C3B        1.6420   12.7370   53.1260 C.3   702  NAP702      0.2157
      9  O3B        1.7890   12.8030   54.5440 O.3   702  NAP702     -0.2175
     10  C2B        0.5760   11.7110   52.8040 C.3   702  NAP702      0.2314
     11  O2B        0.6470   10.5980   53.7020 O.3   702  NAP702     -0.2630
     12  C1B       -0.6510   12.5340   53.1340 C.3   702  NAP702      0.3158
     13  N9A       -1.7900   11.8790   52.5340 N.pl3 702  NAP702     -0.1439
     14  C8A       -1.9980   11.6890   51.2250 C.3   702  NAP702      0.3377
     15  N7A       -3.1600   11.0560   51.0600 N.2   702  NAP702     -0.2095
     16  C5A       -3.6880   10.8440   52.2680 C.2   702  NAP702      0.2526
     17  C6A       -4.8550   10.2380   52.7260 C.2   702  NAP702      0.4393
     18  N6A       -5.7320    9.7160   51.8800 N.pl3 702  NAP702      0.2180
     19  N1A       -5.0920   10.1850   54.0460 N.2   702  NAP702      0.0021
     20  C2A       -4.2320   10.7040   54.9130 C.3   702  NAP702      0.5254
     21  N3A       -3.1030   11.2930   54.5160 N.2   702  NAP702     -0.0055
     22  C4A       -2.8110   11.3710   53.2060 C.2   702  NAP702      0.3518
     23  O3         2.5790   17.1520   50.0260 O.3   702  NAP702     -0.2703
     24  PN         2.8980   18.6280   50.7500 P.3   702  NAP702      0.2189
     25  O1N        3.7020   19.5000   49.8500 O.2   702  NAP702     -0.5170
     26  O2N        3.3630   18.4270   52.1210 O.3   702  NAP702     -0.4371
     27  O5D        1.3880   19.2020   50.6690 O.3   702  NAP702     -0.3112
     28  C5D        0.3660   18.9460   51.6330 C.3   702  NAP702      0.1813
     29  C4D       -0.7770   19.9760   51.4830 C.3   702  NAP702      0.1799
     30  O4D       -0.1840   21.2530   51.8500 O.3   702  NAP702     -0.3327
     31  C3D       -1.2790   20.1120   50.0440 C.3   702  NAP702      0.2158
     32  O3D       -2.6960   20.2480   50.0700 O.3   702  NAP702     -0.2175
     33  C2D       -0.6670   21.4240   49.5760 C.3   702  NAP702      0.2309
     34  O2D       -1.5330   22.1000   48.6610 O.3   702  NAP702     -0.2158
     35  C1D       -0.6030   22.2070   50.8770 C.3   702  NAP702      0.2263
     36  N1N        0.4240   23.2710   50.8490 N.pl3 702  NAP702     -0.2787
     37  C2N        1.7420   22.9600   50.5000 C.3   702  NAP702      0.1244
     38  C3N        2.7010   23.9440   50.4810 C.2   702  NAP702      0.0544
     39  C7N        4.1490   23.6500   50.1150 C.2   702  NAP702      0.2818
     40  O7N        4.9750   24.5650   50.0900 O.2   702  NAP702     -0.2670
     41  N7N        4.4320   22.3750   49.8180 N.am  702  NAP702     -0.0839
     42  C4N        2.3300   25.2330   50.8130 C.2   702  NAP702      0.0033
     43  C5N        1.0750   25.6950   51.1640 C.2   702  NAP702      0.0157
     44  C6N       -0.0180   24.6280   51.1930 C.2   702  NAP702      0.0633
     45  P2B        1.4970    9.2580   53.2220 P.3   702  NAP702      0.5328
     46  O1X        0.9240    8.0250   54.1180 O.3   702  NAP702     -0.1145
     47  O2X        1.0060    9.0180   51.7480 O.2   702  NAP702     -0.2224
     48  O3X        2.9430    9.4470   53.3680 O.3   702  NAP702     -0.1145
@<TRIPOS>BOND
     1    34    33    1
     2     2     1    2
     3    33    31    1
     4    33    35    1
     5    41    39   am
     6    25    24    2
     7    23     1    1
     8    23    24    1
     9    31    32    1
    10    31    29    1
    11     1     3    1
    12     1     4    1
    13    40    39    2
    14    39    38    1
    15    38    37    1
    16    38    42    2
    17    37    36    1
    18    27    24    1
    19    27    28    1
    20    24    26    1
    21    42    43    1
    22    36    35    1
    23    36    44    1
    24    35    30    1
    25    15    14    1
    26    15    16    2
    27    43    44    2
    28     5     4    1
    29     5     6    1
    30    14    13    1
    31    29    28    1
    32    29    30    1
    33    47    45    2
    34    18    17    1
    35    16    17    1
    36    16    22    1
    37     7     6    1
    38     7    12    1
    39    13    12    1
    40    13    22    1
    41     6     8    1
    42    17    19    2
    43    10     8    1
    44    10    12    1
    45    10    11    1
    46     8     9    1
    47    22    21    2
    48    45    48    1
    49    45    11    1
    50    45    46    1
    51    19    20    1
    52    21    20    1
