@<TRIPOS>MOLECULE
2gz2_A2P_A_1.pdb
 27 29 0 0 0
SMALL
GASTEIGER

@<TRIPOS>ATOM
      1  P1         1.4420    8.9460   53.3390 P.3   502  A2P502      0.5328
      2  O1P        0.9540    8.6710   51.8130 O.2   502  A2P502     -0.2224
      3  O2P        3.0620    9.1320   53.2210 O.3   502  A2P502     -0.1145
      4  O3P        1.0560    7.8390   54.2520 O.3   502  A2P502     -0.1145
      5  P2         3.8250   14.8310   50.2440 P.3   502  A2P502      0.5327
      6  O4P        3.8970   14.3170   48.7180 O.2   502  A2P502     -0.2224
      7  O5P        4.2110   13.5180   51.1230 O.3   502  A2P502     -0.1145
      8  O6P        4.7690   15.9330   50.4890 O.3   502  A2P502     -0.1145
      9  O5'        2.2490   15.1100   50.6700 O.3   502  A2P502     -0.2675
     10  C5'        1.3550   14.0000   50.9440 C.3   502  A2P502      0.1860
     11  C4'        1.0560   13.7820   52.4660 C.3   502  A2P502      0.1822
     12  O4'       -0.3910   13.5720   52.6600 O.3   502  A2P502     -0.3136
     13  C3'        1.7100   12.5380   53.1060 C.3   502  A2P502      0.2157
     14  O3'        1.8720   12.7410   54.5170 O.3   502  A2P502     -0.2175
     15  C2'        0.6480   11.4650   52.8860 C.3   502  A2P502      0.2314
     16  O2'        0.8170   10.3770   53.8070 O.3   502  A2P502     -0.2630
     17  C1'       -0.5980   12.2540   53.2590 C.3   502  A2P502      0.3158
     18  N9        -1.8240   11.6310   52.7050 N.pl3 502  A2P502     -0.1439
     19  C8        -2.0910   11.4230   51.4090 C.3   502  A2P502      0.3377
     20  N7        -3.2900   10.8440   51.2890 N.2   502  A2P502     -0.2095
     21  C5        -3.7910   10.6800   52.5150 C.2   502  A2P502      0.2526
     22  C6        -4.9750   10.1440   53.0160 C.2   502  A2P502      0.4393
     23  N6        -5.8950    9.6630   52.1970 N.pl3 502  A2P502      0.2180
     24  N1        -5.1840   10.1240   54.3430 N.2   502  A2P502      0.0021
     25  C2        -4.2700   10.6120   55.1760 C.3   502  A2P502      0.5254
     26  N3        -3.1240   11.1260   54.7360 N.2   502  A2P502     -0.0055
     27  C4        -2.8560   11.1770   53.4170 C.2   502  A2P502      0.3518
@<TRIPOS>BOND
     1     6     5    2
     2     5     8    1
     3     5     9    1
     4     5     7    1
     5     9    10    1
     6    10    11    1
     7    20    19    1
     8    20    21    2
     9    19    18    1
    10     2     1    2
    11    23    22    1
    12    11    12    1
    13    11    13    1
    14    21    22    1
    15    21    27    1
    16    12    17    1
    17    18    17    1
    18    18    27    1
    19    15    13    1
    20    15    17    1
    21    15    16    1
    22    22    24    2
    23    13    14    1
    24     3     1    1
    25     1    16    1
    26     1     4    1
    27    27    26    2
    28    24    25    1
    29    26    25    1
