@<TRIPOS>MOLECULE
2gz3_NAP_A_1.pdb
 48 52 0 0 0
SMALL
GASTEIGER

@<TRIPOS>ATOM
      1  PA       -39.5150   13.8450  -11.9560 P.3   367  NAP367      0.2189
      2  O1A      -40.0760   15.1890  -11.6440 O.3   367  NAP367     -0.4371
      3  O2A      -39.0260   13.5800  -13.3220 O.2   367  NAP367     -0.5170
      4  O5B      -40.6580   12.7830  -11.6150 O.3   367  NAP367     -0.3112
      5  C5B      -40.9710   12.5080  -10.2490 C.3   367  NAP367      0.1813
      6  C4B      -41.7010   11.1860  -10.1000 C.3   367  NAP367      0.1820
      7  O4B      -42.2270   11.1940   -8.7530 O.3   367  NAP367     -0.3136
      8  C3B      -42.9110   11.0090  -11.0260 C.3   367  NAP367      0.2157
      9  O3B      -42.9890    9.6280  -11.4200 O.3   367  NAP367     -0.2175
     10  C2B      -44.0950   11.3520  -10.1120 C.3   367  NAP367      0.2314
     11  O2B      -45.2810   10.6510  -10.5220 O.3   367  NAP367     -0.2630
     12  C1B      -43.5850   10.7440   -8.8090 C.3   367  NAP367      0.3158
     13  N9A      -44.3880   11.2320   -7.6660 N.pl3 367  NAP367     -0.1439
     14  C8A      -44.5400   12.5040   -7.2810 C.3   367  NAP367      0.3377
     15  N7A      -45.3540   12.5620   -6.2210 N.2   367  NAP367     -0.2095
     16  C5A      -45.7120   11.3040   -5.9240 C.2   367  NAP367      0.2526
     17  C6A      -46.5270   10.7410   -4.9380 C.2   367  NAP367      0.4393
     18  N6A      -47.1340   11.5210   -4.0300 N.pl3 367  NAP367      0.2180
     19  N1A      -46.6930    9.4060   -4.9220 N.2   367  NAP367      0.0021
     20  C2A      -46.0840    8.6270   -5.8220 C.3   367  NAP367      0.5254
     21  N3A      -45.3000    9.1300   -6.7790 N.2   367  NAP367     -0.0055
     22  C4A      -45.0980   10.4590   -6.8470 C.2   367  NAP367      0.3518
     23  O3       -38.4010   13.4510  -10.8290 O.3   367  NAP367     -0.2703
     24  PN       -36.9280   12.6490  -10.9690 P.3   367  NAP367      0.2189
     25  O1N      -35.8730   13.6440  -10.6010 O.3   367  NAP367     -0.4371
     26  O2N      -36.8040   11.9120  -12.2420 O.2   367  NAP367     -0.5170
     27  O5D      -37.0950   11.5600   -9.7520 O.3   367  NAP367     -0.3112
     28  C5D      -37.5560   11.9520   -8.4270 C.3   367  NAP367      0.1813
     29  C4D      -36.6180   11.4390   -7.2980 C.3   367  NAP367      0.1799
     30  O4D      -35.4350   10.7120   -7.7990 O.3   367  NAP367     -0.3327
     31  C3D      -36.0950   12.6380   -6.4930 C.3   367  NAP367      0.2158
     32  O3D      -36.1890   12.3220   -5.1060 O.3   367  NAP367     -0.2175
     33  C2D      -34.6290   12.7290   -6.9100 C.3   367  NAP367      0.2309
     34  O2D      -33.7920   13.2950   -5.8900 O.3   367  NAP367     -0.2158
     35  C1D      -34.2890   11.2550   -7.0920 C.3   367  NAP367      0.2263
     36  N1N      -33.0270   11.2130   -7.8620 N.pl3 367  NAP367     -0.2787
     37  C2N      -32.8970   12.0200   -8.9950 C.3   367  NAP367      0.1244
     38  C3N      -31.7270   12.0030   -9.7280 C.2   367  NAP367      0.0544
     39  C7N      -31.5960   12.8820  -10.9640 C.2   367  NAP367      0.2818
     40  O7N      -30.5540   12.8890  -11.6370 O.2   367  NAP367     -0.2670
     41  N7N      -32.6940   13.6100  -11.2180 N.am  367  NAP367     -0.0839
     42  C4N      -30.6860   11.1770   -9.3270 C.2   367  NAP367      0.0033
     43  C5N      -30.6590   10.3290   -8.2250 C.2   367  NAP367      0.0157
     44  C6N      -31.9410   10.3160   -7.3790 C.2   367  NAP367      0.0633
     45  P2B      -46.5160   11.3620  -11.3500 P.3   367  NAP367      0.5328
     46  O1X      -47.8300   10.5800  -10.8820 O.3   367  NAP367     -0.1145
     47  O2X      -46.6520   12.8510  -10.7520 O.3   367  NAP367     -0.1145
     48  O3X      -46.2250   11.2590  -12.7990 O.2   367  NAP367     -0.2224
@<TRIPOS>BOND
     1     3     1    2
     2    48    45    2
     3    26    24    2
     4     1     2    1
     5     1     4    1
     6     1    23    1
     7    40    39    2
     8     4     5    1
     9     9     8    1
    10    45    46    1
    11    45    47    1
    12    45    11    1
    13    41    39   am
    14     8    10    1
    15     8     6    1
    16    24    23    1
    17    24    25    1
    18    24    27    1
    19    39    38    1
    20    11    10    1
    21     5     6    1
    22    10    12    1
    23     6     7    1
    24    27    28    1
    25    38    42    2
    26    38    37    1
    27    42    43    1
    28    37    36    1
    29    12     7    1
    30    12    13    1
    31    28    29    1
    32    43    44    2
    33    36    44    1
    34    36    35    1
    35    30    29    1
    36    30    35    1
    37    13    14    1
    38    13    22    1
    39    29    31    1
    40    14    15    1
    41    35    33    1
    42    33    31    1
    43    33    34    1
    44    22    21    2
    45    22    16    1
    46    21    20    1
    47    31    32    1
    48    15    16    2
    49    16    17    1
    50    20    19    1
    51    17    19    2
    52    17    18    1
