@<TRIPOS>MOLECULE
2gz5_OVA_A_1.pdb
 21 22 0 0 0
SMALL
GASTEIGER

@<TRIPOS>ATOM
      1  C5        28.7860   23.9460   11.1730 C.3   480  OVA480      0.0698
      2  C4        28.8090   23.3080    9.7810 C.2   480  OVA480      0.1802
      3  C3        27.4480   22.8370    9.3310 C.3   480  OVA480      0.2044
      4  C2        27.1550   21.6180   10.2550 C.3   480  OVA480      0.2079
      5  C1        27.0480   22.0930   11.7170 C.3   480  OVA480      0.1575
      6  C6        28.3510   22.7980   12.1480 C.3   480  OVA480      0.0409
      7  O11       25.9390   23.0270   11.6680 O.3   480  OVA480     -0.2229
      8  C11       26.5750   21.0620   12.8020 C.3   480  OVA480      0.0357
      9  C21       25.8540   20.9250    9.7660 C.3   480  OVA480      0.1484
     10  C22       25.8230   19.3780   10.1030 C.3   480  OVA480      0.1467
     11  C23       24.3550   18.9060   10.2800 C.3   480  OVA480      0.0574
     12  C24       23.7800   19.1310   11.6030 C.2   480  OVA480     -0.0320
     13  C25       23.5030   18.4400   12.7250 C.2   480  OVA480     -0.0478
     14  C2A       24.6730   21.8710    9.3970 C.3   480  OVA480      0.0349
     15  O2A       26.1810   19.8480    8.8200 O.3   480  OVA480     -0.3532
     16  C2B       23.0350   19.3260   13.9340 C.3   480  OVA480      0.0260
     17  C2C       23.6430   17.1240   13.4950 C.3   480  OVA480      0.0260
     18  O31       27.5820   22.3530    8.0070 O.3   480  OVA480     -0.3435
     19  C31       27.4750   23.4870    7.1280 C.3   480  OVA480      0.1747
     20  O41       29.8660   23.2720    9.1450 O.2   480  OVA480     -0.2934
     21  O1        28.2830   20.7190   10.1650 O.3   480  OVA480     -0.2176
@<TRIPOS>BOND
     1    19    18    1
     2    18     3    1
     3    15     9    1
     4    15    10    1
     5    20     2    2
     6     3     2    1
     7     3     4    1
     8    14     9    1
     9     9    10    1
    10     9     4    1
    11     2     1    1
    12    10    11    1
    13    21     4    1
    14     4     5    1
    15    11    12    1
    16     1     6    1
    17    12    13    2
    18     7     5    1
    19     5     6    1
    20     5     8    1
    21    13    17    1
    22    13    16    1
