@<TRIPOS>MOLECULE
2gzd_GTP_A_1.pdb
 32 34 0 0 0
SMALL
GASTEIGER

@<TRIPOS>ATOM
      1  PG        62.5230   17.3920   29.2400 P.3   900  GTP900      0.5373
      2  O1G       61.8470   17.5520   30.5860 O.3   900  GTP900     -0.1143
      3  O2G       61.9280   18.5450   28.4120 O.2   900  GTP900     -0.2221
      4  O3G       62.2950   15.9790   28.7090 O.3   900  GTP900     -0.1143
      5  O3B       64.1390   17.6620   29.5900 O.3   900  GTP900     -0.2258
      6  PB        65.4210   17.6870   28.5740 P.3   900  GTP900      0.2277
      7  O1B       65.8570   16.2500   28.4220 O.3   900  GTP900     -0.4368
      8  O2B       65.0870   18.4770   27.3360 O.2   900  GTP900     -0.5168
      9  O3A       66.5230   18.5400   29.2760 O.3   900  GTP900     -0.2700
     10  PA        67.2060   19.9020   28.8110 P.3   900  GTP900      0.2189
     11  O1A       67.9100   19.7210   27.4790 O.2   900  GTP900     -0.5170
     12  O2A       66.2570   21.0640   28.8580 O.3   900  GTP900     -0.4371
     13  O5'       68.2880   20.1080   30.0040 O.3   900  GTP900     -0.3112
     14  C5'       67.9680   20.0190   31.4000 C.3   900  GTP900      0.1813
     15  C4'       69.0460   20.7980   32.1470 C.3   900  GTP900      0.1799
     16  O4'       70.3220   20.1670   32.0470 O.3   900  GTP900     -0.3326
     17  C3'       69.2620   22.1830   31.5550 C.3   900  GTP900      0.2158
     18  O3'       69.5530   23.0260   32.6350 O.3   900  GTP900     -0.2175
     19  C2'       70.4860   22.0540   30.6510 C.3   900  GTP900      0.2310
     20  O2'       71.2210   23.2330   30.4730 O.3   900  GTP900     -0.2158
     21  C1'       71.2870   21.0010   31.3740 C.3   900  GTP900      0.2293
     22  N9        72.1390   20.2590   30.4070 N.pl3 900  GTP900     -0.2354
     23  C8        71.8120   19.6850   29.2000 C.3   900  GTP900      0.2246
     24  N7        72.9160   19.1220   28.6490 N.2   900  GTP900     -0.2322
     25  C5        73.9570   19.3460   29.4700 C.2   900  GTP900      0.2182
     26  C6        75.3120   19.0080   29.4150 C.1   900  GTP900      0.2372
     27  O6        75.7980   18.3800   28.4730 O.2   900  GTP900     -0.2069
     28  N1        76.1190   19.3860   30.4750 N.2   900  GTP900     -0.2485
     29  C2        75.6210   20.0850   31.5510 C.1   900  GTP900      0.2531
     30  N2        76.4150   20.4450   32.5320 N.pl3 900  GTP900     -0.0226
     31  N3        74.3050   20.4350   31.5990 N.2   900  GTP900     -0.3074
     32  C4        73.4860   20.0590   30.5780 C.2   900  GTP900      0.2300
@<TRIPOS>BOND
     1     8     6    2
     2    11    10    2
     3     3     1    2
     4     7     6    1
     5    27    26    2
     6     6     9    1
     7     6     5    1
     8    24    23    1
     9    24    25    2
    10     4     1    1
    11    10    12    1
    12    10     9    1
    13    10    13    1
    14    23    22    1
    15     1     5    1
    16     1     2    1
    17    26    25    1
    18    26    28    2
    19    25    32    1
    20    13    14    1
    21    22    32    1
    22    22    21    1
    23    20    19    1
    24    28    29    2
    25    32    31    2
    26    19    21    1
    27    19    17    1
    28    21    16    1
    29    14    15    1
    30    29    31    2
    31    29    30    1
    32    17    15    1
    33    17    18    1
    34    16    15    1
