@<TRIPOS>MOLECULE
2gzh_GTP_A_1.pdb
 32 34 0 0 0
SMALL
GASTEIGER

@<TRIPOS>ATOM
      1  PG        31.0040    8.7730   25.0080 P.3   900  GTP900      0.5373
      2  O1G       32.0940    8.0020   25.6880 O.3   900  GTP900     -0.1143
      3  O2G       29.9190    8.8550   26.0690 O.3   900  GTP900     -0.1143
      4  O3G       30.5530    7.8890   23.8460 O.2   900  GTP900     -0.2221
      5  O3B       31.5320   10.3510   24.4990 O.3   900  GTP900     -0.2258
      6  PB        30.5970   11.5190   23.7720 P.3   900  GTP900      0.2277
      7  O1B       30.3800   11.1950   22.3110 O.2   900  GTP900     -0.5168
      8  O2B       29.1970   11.5890   24.3240 O.3   900  GTP900     -0.4368
      9  O3A       31.1170   13.0160   23.6180 O.3   900  GTP900     -0.2700
     10  PA        30.9160   14.2140   24.6520 P.3   900  GTP900      0.2189
     11  O1A       29.5940   14.9660   24.5130 O.2   900  GTP900     -0.5170
     12  O2A       31.1320   13.6840   26.0380 O.3   900  GTP900     -0.4371
     13  O5'       32.1230   15.1730   24.2800 O.3   900  GTP900     -0.3112
     14  C5'       33.4400   14.6550   24.2720 C.3   900  GTP900      0.1813
     15  C4'       34.4150   15.8260   24.3810 C.3   900  GTP900      0.1799
     16  O4'       34.3890   16.6990   23.2480 O.3   900  GTP900     -0.3326
     17  C3'       34.0960   16.6920   25.5800 C.3   900  GTP900      0.2158
     18  O3'       35.3420   17.1460   26.0330 O.3   900  GTP900     -0.2175
     19  C2'       33.3340   17.8460   24.9790 C.3   900  GTP900      0.2310
     20  O2'       33.4960   19.0580   25.6530 O.3   900  GTP900     -0.2158
     21  C1'       33.9560   17.9850   23.6260 C.3   900  GTP900      0.2293
     22  N9        32.9320   18.4190   22.6620 N.pl3 900  GTP900     -0.2354
     23  C8        31.6470   17.9400   22.4540 C.3   900  GTP900      0.2246
     24  N7        31.1190   18.6360   21.4200 N.2   900  GTP900     -0.2322
     25  C5        32.0320   19.5290   20.9650 C.2   900  GTP900      0.2182
     26  C6        32.0290   20.5170   19.9480 C.1   900  GTP900      0.2372
     27  O6        31.0340   20.7250   19.2050 O.2   900  GTP900     -0.2069
     28  N1        33.1920   21.2740   19.7810 N.2   900  GTP900     -0.2485
     29  C2        34.2990   21.1090   20.5940 C.1   900  GTP900      0.2531
     30  N2        35.3970   21.8340   20.4050 N.pl3 900  GTP900     -0.0226
     31  N3        34.2900   20.1470   21.5830 N.2   900  GTP900     -0.3074
     32  C4        33.1760   19.3890   21.7530 C.2   900  GTP900      0.2300
@<TRIPOS>BOND
     1    27    26    2
     2    28    26    2
     3    28    29    2
     4    26    25    1
     5    30    29    1
     6    29    31    2
     7    25    24    2
     8    25    32    1
     9    24    23    1
    10    31    32    2
    11    32    22    1
    12     7     6    2
    13    23    22    1
    14    22    21    1
    15    16    21    1
    16    16    15    1
    17     9     6    1
    18     9    10    1
    19    21    19    1
    20     6     8    1
    21     6     5    1
    22     4     1    2
    23    14    13    1
    24    14    15    1
    25    13    10    1
    26    15    17    1
    27     5     1    1
    28    11    10    2
    29    10    12    1
    30    19    17    1
    31    19    20    1
    32     1     2    1
    33     1     3    1
    34    17    18    1
