@<TRIPOS>MOLECULE
2gzl_2AA_A_1.pdb
 44 47 0 0 0
SMALL
GASTEIGER

@<TRIPOS>ATOM
      1  C13        2.0430   21.1520   38.9010 C.3   901  2AA901      0.1122
      2  N5         3.2500   20.9920   38.3810 N.pl3 901  2AA901     -0.3041
      3  C12        4.3100   21.3390   39.0950 C.3   901  2AA901      0.1122
      4  C11        3.3870   20.4910   37.1420 C.ar  901  2AA901      0.0479
      5  C10        3.1060   21.3230   36.0560 C.ar  901  2AA901      0.0145
      6  C9'        3.2310   20.8520   34.7520 C.ar  901  2AA901      0.0013
      7  C8'        3.6350   19.5390   34.5250 C.ar  901  2AA901      0.0014
      8  C7'        3.9210   18.6770   35.5890 C.ar  901  2AA901      0.0199
      9  C6'        3.7930   19.1610   36.9080 C.ar  901  2AA901      0.0146
     10  C5'        4.0760   18.3050   37.9800 C.ar  901  2AA901      0.0013
     11  C4'        4.4790   16.9910   37.7530 C.ar  901  2AA901      0.0014
     12  C3'        4.6070   16.5170   36.4490 C.ar  901  2AA901      0.0200
     13  C2'        4.3310   17.3450   35.3560 C.ar  901  2AA901      0.1236
     14  S1         4.5090   16.6820   33.8120 S.O2  901  2AA901      0.0769
     15  O3'        3.9250   15.2930   33.7970 O.2   901  2AA901     -0.1516
     16  O4'        3.8010   17.5150   32.7840 O.2   901  2AA901     -0.1516
     17  N4         6.1170   16.5780   33.4340 N.3   901  2AA901     -0.0751
     18  C1'        6.3820   16.8480   32.0100 C.3   901  2AA901      0.1479
     19  C9         5.9900   15.6310   31.1720 C.3   901  2AA901      0.1699
     20  O2'        7.1550   14.8740   30.8370 O.3   901  2AA901     -0.3123
     21  P2         7.6500   14.7930   29.2970 P.3   901  2AA901      0.2189
     22  O1'        6.7500   15.6350   28.4650 O.2   901  2AA901     -0.5170
     23  O9         9.1180   15.0230   29.2310 O.3   901  2AA901     -0.4371
     24  O8         7.3720   13.2060   28.9570 O.3   901  2AA901     -0.2703
     25  P1         8.5080   12.0420   28.8410 P.3   901  2AA901      0.2189
     26  O7         7.8000   10.7440   28.8520 O.3   901  2AA901     -0.4371
     27  O6         9.4520   12.3280   27.7470 O.2   901  2AA901     -0.5170
     28  O5         9.3160   12.1810   30.2210 O.3   901  2AA901     -0.3112
     29  C14        8.9290   11.4290   31.3920 C.3   901  2AA901      0.1813
     30  C8        10.1370   11.0050   32.2330 C.3   901  2AA901      0.1799
     31  O2        10.4520    9.6410   31.9150 O.3   901  2AA901     -0.3320
     32  C7        11.3670   11.8100   31.8230 C.3   901  2AA901      0.2158
     33  O4        11.4500   12.9790   32.6340 O.3   901  2AA901     -0.2175
     34  C6        12.5080   10.8680   32.1440 C.3   901  2AA901      0.2319
     35  O3        12.9120   11.0640   33.4930 O.3   901  2AA901     -0.2157
     36  C5        11.8800    9.4760   32.0220 C.3   901  2AA901      0.2400
     37  N3        12.2910    8.7070   30.8180 N.am  901  2AA901     -0.1778
     38  C4        11.9230    9.0820   29.5070 C.2   901  2AA901      0.0836
     39  C3        12.3470    8.2880   28.4430 C.2   901  2AA901      0.0687
     40  C2        13.1070    7.1480   28.6980 C.2   901  2AA901      0.2346
     41  N2        13.5230    6.3730   27.7000 N.pl3 901  2AA901     -0.0921
     42  N1        13.4360    6.8090   29.9500 N.2   901  2AA901     -0.3024
     43  C1        13.0570    7.5510   30.9980 C.1   901  2AA901      0.2756
     44  O1        13.3880    7.2080   32.1250 O.2   901  2AA901     -0.1925
@<TRIPOS>BOND
     1    41    40    1
     2    27    25    2
     3    39    40    1
     4    39    38    2
     5    22    21    2
     6    40    42    2
     7    25    26    1
     8    25    24    1
     9    25    28    1
    10    24    21    1
    11    23    21    1
    12    21    20    1
    13    38    37    1
    14    42    43    2
    15    28    29    1
    16    37    43   am
    17    37    36    1
    18    20    19    1
    19    43    44    2
    20    19    18    1
    21    29    30    1
    22    32    34    1
    23    32    30    1
    24    32    33    1
    25    31    36    1
    26    31    30    1
    27    18    17    1
    28    36    34    1
    29    34    35    1
    30    16    14    2
    31    17    14    1
    32    15    14    2
    33    14    13    1
    34     7     6   ar
    35     7     8   ar
    36     6     5   ar
    37    13     8   ar
    38    13    12   ar
    39     8     9   ar
    40     5     4   ar
    41    12    11   ar
    42     9     4   ar
    43     9    10   ar
    44     4     2    1
    45    11    10   ar
    46     2     1    1
    47     2     3    1
