@<TRIPOS>MOLECULE
2gzl_GPP_A_1.pdb
 19 18 0 0 0
SMALL
GASTEIGER

@<TRIPOS>ATOM
      1  C1        11.6970   14.2250   12.7690 C.2   903  GPP903      0.1740
      2  O1        11.3270   12.9090   12.6630 O.2   903  GPP903     -0.4369
      3  C2        12.7790   14.6670   13.5290 C.2   903  GPP903      0.0139
      4  C3        13.0810   16.0230   13.5870 C.3   903  GPP903      0.0256
      5  C4        12.2270   17.0450   12.8360 C.3   903  GPP903      0.0048
      6  C5        14.2670   16.5080   14.4070 C.3   903  GPP903      0.0091
      7  C6        13.8640   16.7110   15.8680 C.3   903  GPP903      0.0257
      8  C7        14.6880   15.9750   16.7130 C.2   903  GPP903     -0.0346
      9  C8        15.9130   16.3570   17.2650 C.2   903  GPP903     -0.0478
     10  C9        16.6530   15.3820   18.1780 C.3   903  GPP903      0.0260
     11  C10       16.5390   17.7300   16.9860 C.3   903  GPP903      0.0260
     12  PA        12.5580   11.8930   12.3080 P.3   903  GPP903      0.2779
     13  O1A       13.2620   12.3520   11.0830 O.2   903  GPP903     -0.5080
     14  O2A       13.3280   11.6710   13.5560 O.3   903  GPP903     -0.4271
     15  O3A       11.7700   10.5150   11.9560 O.3   903  GPP903     -0.2160
     16  PB        10.6860   10.3680   10.7550 P.3   903  GPP903      0.5380
     17  O1B        9.2870   10.3210   11.2250 O.3   903  GPP903     -0.1143
     18  O2B       10.9620   11.4980    9.6580 O.2   903  GPP903     -0.2221
     19  O3B       11.1470    9.0200   10.0140 O.3   903  GPP903     -0.1143
@<TRIPOS>BOND
     1    18    16    2
     2    19    16    1
     3    16    17    1
     4    16    15    1
     5    13    12    2
     6    15    12    1
     7    12     2    1
     8    12    14    1
     9     2     1    1
    10     1     3    2
    11     5     4    1
    12     3     4    1
    13     4     6    1
    14     6     7    1
    15     7     8    1
    16     8     9    2
    17    11     9    1
    18     9    10    1
