@<TRIPOS>MOLECULE
2gzs_DFP_A_1.pdb
 10 9 0 0 0
SMALL
GASTEIGER

@<TRIPOS>ATOM
      1  C1         2.8630   42.1070   -3.4150 C.3   1189  DFP1189     0.1236
      2  C2         3.2310   43.3560   -4.2200 C.3   1189  DFP1189     0.0325
      3  C3         1.7790   42.3760   -2.3820 C.3   1189  DFP1189     0.0325
      4  C1'        6.5620   40.2190   -5.2010 C.3   1189  DFP1189     0.1236
      5  C2'        6.2090   38.8280   -5.6400 C.3   1189  DFP1189     0.0325
      6  C3'        6.7580   41.0860   -6.4900 C.3   1189  DFP1189     0.0325
      7  P          5.0600   40.5900   -3.0350 P.3   1189  DFP1189     0.3659
      8  O1P        4.0900   41.7660   -2.6950 O.3   1189  DFP1189    -0.2993
      9  O2P        5.4570   40.7970   -4.5490 O.3   1189  DFP1189    -0.2993
     10  O3P        6.2700   40.5330   -2.1160 O.3   1189  DFP1189    -0.1446
@<TRIPOS>BOND
     1     6     4    1
     2     5     4    1
     3     4     9    1
     4     9     7    1
     5     2     1    1
     6     1     8    1
     7     1     3    1
     8     7     8    1
     9     7    10    1
