@<TRIPOS>MOLECULE
2gzw_CMP_A_1.pdb
 22 25 0 0 0
SMALL
GASTEIGER

@<TRIPOS>ATOM
      1  P        -11.9860    0.2190   -0.4260 P.3   1301  CMP1301     0.2141
      2  O1P      -11.1500    0.1030   -1.6420 O.2   1301  CMP1301    -0.5172
      3  O2P      -13.1070    1.1840   -0.3950 O.3   1301  CMP1301    -0.4373
      4  O5'      -12.5330   -1.2490   -0.1010 O.3   1301  CMP1301    -0.3114
      5  C5'      -11.6710   -2.2420    0.4790 C.3   1301  CMP1301     0.1812
      6  C4'      -10.9680   -1.6270    1.6530 C.3   1301  CMP1301     0.1793
      7  O4'      -10.0270   -2.5100    2.3140 O.3   1301  CMP1301    -0.3136
      8  C3'      -10.0930   -0.4820    1.2050 C.3   1301  CMP1301     0.1884
      9  O3'      -10.9780    0.5360    0.7940 O.3   1301  CMP1301    -0.3111
     10  C2'       -9.2480   -0.2660    2.4440 C.3   1301  CMP1301     0.2541
     11  O2'       -9.9600    0.3860    3.4770 O.3   1301  CMP1301    -0.2131
     12  C1'       -8.9600   -1.7240    2.8320 C.3   1301  CMP1301     0.3185
     13  N9        -7.7120   -2.1950    2.2370 N.pl3 1301  CMP1301    -0.1439
     14  C8        -7.4460   -2.5480    0.9310 C.3   1301  CMP1301     0.3377
     15  N7        -6.1980   -2.9020    0.7240 N.2   1301  CMP1301    -0.2095
     16  C5        -5.6060   -2.7740    1.9740 C.2   1301  CMP1301     0.2526
     17  C6        -4.2970   -2.9970    2.4320 C.2   1301  CMP1301     0.4393
     18  N6        -3.2850   -3.3630    1.6490 N.pl3 1301  CMP1301     0.2180
     19  N1        -4.0550   -2.8160    3.7460 N.2   1301  CMP1301     0.0021
     20  C2        -5.0560   -2.4110    4.5360 C.3   1301  CMP1301     0.5254
     21  N3        -6.3190   -2.1410    4.2240 N.2   1301  CMP1301    -0.0055
     22  C4        -6.5330   -2.3510    2.9150 C.2   1301  CMP1301     0.3518
@<TRIPOS>BOND
     1     2     1    2
     2     1     3    1
     3     1     4    1
     4     1     9    1
     5     4     5    1
     6     5     6    1
     7    15    14    1
     8    15    16    2
     9     9     8    1
    10    14    13    1
    11     8     6    1
    12     8    10    1
    13    18    17    1
    14     6     7    1
    15    16    17    1
    16    16    22    1
    17    13    12    1
    18    13    22    1
    19     7    12    1
    20    17    19    2
    21    10    12    1
    22    10    11    1
    23    22    21    2
    24    19    20    1
    25    21    20    1
