@<TRIPOS>MOLECULE
2h00_SAH_A_1.pdb
 26 28 0 0 0
SMALL
GASTEIGER

@<TRIPOS>ATOM
      1  N         89.0440   -1.9210    1.3030 N.3   300  SAH300     -0.1208
      2  CA        89.7450   -1.5710    0.0310 C.3   300  SAH300      0.1952
      3  CB        90.0940   -2.8870   -0.7470 C.3   300  SAH300      0.0422
      4  CG        88.8850   -3.7170   -1.1450 C.3   300  SAH300      0.0597
      5  SD        89.2100   -5.0380   -2.3500 S.3   300  SAH300     -0.1375
      6  C         88.8920   -0.6030   -0.7950 C.2   300  SAH300      0.3819
      7  O         87.6730   -0.3700   -0.5500 O.co2 300  SAH300     -0.2441
      8  OXT       89.4290   -0.0090   -1.7540 O.co2 300  SAH300     -0.2441
      9  C5'       89.0950   -6.3790   -1.1240 C.3   300  SAH300      0.0899
     10  C4'       90.4130   -6.7300   -0.3690 C.3   300  SAH300      0.1630
     11  O4'       90.1250   -7.8160    0.4790 O.3   300  SAH300     -0.3153
     12  C3'       91.5980   -7.2530   -1.2070 C.3   300  SAH300      0.2168
     13  O3'       92.7670   -6.4370   -1.0470 O.3   300  SAH300     -0.2175
     14  C2'       91.8800   -8.6700   -0.7550 C.3   300  SAH300      0.2569
     15  O2'       93.2750   -8.8810   -0.7480 O.3   300  SAH300     -0.2130
     16  C1'       91.2720   -8.6190    0.6380 C.3   300  SAH300      0.3185
     17  N9        90.8290   -9.9060    1.1830 N.pl3 300  SAH300     -0.1439
     18  C8        90.3270  -11.0040    0.4990 C.3   300  SAH300      0.3377
     19  N7        90.0210  -11.9850    1.4060 N.2   300  SAH300     -0.2095
     20  C5        90.3320  -11.5430    2.6500 C.2   300  SAH300      0.2526
     21  C6        90.2220  -12.1400    3.9220 C.2   300  SAH300      0.4393
     22  N6        89.7530  -13.3790    4.1010 N.pl3 300  SAH300      0.2180
     23  N1        90.6480  -11.4160    4.9900 N.2   300  SAH300      0.0021
     24  C2        91.1730  -10.1390    4.8580 C.3   300  SAH300      0.5254
     25  N3        91.2500   -9.5510    3.6240 N.2   300  SAH300     -0.0055
     26  C4        90.8400  -10.2400    2.5310 C.2   300  SAH300      0.3518
@<TRIPOS>BOND
     1     5     4    1
     2     5     9    1
     3     8     6   ar
     4    12    13    1
     5    12    14    1
     6    12    10    1
     7     4     3    1
     8     9    10    1
     9     6     7   ar
    10     6     2    1
    11    14    15    1
    12    14    16    1
    13     3     2    1
    14    10    11    1
    15     2     1    1
    16    11    16    1
    17    18    17    1
    18    18    19    1
    19    16    17    1
    20    17    26    1
    21    19    20    2
    22    26    20    1
    23    26    25    2
    24    20    21    1
    25    25    24    1
    26    21    22    1
    27    21    23    2
    28    24    23    1
