@<TRIPOS>MOLECULE
2h02_2UN_A_1.pdb
 28 29 0 0 0
SMALL
GASTEIGER

@<TRIPOS>ATOM
      1  O7         6.7400    3.9860   41.0050 O.3   402  2UN402     -0.2891
      2  S1         7.3110    5.2190   40.4260 S.3   402  2UN402     -0.1124
      3  O5         8.7890    5.1150   40.5320 O.3   402  2UN402     -0.2891
      4  O6         6.9480    5.4930   39.0100 O.3   402  2UN402     -0.2891
      5  N1         6.8510    6.4710   41.3370 N.pl3 402  2UN402     -0.1365
      6  C5         5.5700    6.9030   41.3300 C.ar  402  2UN402      0.0874
      7  C4         5.1540    7.9000   40.4370 C.ar  402  2UN402      0.0176
      8  C2         4.6670    6.3030   42.2090 C.ar  402  2UN402      0.0176
      9  C6         3.3370    6.6980   42.2430 C.ar  402  2UN402     -0.0029
     10  C3         2.9020    7.6830   41.3620 C.ar  402  2UN402     -0.0210
     11  C1         3.8100    8.2740   40.4690 C.ar  402  2UN402     -0.0029
     12  C19        1.4360    8.0830   41.4390 C.3   402  2UN402      0.0480
     13  C7         1.1200    9.3290   42.2860 C.3   402  2UN402      0.1862
     14  C8        -0.3830    9.6270   42.3600 C.2   402  2UN402      0.3270
     15  O2        -0.8410   10.7570   42.2220 O.2   402  2UN402     -0.2495
     16  O1        -1.3900    8.6100   42.6200 O.3   402  2UN402     -0.4440
     17  C17       -2.8050    8.7370   42.8280 C.3   402  2UN402      0.2556
     18  C9         1.8040   10.4760   41.5650 C.2   402  2UN402      0.3270
     19  O4         1.3290   10.9060   40.2510 O.3   402  2UN402     -0.4440
     20  C18        2.0020   11.8520   39.4170 C.3   402  2UN402      0.2556
     21  O3         2.7580   11.0580   42.0540 O.2   402  2UN402     -0.2495
     22  C10        1.7070    9.1150   43.6860 C.3   402  2UN402      0.0480
     23  C11        1.0280    9.8910   44.7960 C.ar  402  2UN402     -0.0211
     24  C13        1.5960   11.0850   45.2580 C.ar  402  2UN402     -0.0042
     25  C16        1.0050   11.8370   46.2730 C.ar  402  2UN402     -0.0003
     26  C12       -0.1910   11.3670   46.8070 C.ar  402  2UN402     -0.0000
     27  C15       -0.7800   10.1840   46.3480 C.ar  402  2UN402     -0.0003
     28  C14       -0.1670    9.4310   45.3480 C.ar  402  2UN402     -0.0042
@<TRIPOS>BOND
     1     4     2    1
     2    20    19    1
     3    19    18    1
     4     2     3    1
     5     2     1    1
     6     2     5    1
     7     7    11   ar
     8     7     6   ar
     9    11    10   ar
    10     6     5    1
    11     6     8   ar
    12    10    12    1
    13    10     9   ar
    14    12    13    1
    15    18    21    2
    16    18    13    1
    17     8     9   ar
    18    15    14    2
    19    13    14    1
    20    13    22    1
    21    14    16    1
    22    16    17    1
    23    22    23    1
    24    23    24   ar
    25    23    28   ar
    26    24    25   ar
    27    28    27   ar
    28    25    26   ar
    29    27    26   ar
