@<TRIPOS>MOLECULE
2h03_3UN_A_1.pdb
 33 33 0 0 0
SMALL
GASTEIGER

@<TRIPOS>ATOM
      1  N         22.4760    4.6290   24.2290 N.pl3 401  3UN401     -0.1365
      2  O48       19.5270    1.7630   31.6650 O.2   401  3UN401     -0.2495
      3  C36       20.4130    2.5950   31.5110 C.2   401  3UN401      0.3266
      4  O49       21.2760    2.8430   32.6380 O.3   401  3UN401     -0.4481
      5  C51       21.2000    2.0150   33.7980 C.3   401  3UN401      0.2086
      6  C54       22.6080    1.6440   34.1970 C.3   401  3UN401      0.0513
      7  C11       20.6550    3.3490   30.2220 C.3   401  3UN401      0.1839
      8  C15       20.9270    4.8330   30.4910 C.3   401  3UN401      0.0452
      9  C44       19.7780    5.6610   31.0800 C.3   401  3UN401      0.1198
     10  N39       20.2060    7.0420   31.3380 N.am  401  3UN401     -0.1687
     11  C37       20.0610    8.1280   30.5670 C.2   401  3UN401      0.4209
     12  O38       19.5320    8.0820   29.4670 O.2   401  3UN401     -0.2246
     13  O19       20.5370    9.4430   30.9980 O.3   401  3UN401     -0.4408
     14  C20       20.2510   10.6570   30.2850 C.3   401  3UN401      0.1379
     15  C23       18.8420   10.6330   29.6990 C.3   401  3UN401      0.0437
     16  C22       20.3310   11.8610   31.2230 C.3   401  3UN401      0.0437
     17  C21       21.2850   10.8130   29.1670 C.3   401  3UN401      0.0437
     18  C14       19.4450    3.1890   29.3380 C.2   401  3UN401      0.3266
     19  O47       19.0260    1.8380   29.0280 O.3   401  3UN401     -0.4481
     20  C50       18.0140    1.6700   28.0200 C.3   401  3UN401      0.2086
     21  C60       17.8430    0.1950   27.7590 C.3   401  3UN401      0.0513
     22  O46       18.8300    4.1490   28.8910 O.2   401  3UN401     -0.2495
     23  C35       21.8490    2.6300   29.5480 C.3   401  3UN401      0.0477
     24  C2        22.0220    3.1400   28.1240 C.ar  401  3UN401     -0.0210
     25  C5        21.5080    2.4320   27.0280 C.ar  401  3UN401     -0.0029
     26  C4        21.6700    2.9150   25.7180 C.ar  401  3UN401      0.0176
     27  C6        22.7030    4.3430   27.8980 C.ar  401  3UN401     -0.0029
     28  C3        22.8510    4.8380   26.5940 C.ar  401  3UN401      0.0176
     29  C1        22.3350    4.1300   25.4950 C.ar  401  3UN401      0.0874
     30  S12       23.6760    4.1230   23.2510 S.3   401  3UN401     -0.1124
     31  O17       24.8500    4.7340   23.8970 O.3   401  3UN401     -0.2891
     32  O18       23.3030    4.7160   21.9520 O.3   401  3UN401     -0.2891
     33  O34       23.7460    2.6600   23.3720 O.3   401  3UN401     -0.2891
@<TRIPOS>BOND
     1    32    30    1
     2    30    33    1
     3    30    31    1
     4    30     1    1
     5     1    29    1
     6    29    26   ar
     7    29    28   ar
     8    26    25   ar
     9    28    27   ar
    10    25    24   ar
    11    21    20    1
    12    27    24   ar
    13    20    19    1
    14    24    23    1
    15    22    18    2
    16    19    18    1
    17    17    14    1
    18    18     7    1
    19    12    11    2
    20    23     7    1
    21    15    14    1
    22     7     8    1
    23     7     3    1
    24    14    13    1
    25    14    16    1
    26     8     9    1
    27    11    13    1
    28    11    10   am
    29     9    10    1
    30     3     2    2
    31     3     4    1
    32     4     5    1
    33     5     6    1
