@<TRIPOS>MOLECULE
2h04_4UN_A_1.pdb
 32 35 0 0 0
SMALL
GASTEIGER

@<TRIPOS>ATOM
      1  O16       -0.0250   27.8300   17.9370 O.3   401  4UN401     -0.2891
      2  S13        0.5140   28.5030   19.1280 S.3   401  4UN401     -0.1124
      3  O14        0.8220   27.5440   20.1960 O.3   401  4UN401     -0.2891
      4  O15        1.7620   29.2470   18.8770 O.3   401  4UN401     -0.2891
      5  N8        -0.5920   29.5250   19.6910 N.pl3 401  4UN401     -0.1365
      6  C4        -1.8720   29.1250   19.9270 C.ar  401  4UN401      0.0874
      7  C5        -2.2620   28.5480   21.1370 C.ar  401  4UN401      0.0176
      8  C2        -3.5760   28.1730   21.3900 C.ar  401  4UN401     -0.0028
      9  C6        -4.5530   28.3620   20.4120 C.ar  401  4UN401     -0.0200
     10  C3        -4.1630   28.9230   19.2060 C.ar  401  4UN401     -0.0028
     11  C1        -2.8490   29.3110   18.9590 C.ar  401  4UN401      0.0176
     12  C49       -6.0110   27.9730   20.6350 C.3   401  4UN401      0.0569
     13  C10       -6.8670   29.1300   21.1830 C.3   401  4UN401      0.1818
     14  C17       -8.3260   28.7240   21.2280 C.1   401  4UN401      0.1164
     15  N22       -9.2690   29.4630   20.6370 N.2   401  4UN401     -0.0107
     16  O29      -10.5200   28.8100   20.8440 O.2   401  4UN401     -0.3158
     17  C27      -10.2100   27.6400   21.6130 C.2   401  4UN401      0.2939
     18  C28      -11.1860   26.5810   22.1120 C.3   401  4UN401      0.1136
     19  N23       -8.7860   27.6200   21.8310 N.2   401  4UN401     -0.3160
     20  C18       -6.6650   30.1840   20.1060 C.1   401  4UN401      0.1164
     21  N20       -5.8590   31.2370   20.2430 N.2   401  4UN401     -0.0107
     22  O25       -5.8420   31.9630   19.0900 O.2   401  4UN401     -0.3158
     23  C26       -6.7280   31.3120   18.2090 C.2   401  4UN401      0.2939
     24  C24       -7.0440   31.7990   16.8120 C.3   401  4UN401      0.1136
     25  N21       -7.2330   30.1450   18.9000 N.2   401  4UN401     -0.3160
     26  C19       -6.4160   29.5460   22.6000 C.3   401  4UN401      0.0569
     27  C36       -7.2120   30.7010   23.1870 C.ar  401  4UN401     -0.0201
     28  C40       -6.6550   31.9800   23.1920 C.ar  401  4UN401     -0.0042
     29  C43       -7.3640   33.0620   23.7210 C.ar  401  4UN401     -0.0003
     30  C39       -8.6420   32.9100   24.2550 C.ar  401  4UN401     -0.0000
     31  C42       -9.1930   31.6190   24.2510 C.ar  401  4UN401     -0.0003
     32  C41       -8.4930   30.5270   23.7320 C.ar  401  4UN401     -0.0042
@<TRIPOS>BOND
     1    24    23    1
     2     1     2    1
     3    23    25    2
     4    23    22    1
     5     4     2    1
     6    25    20    2
     7    11    10   ar
     8    11     6   ar
     9    22    21    1
    10     2     5    1
    11     2     3    1
    12    10     9   ar
    13     5     6    1
    14     6     7   ar
    15    20    21    2
    16    20    13    1
    17     9    12    1
    18     9     8   ar
    19    12    13    1
    20    15    16    1
    21    15    14    2
    22    16    17    1
    23     7     8   ar
    24    13    14    1
    25    13    26    1
    26    14    19    2
    27    17    19    2
    28    17    18    1
    29    26    27    1
    30    27    28   ar
    31    27    32   ar
    32    28    29   ar
    33    29    30   ar
    34    32    31   ar
    35    31    30   ar
