@<TRIPOS>MOLECULE
2h0f_AZA_A_1.pdb
 11 12 0 0 0
SMALL
GASTEIGER

@<TRIPOS>ATOM
      1  N1       -11.0730   61.3290   35.9350 N.2   900  AZA900     -0.2300
      2  C2       -11.0010   61.7770   34.6290 C.1   900  AZA900      0.3745
      3  O2       -11.8840   61.4650   33.8530 O.2   900  AZA900     -0.1738
      4  N3        -9.9080   62.5660   34.2790 N.2   900  AZA900     -0.2491
      5  C4        -8.9700   62.8500   35.2490 C.1   900  AZA900      0.1531
      6  C5        -9.0420   62.4030   36.5570 C.2   900  AZA900      0.2717
      7  C6       -10.1730   61.5740   36.9640 C.1   900  AZA900      0.2477
      8  O6       -10.3690   61.1110   38.0710 O.2   900  AZA900     -0.2062
      9  N7        -8.0250   62.8090   37.2940 N.2   900  AZA900     -0.1149
     10  N8        -7.2920   63.5230   36.4490 N.pl3 900  AZA900     -0.0026
     11  N9        -7.8210   63.5870   35.1720 N.2   900  AZA900     -0.0705
@<TRIPOS>BOND
     1     3     2    2
     2     4     2    2
     3     4     5    2
     4     2     1    2
     5    11     5    2
     6    11    10    1
     7     5     6    1
     8     1     7    2
     9    10     9    1
    10     6     7    1
    11     6     9    2
    12     7     8    2
