@<TRIPOS>MOLECULE
2h0j_URN_A_1.pdb
 10 10 0 0 0
SMALL
GASTEIGER

@<TRIPOS>ATOM
      1  O4        -8.7880   63.4960   38.0180 O.2   122  URN122     -0.2114
      2  C4        -9.5590   62.9090   37.2780 C.1   122  URN122      0.2190
      3  N3       -10.1930   61.7170   37.6670 N.2   122  URN122     -0.2351
      4  C5        -9.7660   63.5640   35.9360 C.3   122  URN122      0.2794
      5  N5        -9.1260   64.7630   35.5560 N.3   122  URN122     -0.1044
      6  C6       -10.7280   62.8120   35.0330 C.2   122  URN122      0.2461
      7  N6       -11.0190   63.2730   33.7870 N.pl3 122  URN122     -0.0941
      8  N1       -11.3110   61.6400   35.4980 N.2   122  URN122     -0.2913
      9  C2       -11.0800   61.0810   36.7590 C.1   122  URN122      0.3663
     10  O2       -11.7040   60.0110   37.0060 O.2   122  URN122     -0.1745
@<TRIPOS>BOND
     1     7     6    1
     2     6     8    2
     3     6     4    1
     4     8     9    2
     5     5     4    1
     6     4     2    1
     7     9    10    2
     8     9     3    2
     9     2     3    2
    10     2     1    2
