@<TRIPOS>MOLECULE
2h0t_MA4_A_1.pdb
 35 37 0 0 0
SMALL
GASTEIGER

@<TRIPOS>ATOM
      1  C1        60.7020   52.8150    2.2930 C.3   400  MA4400      0.2695
      2  C2        61.2760   52.1590    1.0200 C.3   400  MA4400      0.2406
      3  C3        60.8750   50.7070    0.9280 C.3   400  MA4400      0.2198
      4  C4        61.2700   49.9730    2.1990 C.3   400  MA4400      0.2144
      5  C5        60.6770   50.7100    3.4460 C.3   400  MA4400      0.1835
      6  C6        61.0680   50.0900    4.6290 C.3   400  MA4400      0.2142
      7  O2        60.7940   52.9010   -0.1230 O.3   400  MA4400     -0.2149
      8  O3        61.5280   50.1740   -0.2800 O.3   400  MA4400     -0.2174
      9  O5        61.1050   52.0770    3.4700 O.3   400  MA4400     -0.3256
     10  O6        62.4990   50.1680    4.8180 O.3   400  MA4400     -0.2176
     11  O1        59.3060   52.8060    2.1620 O.3   400  MA4400     -0.3257
     12  O4        60.7780   48.6450    2.1780 O.3   400  MA4400     -0.2176
     13  C10       55.9900   55.2000    2.6880 C.3   400  MA4400      0.2695
     14  C20       56.8120   55.5010    1.4260 C.3   400  MA4400      0.2404
     15  C30       57.6600   54.2550    1.1750 C.3   400  MA4400      0.2167
     16  C40       58.5200   54.0160    2.3920 C.3   400  MA4400      0.1804
     17  C50       57.6940   53.8040    3.6240 C.3   400  MA4400      0.1803
     18  C60       58.5190   53.6210    4.9100 C.3   400  MA4400      0.2141
     19  O10       55.1830   56.3310    2.9880 O.3   400  MA4400     -0.3286
     20  O20       55.9890   55.7390    0.3320 O.3   400  MA4400     -0.2149
     21  O30       58.4630   54.4960    0.0390 O.3   400  MA4400     -0.2175
     22  O50       56.8550   54.9440    3.8200 O.3   400  MA4400     -0.3257
     23  O60       59.3710   54.8000    5.0940 O.3   400  MA4400     -0.2176
     24  C11       54.1500   56.0310    3.9550 C.3   400  MA4400      0.1449
     25  C21       52.9260   55.6210    3.1850 C.3   400  MA4400      0.0322
     26  C31       51.8850   55.3030    4.2490 C.3   400  MA4400      0.0026
     27  C41       50.5020   55.4860    3.6550 C.3   400  MA4400      0.0001
     28  C51       49.3730   55.3040    4.6350 C.3   400  MA4400      0.0000
     29  C61       49.5310   54.6630    5.9670 C.3   400  MA4400      0.0000
     30  C12       48.2650   54.5690    6.7790 C.3   400  MA4400      0.0000
     31  C22       48.3610   55.4520    8.0330 C.3   400  MA4400      0.0000
     32  C32       47.3150   55.1690    9.1390 C.3   400  MA4400      0.0000
     33  C42       46.5670   53.8470    9.0650 C.3   400  MA4400      0.0000
     34  C52       47.3760   52.7510    8.3890 C.3   400  MA4400      0.0000
     35  C62       47.9720   53.1100    7.0440 C.3   400  MA4400      0.0000
@<TRIPOS>BOND
     1     8     3    1
     2     7     2    1
     3    21    15    1
     4    20    14    1
     5     3     2    1
     6     3     4    1
     7     2     1    1
     8    15    14    1
     9    15    16    1
    10    14    13    1
    11    11     1    1
    12    11    16    1
    13    12     4    1
    14     4     5    1
    15     1     9    1
    16    16    17    1
    17    13    19    1
    18    13    22    1
    19    19    24    1
    20    25    24    1
    21    25    26    1
    22     5     9    1
    23     5     6    1
    24    17    22    1
    25    17    18    1
    26    27    26    1
    27    27    28    1
    28     6    10    1
    29    28    29    1
    30    18    23    1
    31    29    30    1
    32    30    35    1
    33    30    31    1
    34    35    34    1
    35    31    32    1
    36    34    33    1
    37    33    32    1
