@<TRIPOS>MOLECULE
2h0t_TEM_A_1.pdb
 11 10 0 0 0
SMALL
GASTEIGER

@<TRIPOS>ATOM
      1  O1        34.9380   65.7240    3.7200 O.2   501  TEM501     -0.2939
      2  C2        34.2010   66.5160    4.3070 C.2   501  TEM501      0.1777
      3  C3        32.7230   66.2270    4.4380 C.3   501  TEM501      0.1891
      4  N4        32.4540   64.8140    4.1350 N.2   501  TEM501     -0.2651
      5  C5        32.9500   63.8710    4.9140 C.2   501  TEM501      0.0755
      6  C6        32.7050   62.5270    4.6590 C.3   501  TEM501      0.1186
      7  C7        33.2560   61.5810    5.5160 C.2   501  TEM501      0.2138
      8  O8        34.0810   61.9420    6.3530 O.2   501  TEM501     -0.2879
      9  C9        34.7690   67.7980    4.9190 C.3   501  TEM501      0.1021
     10  C10       34.4960   69.0080    4.0230 C.3   501  TEM501      0.1899
     11  O11       34.9980   70.1920    4.6490 O.3   501  TEM501     -0.2199
@<TRIPOS>BOND
     1     1     2    2
     2    10    11    1
     3    10     9    1
     4     4     3    1
     5     4     5    2
     6     2     3    1
     7     2     9    1
     8     6     5    1
     9     6     7    1
    10     7     8    2
