@<TRIPOS>MOLECULE
2h0u_FMN_A_1.pdb
 31 33 0 0 0
SMALL
GASTEIGER

@<TRIPOS>ATOM
      1  N1        14.8640   16.3680   28.3580 N.2   301  FMN301     -0.2890
      2  C2        16.0740   16.8930   27.9270 C.1   301  FMN301      0.3669
      3  O2        17.1140   16.4130   28.3600 O.2   301  FMN301     -0.1744
      4  N3        16.1260   17.9600   27.0680 N.2   301  FMN301     -0.2300
      5  C4        14.9620   18.5400   26.6310 C.1   301  FMN301      0.2513
      6  O4        15.0070   19.3960   25.7510 O.2   301  FMN301     -0.2057
      7  C4A       13.7300   18.0310   27.0980 C.2   301  FMN301      0.2700
      8  N5        12.5530   18.5990   26.6760 N.2   301  FMN301     -0.3878
      9  C5A       11.3300   18.0570   27.0350 C.2   301  FMN301      0.1320
     10  C6        10.1660   18.6770   26.5360 C.2   301  FMN301      0.0250
     11  C7         8.9280   18.1310   26.9100 C.2   301  FMN301     -0.0238
     12  C7M        7.7260   18.5290   26.1020 C.3   301  FMN301      0.0308
     13  C8         8.8340   17.0340   27.7880 C.2   301  FMN301     -0.0280
     14  C8M        7.4980   16.2930   27.9320 C.3   301  FMN301      0.0304
     15  C9         9.9940   16.4450   28.2670 C.2   301  FMN301     -0.0041
     16  C9A       11.2520   16.9710   27.9060 C.3   301  FMN301      0.1497
     17  N10       12.4380   16.4080   28.3980 N.pl3 301  FMN301     -0.2691
     18  C10       13.6780   16.9290   27.9520 C.2   301  FMN301      0.2416
     19  C1'       12.4470   15.2420   29.3420 C.3   301  FMN301      0.1294
     20  C2'       11.8450   15.5860   30.7120 C.3   301  FMN301      0.2044
     21  O2'       12.8810   16.0490   31.5450 O.3   301  FMN301     -0.2185
     22  C3'       11.2340   14.2930   31.2670 C.3   301  FMN301      0.2164
     23  O3'       10.1760   13.8630   30.4330 O.3   301  FMN301     -0.2175
     24  C4'       10.6350   14.4020   32.6650 C.3   301  FMN301      0.2147
     25  O4'       11.6920   14.6670   33.5720 O.3   301  FMN301     -0.2176
     26  C5'        9.8590   13.1540   33.1290 C.3   301  FMN301      0.1892
     27  O5'       10.7850   12.0530   33.1120 O.3   301  FMN301     -0.2674
     28  P         10.4630   10.7590   32.2240 P.3   301  FMN301      0.5327
     29  O1P       10.1910   11.2650   30.8310 O.2   301  FMN301     -0.2224
     30  O2P       11.7180    9.8900   32.2700 O.3   301  FMN301     -0.1145
     31  O3P        9.2740   10.0210   32.7810 O.3   301  FMN301     -0.1145
@<TRIPOS>BOND
     1     6     5    2
     2    12    11    1
     3    10    11    2
     4    10     9    1
     5     5     4    2
     6     5     7    1
     7     8     9    2
     8     8     7    2
     9    11    13    1
    10     9    16    1
    11     4     2    2
    12     7    18    1
    13    13    14    1
    14    13    15    2
    15    16    15    1
    16    16    17    1
    17     2     1    2
    18     2     3    2
    19    18     1    2
    20    18    17    1
    21    17    19    1
    22    19    20    1
    23    23    22    1
    24    20    22    1
    25    20    21    1
    26    29    28    2
    27    22    24    1
    28    28    30    1
    29    28    31    1
    30    28    27    1
    31    24    26    1
    32    24    25    1
    33    27    26    1
