@<TRIPOS>MOLECULE
2h0y_MA4_A_1.pdb
 35 37 0 0 0
SMALL
GASTEIGER

@<TRIPOS>ATOM
      1  C1        60.6040   52.8970    2.3310 C.3   400  MA4400      0.2695
      2  C2        61.1640   52.2390    1.0490 C.3   400  MA4400      0.2406
      3  C3        60.7180   50.7780    0.9670 C.3   400  MA4400      0.2198
      4  C4        61.1560   50.0290    2.2220 C.3   400  MA4400      0.2144
      5  C5        60.5890   50.7610    3.4640 C.3   400  MA4400      0.1835
      6  C6        61.0040   50.1290    4.6300 C.3   400  MA4400      0.2142
      7  O2        60.6920   52.9930   -0.0910 O.3   400  MA4400     -0.2149
      8  O3        61.3120   50.2250   -0.2380 O.3   400  MA4400     -0.2174
      9  O5        61.0210   52.1330    3.4930 O.3   400  MA4400     -0.3256
     10  O6        62.4130   50.2680    4.8150 O.3   400  MA4400     -0.2176
     11  O1        59.1940   52.8830    2.2230 O.3   400  MA4400     -0.3257
     12  O4        60.6730   48.6980    2.2100 O.3   400  MA4400     -0.2176
     13  C10       55.9030   55.3120    2.7580 C.3   400  MA4400      0.2695
     14  C20       56.7080   55.5940    1.4760 C.3   400  MA4400      0.2404
     15  C30       57.5330   54.3370    1.2370 C.3   400  MA4400      0.2167
     16  C40       58.4180   54.0960    2.4510 C.3   400  MA4400      0.1804
     17  C50       57.6070   53.9070    3.6920 C.3   400  MA4400      0.1803
     18  C60       58.4320   53.7080    4.9710 C.3   400  MA4400      0.2141
     19  O10       55.1080   56.4420    3.0550 O.3   400  MA4400     -0.3286
     20  O20       55.8510   55.8400    0.3740 O.3   400  MA4400     -0.2149
     21  O30       58.3170   54.5370    0.0820 O.3   400  MA4400     -0.2175
     22  O50       56.7760   55.0560    3.8930 O.3   400  MA4400     -0.3257
     23  O60       59.3380   54.8320    5.1300 O.3   400  MA4400     -0.2176
     24  C11       54.0400   56.1230    3.9780 C.3   400  MA4400      0.1449
     25  C21       52.8030   55.8140    3.1740 C.3   400  MA4400      0.0325
     26  C31       51.7610   55.4920    4.2320 C.3   400  MA4400      0.0072
     27  C41       50.3750   55.6200    3.6330 C.3   400  MA4400      0.0258
     28  C51       49.2760   55.4990    4.6490 C.2   400  MA4400     -0.0304
     29  C61       49.2920   54.4810    5.7340 C.2   400  MA4400     -0.0267
     30  C12       48.0990   54.5010    6.6640 C.3   400  MA4400      0.0433
     31  C22       48.3110   55.5320    7.7890 C.2   400  MA4400     -0.0267
     32  C32       47.3130   55.4490    8.9710 C.2   400  MA4400     -0.0304
     33  C42       46.4490   54.1940    9.0530 C.3   400  MA4400      0.0257
     34  C52       47.1670   52.9560    8.5190 C.3   400  MA4400      0.0053
     35  C62       47.8290   53.1020    7.1540 C.3   400  MA4400      0.0090
@<TRIPOS>BOND
     1     8     3    1
     2     7     2    1
     3    21    15    1
     4    20    14    1
     5     3     2    1
     6     3     4    1
     7     2     1    1
     8    15    14    1
     9    15    16    1
    10    14    13    1
    11    12     4    1
    12     4     5    1
    13    11     1    1
    14    11    16    1
    15     1     9    1
    16    16    17    1
    17    13    19    1
    18    13    22    1
    19    19    24    1
    20    25    24    1
    21    25    26    1
    22     5     9    1
    23     5     6    1
    24    27    26    1
    25    27    28    1
    26    17    22    1
    27    17    18    1
    28     6    10    1
    29    28    29    2
    30    18    23    1
    31    29    30    1
    32    30    35    1
    33    30    31    1
    34    35    34    1
    35    31    32    2
    36    34    33    1
    37    32    33    1
