@<TRIPOS>MOLECULE
2h0y_TSL_A_1.pdb
 15 14 0 0 0
SMALL
GASTEIGER

@<TRIPOS>ATOM
      1  C14       29.7670   66.3530    1.9020 C.3   501  TSL501      0.0259
      2  C2        31.1600   66.3350    2.5360 C.3   501  TSL501      0.1391
      3  S1        32.3990   66.0470    1.2190 S.3   501  TSL501     -0.0192
      4  O12       32.1650   64.5930    0.9290 O.3   501  TSL501     -0.0782
      5  O13       33.6850   66.1700    1.9810 O.3   501  TSL501     -0.0782
      6  C20       31.4480   67.6880    3.1920 C.3   501  TSL501      0.0259
      7  C3        31.2740   65.1930    3.5520 C.3   501  TSL501      0.2250
      8  C9        30.2720   65.3450    4.7010 C.2   501  TSL501      0.3882
      9  O11       30.4470   66.1900    5.5790 O.co2 501  TSL501     -0.2434
     10  O10       29.2800   64.6190    4.7570 O.co2 501  TSL501     -0.2434
     11  N4        32.6420   65.1540    4.0930 N.2   501  TSL501     -0.2619
     12  C5        33.0770   64.0630    4.7200 C.2   501  TSL501      0.0757
     13  C6        32.4230   62.8380    4.7900 C.3   501  TSL501      0.1186
     14  C7        32.9030   61.8520    5.6450 C.2   501  TSL501      0.2138
     15  O8        33.8760   62.0850    6.3600 O.2   501  TSL501     -0.2879
@<TRIPOS>BOND
     1     4     3    1
     2     3     5    1
     3     3     2    1
     4     1     2    1
     5     2     6    1
     6     2     7    1
     7     7    11    1
     8     7     8    1
     9    11    12    2
    10     8    10   ar
    11     8     9   ar
    12    12    13    1
    13    13    14    1
    14    14    15    2
