@<TRIPOS>MOLECULE
2h10_TBE_A_1.pdb
 20 20 0 0 0
SMALL
GASTEIGER

@<TRIPOS>ATOM
      1  S1        33.4560   66.9430    1.3560 S.3   501  TBE501     -0.0173
      2  O12       33.9720   67.4400    0.0370 O.3   501  TBE501     -0.0781
      3  O13       34.5680   67.0480    2.3580 O.3   501  TBE501     -0.0781
      4  C2        33.4220   65.1420    1.0270 C.3   501  TBE501      0.1615
      5  C3        32.9900   64.4060    2.3130 C.3   501  TBE501      0.2269
      6  N4        33.9910   64.6230    3.3680 N.2   501  TBE501     -0.2618
      7  C5        33.9730   63.8400    4.4450 C.2   501  TBE501      0.0757
      8  C20       32.4370   64.8550   -0.1100 C.3   501  TBE501      0.0280
      9  C14       34.8290   64.6950    0.6180 C.3   501  TBE501      0.1532
     10  N15       34.8920   63.2410    0.4060 N.ar  501  TBE501     -0.2284
     11  N16       35.3110   62.3290    1.3230 N.ar  501  TBE501     -0.0637
     12  N17       35.2320   61.2140    0.8050 N.ar  501  TBE501     -0.1271
     13  C18       34.7700   61.3180   -0.4400 C.ar  501  TBE501      0.1441
     14  C19       34.5490   62.6020   -0.7060 C.ar  501  TBE501      0.1193
     15  C9        31.6350   64.9080    2.8190 C.2   501  TBE501      0.3883
     16  O10       31.5810   65.7550    3.7090 O.co2 501  TBE501     -0.2434
     17  O11       30.5880   64.4600    2.3530 O.co2 501  TBE501     -0.2434
     18  C6        33.0680   62.6410    4.6630 C.3   501  TBE501      0.1186
     19  C7        33.3660   61.7410    5.6790 C.2   501  TBE501      0.2138
     20  O8        34.3600   61.9330    6.3790 O.2   501  TBE501     -0.2879
@<TRIPOS>BOND
     1    14    13   ar
     2    14    10   ar
     3    13    12   ar
     4     8     4    1
     5     2     1    1
     6    10     9    1
     7    10    11   ar
     8     9     4    1
     9    12    11   ar
    10     4     1    1
    11     4     5    1
    12     1     3    1
    13     5    15    1
    14     5     6    1
    15    17    15   ar
    16    15    16   ar
    17     6     7    2
    18     7    18    1
    19    18    19    1
    20    19    20    2
