@<TRIPOS>MOLECULE
2h10_MA4_A_1.pdb
 35 37 0 0 0
SMALL
GASTEIGER

@<TRIPOS>ATOM
      1  C1        60.6170   52.7960    2.2310 C.3   400  MA4400      0.2695
      2  C2        61.1790   52.1080    0.9580 C.3   400  MA4400      0.2406
      3  C3        60.7690   50.6590    0.9000 C.3   400  MA4400      0.2198
      4  C4        61.1640   49.9460    2.1620 C.3   400  MA4400      0.2144
      5  C5        60.5790   50.6960    3.3890 C.3   400  MA4400      0.1835
      6  C6        61.0130   50.0280    4.6580 C.3   400  MA4400      0.2142
      7  O2        60.6930   52.8270   -0.2050 O.3   400  MA4400     -0.2149
      8  O3        61.3990   50.0950   -0.2790 O.3   400  MA4400     -0.2174
      9  O5        61.0260   52.0570    3.4090 O.3   400  MA4400     -0.3256
     10  O6        62.4260   50.1440    4.8060 O.3   400  MA4400     -0.2176
     11  O1        59.2200   52.7890    2.1290 O.3   400  MA4400     -0.3257
     12  O4        60.6680   48.6230    2.1500 O.3   400  MA4400     -0.2176
     13  C10       55.9240   55.1960    2.6740 C.3   400  MA4400      0.2695
     14  C20       56.7390   55.5030    1.4110 C.3   400  MA4400      0.2404
     15  C30       57.5800   54.2530    1.1600 C.3   400  MA4400      0.2167
     16  C40       58.4500   54.0030    2.3710 C.3   400  MA4400      0.1804
     17  C50       57.6310   53.7950    3.5960 C.3   400  MA4400      0.1803
     18  C60       58.4600   53.6010    4.8750 C.3   400  MA4400      0.2141
     19  O10       55.1160   56.3150    2.9820 O.3   400  MA4400     -0.3286
     20  O20       55.8910   55.7500    0.3040 O.3   400  MA4400     -0.2149
     21  O30       58.3840   54.4790    0.0220 O.3   400  MA4400     -0.2175
     22  O50       56.7940   54.9380    3.8030 O.3   400  MA4400     -0.3257
     23  O60       59.3080   54.7800    5.0570 O.3   400  MA4400     -0.2176
     24  C11       54.0740   55.9830    3.9310 C.3   400  MA4400      0.1449
     25  C21       52.8270   55.6680    3.1360 C.3   400  MA4400      0.0325
     26  C31       51.7830   55.3340    4.1810 C.3   400  MA4400      0.0072
     27  C41       50.4060   55.6340    3.6170 C.3   400  MA4400      0.0258
     28  C51       49.3090   55.4710    4.6310 C.2   400  MA4400     -0.0301
     29  C61       49.3720   54.4400    5.6990 C.2   400  MA4400     -0.0223
     30  C12       48.1990   54.3990    6.6450 C.3   400  MA4400      0.0648
     31  C22       48.4670   55.3390    7.8370 C.2   400  MA4400     -0.0219
     32  C32       47.7110   55.0190    9.1510 C.2   400  MA4400     -0.0254
     33  C42       46.7050   53.8880    9.0910 C.3   400  MA4400      0.0514
     34  C52       47.2640   52.6770    8.3600 C.2   400  MA4400     -0.0254
     35  C62       47.9250   52.9550    7.0170 C.2   400  MA4400     -0.0219
@<TRIPOS>BOND
     1     8     3    1
     2     7     2    1
     3    21    15    1
     4    20    14    1
     5     3     2    1
     6     3     4    1
     7     2     1    1
     8    15    14    1
     9    15    16    1
    10    14    13    1
    11    11     1    1
    12    11    16    1
    13    12     4    1
    14     4     5    1
    15     1     9    1
    16    16    17    1
    17    13    19    1
    18    13    22    1
    19    19    24    1
    20    25    24    1
    21    25    26    1
    22     5     9    1
    23     5     6    1
    24    17    22    1
    25    17    18    1
    26    27    26    1
    27    27    28    1
    28    28    29    2
    29     6    10    1
    30    18    23    1
    31    29    30    1
    32    30    35    1
    33    30    31    1
    34    35    34    2
    35    31    32    2
    36    34    33    1
    37    33    32    1
