@<TRIPOS>MOLECULE
2h11_SAH_A_1.pdb
 26 28 0 0 0
SMALL
GASTEIGER

@<TRIPOS>ATOM
      1  N         63.2010   30.3260   88.4900 N.3   300  SAH300     -0.1159
      2  CA        63.7940   31.4820   89.2910 C.3   300  SAH300      0.2168
      3  CB        63.5940   32.7900   88.5820 C.2   300  SAH300      0.0105
      4  CG        64.1890   33.1610   87.2740 C.2   300  SAH300      0.0284
      5  SD        63.6780   34.6000   86.3310 S.3   300  SAH300     -0.1108
      6  C         62.9450   31.7980   90.5800 C.2   300  SAH300      0.3860
      7  O         61.8650   31.1760   90.7860 O.co2 300  SAH300     -0.2437
      8  OXT       63.4870   32.7330   91.3270 O.co2 300  SAH300     -0.2437
      9  C5'       64.0320   33.7500   84.8120 C.3   300  SAH300      0.0945
     10  C4'       65.5440   33.2230   84.7250 C.3   300  SAH300      0.1634
     11  O4'       65.6310   32.7250   83.3980 O.3   300  SAH300     -0.3152
     12  C3'       66.5960   34.2900   84.8120 C.3   300  SAH300      0.2168
     13  O3'       67.5260   33.9720   85.8390 O.3   300  SAH300     -0.2175
     14  C2'       67.2680   34.3080   83.3920 C.3   300  SAH300      0.2569
     15  O2'       68.6370   34.6190   83.5010 O.3   300  SAH300     -0.2130
     16  C1'       67.0100   32.8940   82.8530 C.3   300  SAH300      0.3185
     17  N9        66.8340   32.6690   81.5510 N.pl3 300  SAH300     -0.1439
     18  C8        66.1210   33.4220   80.6480 C.3   300  SAH300      0.3377
     19  N7        66.0520   32.9430   79.4640 N.2   300  SAH300     -0.2095
     20  C5        66.7760   31.7330   79.5300 C.2   300  SAH300      0.2526
     21  C6        67.0380   30.6990   78.5550 C.2   300  SAH300      0.4393
     22  N6        66.6090   30.7690   77.2910 N.pl3 300  SAH300      0.2180
     23  N1        67.7460   29.6090   78.9890 N.2   300  SAH300      0.0021
     24  C2        68.2250   29.4940   80.2510 C.3   300  SAH300      0.5254
     25  N3        68.0150   30.4810   81.1760 N.2   300  SAH300     -0.0055
     26  C4        67.2830   31.5560   80.7870 C.2   300  SAH300      0.3518
@<TRIPOS>BOND
     1    22    21    1
     2    21    23    2
     3    21    20    1
     4    23    24    1
     5    19    20    2
     6    19    18    1
     7    20    26    1
     8    24    25    1
     9    18    17    1
    10    26    25    2
    11    26    17    1
    12    17    16    1
    13    16    14    1
    14    16    11    1
    15    14    15    1
    16    14    12    1
    17    11    10    1
    18    10    12    1
    19    10     9    1
    20    12    13    1
    21     9     5    1
    22     5     4    1
    23     4     3    2
    24     1     2    1
    25     3     2    1
    26     2     6    1
    27     6     7   ar
    28     6     8   ar
