@<TRIPOS>MOLECULE
2h13_III_B_1.pdb
 38 37 0 0 0
SMALL
GASTEIGER

@<TRIPOS>ATOM
      1  N        -11.2080  -29.5380   -7.6050 N.3     1  ALA1       -0.1231
      2  CA       -11.7120  -28.1300   -7.6950 C.3     1  ALA1        0.1694
      3  C        -13.2390  -28.0620   -7.5470 C.2     1  ALA1        0.2592
      4  O        -13.9070  -29.0970   -7.6000 O.2     1  ALA1       -0.2718
      5  CB       -11.3150  -27.5110   -9.0160 C.3     1  ALA1        0.0304
      6  N        -13.7610  -26.8450   -7.3970 N.am    2  ARG2       -0.1966
      7  CA       -15.1750  -26.5820   -7.1780 C.3     2  ARG2        0.1729
      8  C        -16.0810  -27.2910   -8.1750 C.2     2  ARG2        0.2617
      9  O        -17.2710  -27.5150   -7.9390 O.2     2  ARG2       -0.2715
     10  CB       -15.3930  -25.0500   -7.3420 C.3     2  ARG2        0.0348
     11  CG       -16.7820  -24.5270   -7.0850 C.3     2  ARG2        0.0492
     12  CD       -16.8290  -23.0250   -7.2990 C.3     2  ARG2        0.2205
     13  NE       -15.9160  -22.3160   -6.3900 N.pl3   2  ARG2       -0.0865
     14  CZ       -16.3030  -21.7690   -5.2310 C.cat   2  ARG2        0.5346
     15  NH1      -17.6010  -21.8790   -4.8270 N.pl3   2  ARG2        0.1354
     16  NH2      -15.4300  -21.1220   -4.4510 N.pl3   2  ARG2        0.1354
     17  N        -15.5290  -27.5420   -9.3510 N.am    3  THR3       -0.1937
     18  CA       -16.3170  -28.1160  -10.4540 C.3     3  THR3        0.2028
     19  C        -16.5290  -29.6190  -10.3350 C.2     3  THR3        0.2642
     20  O        -17.2110  -30.2120  -11.1920 O.2     3  THR3       -0.2714
     21  CB       -15.6250  -27.7550  -11.7560 C.3     3  THR3        0.1808
     22  OG1      -14.2820  -28.2010  -11.6650 O.3     3  THR3       -0.2208
     23  CG2      -15.6480  -26.2560  -11.9560 C.3     3  THR3        0.0379
     24  N        -16.0070  -30.1950   -9.2420 N.am    4  LYS4       -0.1963
     25  CA       -16.2640  -31.5950   -8.8440 C.3     4  LYS4        0.1728
     26  CB       -14.9450  -32.3860   -8.8620 C.3     4  LYS4        0.0311
     27  CG       -14.4050  -32.5880  -10.2370 C.3     4  LYS4        0.0023
     28  C        -16.8850  -31.7070   -7.4330 C.2     4  LYS4        0.2616
     29  O        -16.9150  -30.7220   -6.6760 O.2     4  LYS4       -0.2715
     30  N        -17.3670  -32.9210   -7.1560 N.am    5  GLN5       -0.1977
     31  CA       -17.6590  -33.5580   -5.8410 C.3     5  GLN5        0.1601
     32  C        -19.1510  -33.5530   -5.4730 C.2     5  GLN5        0.2287
     33  O        -19.9890  -33.7900   -6.3650 O.2     5  GLN5       -0.2864
     34  CB       -16.6820  -33.1930   -4.6860 C.3     5  GLN5        0.0394
     35  CG       -17.1990  -32.1820   -3.6580 C.3     5  GLN5        0.0908
     36  CD       -17.1090  -32.6620   -2.2000 C.2     5  GLN5        0.2608
     37  OE1      -17.4610  -33.8020   -1.8580 O.2     5  GLN5       -0.2717
     38  NE2      -16.6700  -31.7630   -1.3250 N.am    5  GLN5       -0.0878
@<TRIPOS>BOND
     1    23    21    1
     2    21    22    1
     3    21    18    1
     4    20    19    2
     5    18    19    1
     6    18    17    1
     7    19    24   am
     8    27    26    1
     9    17     8   am
    10    24    25    1
    11     5     2    1
    12    26    25    1
    13    25    28    1
    14     8     9    2
    15     8     7    1
    16     2     1    1
    17     2     3    1
    18     4     3    2
    19     3     6   am
    20    28    30   am
    21    28    29    2
    22     6     7    1
    23    10     7    1
    24    10    11    1
    25    12    11    1
    26    12    13    1
    27    30    31    1
    28    13    14    2
    29    33    32    2
    30    31    32    1
    31    31    34    1
    32    14    15    1
    33    14    16    1
    34    34    35    1
    35    35    36    1
    36    36    37    2
    37    36    38   am
