@<TRIPOS>MOLECULE
2h15_B19_A_1.pdb
 22 24 0 0 0
SMALL
GASTEIGER

@<TRIPOS>ATOM
      1  C11       -5.9730    6.2820   13.1580 C.3   300  B19300      0.0613
      2  C10       -4.7800    5.4260   12.7050 C.3   300  B19300      0.1900
      3  C12       -3.6980    6.2740   12.0100 C.3   300  B19300      0.0613
      4  O3        -4.2050    4.7510   13.8330 O.3   300  B19300     -0.3109
      5  O4        -5.2540    4.4350   11.8230 O.3   300  B19300     -0.3291
      6  C3        -5.3600    3.1990   12.5460 C.3   300  B19300      0.1996
      7  C4        -5.0790    2.1240   11.4660 C.3   300  B19300      0.1791
      8  O5        -4.9300    0.7730   11.9800 O.3   300  B19300     -0.3315
      9  C7        -4.1180    0.1070   11.0170 C.3   300  B19300      0.1875
     10  C8        -4.9860   -0.6930   10.0430 C.3   300  B19300      0.0612
     11  C9        -3.1520   -0.8040   11.7480 C.3   300  B19300      0.0612
     12  O6        -3.3680    1.1240   10.2760 O.3   300  B19300     -0.3316
     13  C5        -3.7350    2.3980   10.8030 C.3   300  B19300      0.1768
     14  C6        -2.6520    2.8460   11.8040 C.3   300  B19300      0.1768
     15  O2        -3.0240    2.8230   13.2180 O.3   300  B19300     -0.3283
     16  C2        -4.3090    3.3770   13.6260 C.3   300  B19300      0.2351
     17  C1        -4.8130    2.9000   14.9690 C.3   300  B19300      0.1753
     18  N2        -4.5530    1.4760   15.0850 N.3   300  B19300     -0.0588
     19  S1        -5.3700    0.8250   16.3620 S.O2  300  B19300      0.1466
     20  O7        -4.7400    1.1670   17.6670 O.2   300  B19300     -0.1371
     21  O8        -6.7990    1.2430   16.4470 O.2   300  B19300     -0.1371
     22  N1        -5.1920   -0.7630   16.1050 N.3   300  B19300      0.0528
@<TRIPOS>BOND
     1    10     9    1
     2    12    13    1
     3    12     9    1
     4    13     7    1
     5    13    14    1
     6     9    11    1
     7     9     8    1
     8     7     8    1
     9     7     6    1
    10    14    15    1
    11     5     6    1
    12     5     2    1
    13     3     2    1
    14     6    16    1
    15     2     1    1
    16     2     4    1
    17    15    16    1
    18    16     4    1
    19    16    17    1
    20    17    18    1
    21    18    19    1
    22    22    19    1
    23    19    21    2
    24    19    20    2
