@<TRIPOS>MOLECULE
2h16_GDP_A_1.pdb
 28 30 0 0 0
SMALL
GASTEIGER

@<TRIPOS>ATOM
      1  PB       -40.4340    9.4500   13.4460 P.3   301  GDP301      0.5373
      2  O1B      -39.9820    8.0620   13.1060 O.2   301  GDP301     -0.2221
      3  O2B      -41.7500    9.4620   14.1840 O.3   301  GDP301     -0.1143
      4  O3B      -39.3800   10.1380   14.2460 O.3   301  GDP301     -0.1143
      5  O3A      -40.6060   10.4260   12.1770 O.3   301  GDP301     -0.2261
      6  PA       -40.7200   10.0320   10.6110 P.3   301  GDP301      0.2231
      7  O1A      -39.4310    9.4990   10.0530 O.2   301  GDP301     -0.5169
      8  O2A      -41.8530    9.0980   10.4340 O.3   301  GDP301     -0.4370
      9  O5'      -41.0970   11.4610   10.0290 O.3   301  GDP301     -0.3111
     10  C5'      -42.3420   12.0650   10.3840 C.3   301  GDP301      0.1813
     11  C4'      -42.9180   12.8510    9.2030 C.3   301  GDP301      0.1799
     12  O4'      -42.0080   13.8950    8.8940 O.3   301  GDP301     -0.3326
     13  C3'      -43.0690   12.0090    7.9300 C.3   301  GDP301      0.2158
     14  O3'      -44.2650   12.4390    7.2350 O.3   301  GDP301     -0.2175
     15  C2'      -41.8100   12.3470    7.1470 C.3   301  GDP301      0.2310
     16  O2'      -41.9620   12.2040    5.7270 O.3   301  GDP301     -0.2158
     17  C1'      -41.5640   13.7840    7.5390 C.3   301  GDP301      0.2293
     18  N9       -40.1350   14.1970    7.5020 N.pl3 301  GDP301     -0.2354
     19  C8       -39.0460   13.5370    7.9560 C.3   301  GDP301      0.2246
     20  N7       -37.9240   14.2840    7.7420 N.2   301  GDP301     -0.2322
     21  C5       -38.3150   15.4350    7.1740 C.2   301  GDP301      0.2182
     22  C6       -37.6730   16.6410    6.6660 C.1   301  GDP301      0.2372
     23  O6       -36.4550   16.8140    6.7580 O.2   301  GDP301     -0.2069
     24  N1       -38.4450   17.5870    6.1480 N.2   301  GDP301     -0.2485
     25  C2       -39.7840   17.4840    6.0410 C.1   301  GDP301      0.2531
     26  N2       -40.4610   18.5170    5.4790 N.pl3 301  GDP301     -0.0226
     27  N3       -40.4480   16.3890    6.4400 N.2   301  GDP301     -0.3074
     28  C4       -39.7640   15.3620    7.0020 C.2   301  GDP301      0.2300
@<TRIPOS>BOND
     1    26    25    1
     2    16    15    1
     3    25    24    2
     4    25    27    2
     5    24    22    2
     6    27    28    2
     7    22    23    2
     8    22    21    1
     9    28    21    1
    10    28    18    1
    11    15    17    1
    12    15    13    1
    13    21    20    2
    14    14    13    1
    15    18    17    1
    16    18    19    1
    17    17    12    1
    18    20    19    1
    19    13    11    1
    20    12    11    1
    21    11    10    1
    22     9    10    1
    23     9     6    1
    24     7     6    2
    25     8     6    1
    26     6     5    1
    27     5     1    1
    28     2     1    2
    29     1     3    1
    30     1     4    1
