@<TRIPOS>MOLECULE
2h17_GDP_A_1.pdb
 28 30 0 0 0
SMALL
GASTEIGER

@<TRIPOS>ATOM
      1  PB         7.4240   24.3810   22.5930 P.3   201  GDP201      0.5373
      2  O1B        6.6990   25.4360   21.7760 O.3   201  GDP201     -0.1143
      3  O2B        6.7390   24.0300   23.8540 O.3   201  GDP201     -0.1143
      4  O3B        7.7840   23.1530   21.7400 O.2   201  GDP201     -0.2221
      5  O3A        8.8590   24.9690   23.0350 O.3   201  GDP201     -0.2261
      6  PA         9.3710   26.4480   23.1870 P.3   201  GDP201      0.2231
      7  O1A        9.6240   27.0980   21.8610 O.2   201  GDP201     -0.5169
      8  O2A        8.4250   27.2220   24.0920 O.3   201  GDP201     -0.4370
      9  O5'       10.8000   26.2290   23.9120 O.3   201  GDP201     -0.3111
     10  C5'       10.8480   25.7350   25.2310 C.3   201  GDP201      0.1813
     11  C4'       12.0470   26.3280   25.9890 C.3   201  GDP201      0.1799
     12  O4'       13.2650   25.9360   25.3990 O.3   201  GDP201     -0.3326
     13  C3'       12.0380   27.8550   25.9730 C.3   201  GDP201      0.2158
     14  O3'       12.5510   28.2570   27.2590 O.3   201  GDP201     -0.2175
     15  C2'       12.9780   28.2270   24.8300 C.3   201  GDP201      0.2310
     16  O2'       13.6140   29.5250   24.9060 O.3   201  GDP201     -0.2158
     17  C1'       13.9910   27.0950   24.9440 C.3   201  GDP201      0.2293
     18  N9        14.6260   26.7840   23.6650 N.pl3 201  GDP201     -0.2354
     19  C8        14.0540   26.6370   22.4280 C.3   201  GDP201      0.2246
     20  N7        14.9680   26.3190   21.5060 N.2   201  GDP201     -0.2322
     21  C5        16.1470   26.2400   22.1430 C.2   201  GDP201      0.2182
     22  C6        17.5000   25.9320   21.7160 C.1   201  GDP201      0.2372
     23  O6        17.7630   25.6470   20.5470 O.2   201  GDP201     -0.2069
     24  N1        18.4540   25.9520   22.6580 N.2   201  GDP201     -0.2485
     25  C2        18.2020   26.1990   23.9440 C.1   201  GDP201      0.2531
     26  N2        19.2330   26.1950   24.8340 N.pl3 201  GDP201     -0.0226
     27  N3        16.9640   26.4780   24.4660 N.2   201  GDP201     -0.3074
     28  C4        15.9210   26.5210   23.5600 C.2   201  GDP201      0.2300
@<TRIPOS>BOND
     1    23    22    2
     2    20    21    2
     3    20    19    1
     4    22    21    1
     5    22    24    2
     6     4     1    2
     7     2     1    1
     8     7     6    2
     9    21    28    1
    10    19    18    1
    11     1     5    1
    12     1     3    1
    13    24    25    2
    14     5     6    1
    15     6     9    1
    16     6     8    1
    17    28    18    1
    18    28    27    2
    19    18    17    1
    20     9    10    1
    21    25    27    2
    22    25    26    1
    23    15    16    1
    24    15    17    1
    25    15    13    1
    26    17    12    1
    27    10    11    1
    28    12    11    1
    29    13    11    1
    30    13    14    1
