@<TRIPOS>MOLECULE
2h18_GDP_A_1.pdb
 28 30 0 0 0
SMALL
GASTEIGER

@<TRIPOS>ATOM
      1  PB       -14.4900    1.1310   49.8220 P.3   201  GDP201      0.5373
      2  O1B      -13.9510    1.6330   51.1470 O.3   201  GDP201     -0.1143
      3  O2B      -15.5330    2.0590   49.2290 O.2   201  GDP201     -0.2221
      4  O3B      -15.1080   -0.2370   49.8720 O.3   201  GDP201     -0.1143
      5  O3A      -13.3140    1.0730   48.7060 O.3   201  GDP201     -0.2261
      6  PA       -11.7400    0.9590   48.9360 P.3   201  GDP201      0.2231
      7  O1A      -11.1490    2.2360   49.4620 O.2   201  GDP201     -0.5169
      8  O2A      -11.4740   -0.2260   49.8410 O.3   201  GDP201     -0.4370
      9  O5'      -11.2170    0.7090   47.4430 O.3   201  GDP201     -0.3111
     10  C5'      -11.4720   -0.4890   46.6890 C.3   201  GDP201      0.1813
     11  C4'      -10.3470   -0.6620   45.6670 C.3   201  GDP201      0.1799
     12  O4'      -10.3740    0.4790   44.7980 O.3   201  GDP201     -0.3326
     13  C3'       -8.9520   -0.6860   46.3040 C.3   201  GDP201      0.2158
     14  O3'       -8.1200   -1.6520   45.6550 O.3   201  GDP201     -0.2175
     15  C2'       -8.4180    0.7170   46.0440 C.3   201  GDP201      0.2310
     16  O2'       -7.0000    0.8230   45.9280 O.3   201  GDP201     -0.2158
     17  C1'       -9.0590    1.0350   44.7190 C.3   201  GDP201      0.2293
     18  N9        -9.0940    2.4950   44.4770 N.pl3 201  GDP201     -0.2354
     19  C8        -9.5130    3.4670   45.3230 C.3   201  GDP201      0.2246
     20  N7        -9.4120    4.6820   44.7300 N.2   201  GDP201     -0.2322
     21  C5        -8.9320    4.4800   43.4960 C.2   201  GDP201      0.2182
     22  C6        -8.5900    5.3260   42.3520 C.1   201  GDP201      0.2372
     23  O6        -8.7290    6.5640   42.4230 O.2   201  GDP201     -0.2069
     24  N1        -8.1100    4.7170   41.2440 N.2   201  GDP201     -0.2485
     25  C2        -7.9490    3.3770   41.1390 C.1   201  GDP201      0.2531
     26  N2        -7.4720    2.8480   40.0070 N.pl3 201  GDP201     -0.0226
     27  N3        -8.2450    2.5430   42.1610 N.2   201  GDP201     -0.3074
     28  C4        -8.7310    3.0420   43.3340 C.2   201  GDP201      0.2300
@<TRIPOS>BOND
     1    26    25    1
     2    25    24    2
     3    25    27    2
     4    24    22    2
     5    27    28    2
     6    22    23    2
     7    22    21    1
     8    28    21    1
     9    28    18    1
    10    21    20    2
    11    18    17    1
    12    18    19    1
    13    17    12    1
    14    17    15    1
    15    20    19    1
    16    12    11    1
    17    14    13    1
    18    11    13    1
    19    11    10    1
    20    16    15    1
    21    15    13    1
    22    10     9    1
    23     9     6    1
    24     5     6    1
    25     5     1    1
    26     6     7    2
    27     6     8    1
    28     3     1    2
    29     1     4    1
    30     1     2    1
