@<TRIPOS>MOLECULE
2h1f_ADP_A_1.pdb
 27 29 0 0 0
SMALL
GASTEIGER

@<TRIPOS>ATOM
      1  PB        -3.1280   35.7980   45.7090 P.3   400  ADP400      0.5373
      2  O1B       -2.0080   34.8340   45.8820 O.3   400  ADP400     -0.1143
      3  O2B       -2.7960   37.3240   46.1580 O.3   400  ADP400     -0.1143
      4  O3B       -3.5430   35.7640   44.3140 O.2   400  ADP400     -0.2221
      5  PA        -5.7530   35.8500   46.9090 P.3   400  ADP400      0.2231
      6  O1A       -5.8750   35.7880   48.3450 O.3   400  ADP400     -0.4370
      7  O2A       -6.0990   37.1900   46.4380 O.2   400  ADP400     -0.5169
      8  O3A       -4.3140   35.3740   46.5640 O.3   400  ADP400     -0.2261
      9  O5'       -6.6460   34.7210   46.2670 O.3   400  ADP400     -0.3111
     10  C5'       -6.6090   33.2570   46.4490 C.3   400  ADP400      0.1813
     11  C4'       -6.0720   32.8890   47.8260 C.3   400  ADP400      0.1821
     12  O4'       -6.7940   33.4400   48.9640 O.3   400  ADP400     -0.3135
     13  C3'       -6.1040   31.3990   47.9190 C.3   400  ADP400      0.2184
     14  O3'       -4.8990   30.7940   48.4020 O.3   400  ADP400     -0.2174
     15  C2'       -7.3350   31.1900   48.7520 C.3   400  ADP400      0.2570
     16  O2'       -7.4850   29.9230   49.3850 O.3   400  ADP400     -0.2130
     17  C1'       -7.2960   32.3430   49.7370 C.3   400  ADP400      0.3186
     18  N9        -8.7090   32.5150   50.2700 N.pl3 400  ADP400     -0.1439
     19  C8        -9.7190   33.2100   49.7030 C.3   400  ADP400      0.3377
     20  N7       -10.8030   33.1360   50.4650 N.2   400  ADP400     -0.2095
     21  C5       -10.5230   32.4010   51.5230 C.2   400  ADP400      0.2526
     22  C6       -11.2270   31.9650   52.6760 C.2   400  ADP400      0.4393
     23  N6       -12.5010   32.3260   52.8200 N.pl3 400  ADP400      0.2180
     24  N1       -10.6130   31.1760   53.6320 N.2   400  ADP400      0.0021
     25  C2        -9.3170   30.8030   53.4960 C.3   400  ADP400      0.5254
     26  N3        -8.6250   31.2180   52.3900 N.2   400  ADP400     -0.0055
     27  C4        -9.1610   31.9980   51.4030 C.2   400  ADP400      0.3518
@<TRIPOS>BOND
     1     4     1    2
     2     1     2    1
     3     1     3    1
     4     1     8    1
     5     9    10    1
     6     9     5    1
     7     7     5    2
     8    10    11    1
     9     8     5    1
    10     5     6    1
    11    11    13    1
    12    11    12    1
    13    13    14    1
    14    13    15    1
    15    15    16    1
    16    15    17    1
    17    12    17    1
    18    19    18    1
    19    19    20    1
    20    17    18    1
    21    18    27    1
    22    20    21    2
    23    27    21    1
    24    27    26    2
    25    21    22    1
    26    26    25    1
    27    22    23    1
    28    22    24    2
    29    25    24    1
