@<TRIPOS>MOLECULE
2h1h_AFH_A_1.pdb
 40 43 0 0 0
SMALL
GASTEIGER

@<TRIPOS>ATOM
      1  N9        47.7970   11.7740    5.5690 N.pl3 400  AFH400     -0.1439
      2  C8        48.7210   10.9760    4.9610 C.3   400  AFH400      0.3377
      3  N7        49.7900   10.8550    5.7270 N.2   400  AFH400     -0.2095
      4  C5        49.5980   11.5490    6.8300 C.2   400  AFH400      0.2526
      5  C6        50.3420   11.8310    8.0270 C.2   400  AFH400      0.4393
      6  N6        51.5570   11.2960    8.1560 N.pl3 400  AFH400      0.2180
      7  N1        49.8010   12.6540    9.0520 N.2   400  AFH400      0.0021
      8  C2        48.5450   13.2190    8.9380 C.3   400  AFH400      0.5254
      9  N3        47.8210   12.9570    7.7830 N.2   400  AFH400     -0.0055
     10  C4        48.2890   12.1560    6.7330 C.2   400  AFH400      0.3518
     11  C1D       46.4340   12.1870    5.0590 C.3   400  AFH400      0.3186
     12  C2D       46.5130   12.8580    3.6860 C.3   400  AFH400      0.2570
     13  O2'       46.9870   14.2050    3.6850 O.3   400  AFH400     -0.2130
     14  C3D       45.1210   12.6620    3.1480 C.3   400  AFH400      0.2184
     15  C4D       44.7550   11.3490    3.7080 C.3   400  AFH400      0.1821
     16  O4D       45.5680   11.0810    4.8670 O.3   400  AFH400     -0.3135
     17  O3D       44.1800   13.6530    3.5960 O.3   400  AFH400     -0.2174
     18  C5D       44.8910   10.3490    2.5710 C.3   400  AFH400      0.1813
     19  O5D       43.7070   10.4480    1.6970 O.3   400  AFH400     -0.3112
     20  PA        42.5920    9.3730    1.4840 P.3   400  AFH400      0.2189
     21  O1A       41.9250    9.5910    0.2590 O.2   400  AFH400     -0.5170
     22  O2A       41.5830    9.3630    2.5450 O.3   400  AFH400     -0.4371
     23  O3A       43.4210    8.1020    1.3090 O.3   400  AFH400     -0.2703
     24  PB        43.1770    6.6340    1.2420 P.3   400  AFH400      0.2208
     25  O1B       43.7470    6.0410   -0.0110 O.2   400  AFH400     -0.5170
     26  O2B       43.8140    6.0760    2.3990 O.3   400  AFH400     -0.4371
     27  O3B       41.5710    6.5290    1.4250 O.3   400  AFH400     -0.2856
     28  C1'       40.9510    5.5080    0.9640 C.3   400  AFH400      0.2764
     29  C2'       40.0030    4.8610    1.9840 C.3   400  AFH400      0.2498
     30  C3'       39.3080    3.6550    1.2980 C.3   400  AFH400      0.2220
     31  C4'       38.5180    4.2210    0.0970 C.3   400  AFH400      0.2146
     32  C5'       39.4790    4.9000   -0.9180 C.3   400  AFH400      0.1835
     33  C6'       38.7820    5.5320   -2.1710 C.3   400  AFH400      0.2143
     34  C7'       39.7250    6.2010   -3.2110 C.3   400  AFH400      0.2174
     35  F         40.7400    4.4320    3.1100 F     400  AFH400     -0.2290
     36  O3'       38.4240    3.0200    2.2180 O.3   400  AFH400     -0.2172
     37  O4'       37.8370    3.1970   -0.6050 O.3   400  AFH400     -0.2176
     38  O5'       40.2560    5.9760   -0.2390 O.3   400  AFH400     -0.3253
     39  O6'       37.8260    6.4980   -1.7190 O.3   400  AFH400     -0.2176
     40  O7'       41.1230    6.1680   -2.9210 O.3   400  AFH400     -0.2175
@<TRIPOS>BOND
     1    34    40    1
     2    34    33    1
     3    33    39    1
     4    33    32    1
     5    32    38    1
     6    32    31    1
     7    37    31    1
     8    38    28    1
     9    25    24    2
    10    31    30    1
    11    21    20    2
    12    28    27    1
    13    28    29    1
    14    24    23    1
    15    24    27    1
    16    24    26    1
    17    30    29    1
    18    30    36    1
    19    23    20    1
    20    20    19    1
    21    20    22    1
    22    19    18    1
    23    29    35    1
    24    18    15    1
    25    14    17    1
    26    14    12    1
    27    14    15    1
    28    13    12    1
    29    12    11    1
    30    15    16    1
    31    16    11    1
    32     2     1    1
    33     2     3    1
    34    11     1    1
    35     1    10    1
    36     3     4    2
    37    10     4    1
    38    10     9    2
    39     4     5    1
    40     9     8    1
    41     5     6    1
    42     5     7    2
    43     8     7    1
