@<TRIPOS>MOLECULE
2h1u_III_P_1.pdb
 14 13 0 0 0
SMALL
GASTEIGER

@<TRIPOS>ATOM
      1  N         -9.1410   21.6180   37.2680 N.3     1  MET1       -0.1230
      2  CA        -9.5480   22.7440   36.3820 C.3     1  MET1        0.1702
      3  C         -8.4960   23.8590   36.1580 C.2     1  MET1        0.2592
      4  O         -8.7340   24.9680   36.6470 O.2     1  MET1       -0.2718
      5  CB       -10.8530   23.3680   36.9180 C.3     1  MET1        0.0409
      6  CG       -10.7840   24.1110   38.2740 C.3     1  MET1        0.0707
      7  SD       -10.2980   25.8460   38.1020 S.3     1  MET1       -0.0821
      8  N         -7.3560   23.6620   35.4600 N.am    2  PHE2       -0.1966
      9  CA        -6.7150   22.4110   34.9780 C.3     2  PHE2        0.1728
     10  C         -6.6360   22.3690   33.4630 C.2     2  PHE2        0.2613
     11  O         -7.2120   21.4800   32.8220 O.2     2  PHE2       -0.2715
     12  CB        -7.3220   21.1280   35.5350 C.3     2  PHE2        0.0334
     13  N         -5.8970   23.3250   32.9010 N.am    3  LEU3       -0.2021
     14  CA        -5.7800   23.4740   31.4490 C.3     3  LEU3        0.1386
@<TRIPOS>BOND
     1    14    13    1
     2    11    10    2
     3    13    10   am
     4    10     9    1
     5     9     8    1
     6     9    12    1
     7     8     3   am
     8     3     2    1
     9     3     4    2
    10     2     5    1
    11     2     1    1
    12     5     6    1
    13     7     6    1
