@<TRIPOS>MOLECULE
2h21_SAM_A_1.pdb
 27 29 0 0 0
SMALL
GASTEIGER

@<TRIPOS>ATOM
      1  N         71.0000  131.5610   50.0280 N.3   801  SAM801     -0.1208
      2  CA        69.6630  131.1270   50.4510 C.3   801  SAM801      0.1952
      3  C         68.7050  131.0350   49.2120 C.2   801  SAM801      0.3819
      4  O         67.4900  131.3030   49.3420 O.co2 801  SAM801     -0.2441
      5  OXT       69.1600  130.6940   48.0980 O.co2 801  SAM801     -0.2441
      6  CB        69.1150  132.0950   51.5350 C.3   801  SAM801      0.0414
      7  CG        69.6760  131.9000   52.9120 C.3   801  SAM801      0.0503
      8  SD        68.8410  131.0100   53.8940 S.3   801  SAM801     -0.1761
      9  CE        68.5900  132.0440   55.3260 C.3   801  SAM801      0.0590
     10  C5'       70.1530  129.9610   54.5510 C.3   801  SAM801      0.0806
     11  C4'       70.6800  128.8680   53.6270 C.3   801  SAM801      0.1622
     12  O4'       71.4840  129.4410   52.5590 O.3   801  SAM801     -0.3153
     13  C3'       71.6030  127.8680   54.2940 C.3   801  SAM801      0.2168
     14  O3'       70.9070  126.8090   54.9350 O.3   801  SAM801     -0.2175
     15  C2'       72.4740  127.4060   53.1660 C.3   801  SAM801      0.2569
     16  O2'       71.9420  126.3750   52.3590 O.3   801  SAM801     -0.2130
     17  C1'       72.7080  128.7410   52.4600 C.3   801  SAM801      0.3185
     18  N9        73.8190  129.5430   53.0540 N.pl3 801  SAM801     -0.1439
     19  C8        73.7850  130.7130   53.8080 C.3   801  SAM801      0.3377
     20  N7        74.9620  131.1550   54.1850 N.2   801  SAM801     -0.2095
     21  C5        75.8450  130.2200   53.6450 C.2   801  SAM801      0.2526
     22  C6        77.2680  130.0880   53.6820 C.2   801  SAM801      0.4393
     23  N6        78.0670  130.9540   54.3050 N.pl3 801  SAM801      0.2180
     24  N1        77.8400  129.0220   53.0360 N.2   801  SAM801      0.0021
     25  C2        77.0420  128.1340   52.3920 C.3   801  SAM801      0.5254
     26  N3        75.6930  128.1480   52.2880 N.2   801  SAM801     -0.0055
     27  C4        75.1530  129.2200   52.9440 C.2   801  SAM801      0.3518
@<TRIPOS>BOND
     1     5     3   ar
     2     3     4   ar
     3     3     2    1
     4     1     2    1
     5     2     6    1
     6     6     7    1
     7    26    25    1
     8    26    27    2
     9    16    15    1
    10    25    24    1
    11    17    12    1
    12    17    18    1
    13    17    15    1
    14    12    11    1
    15     7     8    1
    16    27    18    1
    17    27    21    1
    18    24    22    2
    19    18    19    1
    20    15    13    1
    21    11    13    1
    22    11    10    1
    23    21    22    1
    24    21    20    2
    25    22    23    1
    26    19    20    1
    27     8    10    1
    28     8     9    1
    29    13    14    1
