@<TRIPOS>MOLECULE
2h23_M3L_A_1.pdb
 13 12 0 0 0
SMALL
GASTEIGER

@<TRIPOS>ATOM
      1  N         67.8170  134.0680   65.0630 N.3   501  M3L501     -0.1208
      2  CA        68.9750  134.9320   64.7920 C.3   501  M3L501      0.1943
      3  CB        69.0890  135.2000   63.2900 C.3   501  M3L501      0.0305
      4  CG        69.3500  133.9130   62.5050 C.3   501  M3L501     -0.0001
      5  CD        69.4830  134.1940   61.0050 C.3   501  M3L501     -0.0222
      6  CE        68.1550  134.6490   60.3940 C.3   501  M3L501     -0.0733
      7  NZ        68.2680  134.9620   58.9610 N.4   501  M3L501      0.3857
      8  C         68.8220  136.2620   65.5340 C.2   501  M3L501      0.3819
      9  O         67.7390  136.8470   65.5800 O.co2 501  M3L501     -0.2441
     10  OXT       69.5920  136.8830   66.1970 O.co2 501  M3L501     -0.2441
     11  CM1       68.8470  133.8390   58.2090 C.3   501  M3L501     -0.0960
     12  CM2       66.9170  135.2090   58.4380 C.3   501  M3L501     -0.0960
     13  CM3       69.0780  136.1720   58.7570 C.3   501  M3L501     -0.0960
@<TRIPOS>BOND
     1    11     7    1
     2    12     7    1
     3    13     7    1
     4     7     6    1
     5     6     5    1
     6     5     4    1
     7     4     3    1
     8     3     2    1
     9     2     1    1
    10     2     8    1
    11     8     9   ar
    12     8    10   ar
