@<TRIPOS>MOLECULE
2h23_SAH_A_1.pdb
 26 28 0 0 0
SMALL
GASTEIGER

@<TRIPOS>ATOM
      1  N         71.0850  132.9670   50.9430 N.3   800  SAH800     -0.1208
      2  CA        69.7460  132.6790   51.4690 C.3   800  SAH800      0.1952
      3  CB        69.2720  133.8340   52.4020 C.3   800  SAH800      0.0422
      4  CG        69.7350  133.7380   53.8290 C.3   800  SAH800      0.0597
      5  SD        68.7790  132.6310   54.9320 S.3   800  SAH800     -0.1375
      6  C         68.7440  132.4420   50.2910 C.2   800  SAH800      0.3819
      7  O         67.5240  132.3440   50.5380 O.co2 800  SAH800     -0.2441
      8  OXT       69.1720  132.3460   49.1120 O.co2 800  SAH800     -0.2441
      9  C5'       70.1360  131.6860   55.6100 C.3   800  SAH800      0.0899
     10  C4'       70.5640  130.4930   54.7690 C.3   800  SAH800      0.1630
     11  O4'       71.4030  130.9560   53.6680 O.3   800  SAH800     -0.3153
     12  C3'       71.4380  129.4750   55.5010 C.3   800  SAH800      0.2168
     13  O3'       70.7030  128.4750   56.1960 O.3   800  SAH800     -0.2175
     14  C2'       72.3180  128.9210   54.4000 C.3   800  SAH800      0.2569
     15  O2'       71.8060  127.8480   53.6290 O.3   800  SAH800     -0.2130
     16  C1'       72.6100  130.2100   53.6330 C.3   800  SAH800      0.3185
     17  N9        73.7440  130.9960   54.2060 N.pl3 800  SAH800     -0.1439
     18  C8        73.7430  132.1720   54.9520 C.3   800  SAH800      0.3377
     19  N7        74.9280  132.5940   55.3050 N.2   800  SAH800     -0.2095
     20  C5        75.7880  131.6390   54.7610 C.2   800  SAH800      0.2526
     21  C6        77.2140  131.4860   54.7720 C.2   800  SAH800      0.4393
     22  N6        78.0340  132.3370   55.3850 N.pl3 800  SAH800      0.2180
     23  N1        77.7620  130.4060   54.1240 N.2   800  SAH800      0.0021
     24  C2        76.9440  129.5240   53.4930 C.3   800  SAH800      0.5254
     25  N3        75.5870  129.5580   53.4110 N.2   800  SAH800     -0.0055
     26  C4        75.0680  130.6490   54.0730 C.2   800  SAH800      0.3518
@<TRIPOS>BOND
     1     8     6   ar
     2     6     7   ar
     3     6     2    1
     4     1     2    1
     5     2     3    1
     6     3     4    1
     7    25    24    1
     8    25    26    2
     9    24    23    1
    10    15    14    1
    11    16    11    1
    12    16    17    1
    13    16    14    1
    14    11    10    1
    15     4     5    1
    16    26    17    1
    17    26    20    1
    18    23    21    2
    19    17    18    1
    20    14    12    1
    21    20    21    1
    22    20    19    2
    23    10    12    1
    24    10     9    1
    25    21    22    1
    26     5     9    1
    27    18    19    1
    28    12    13    1
