@<TRIPOS>MOLECULE
2h29_DND_A_1.pdb
 44 48 0 0 0
SMALL
GASTEIGER

@<TRIPOS>ATOM
      1  PN        29.4930   32.9550   11.8680 P.3   998  DND998      0.2189
      2  O11       28.1510   33.5220   12.2170 O.2   998  DND998     -0.5170
      3  O12       30.7210   33.5550   12.5020 O.3   998  DND998     -0.4371
      4  O3P       29.5510   31.3840   12.1120 O.3   998  DND998     -0.2703
      5  O5D       29.7680   33.0880   10.3000 O.3   998  DND998     -0.3112
      6  C5D       30.7130   32.2300    9.6420 C.3   998  DND998      0.1813
      7  C4D       31.5350   33.0670    8.6740 C.3   998  DND998      0.1799
      8  O4D       30.6640   33.6840    7.7290 O.3   998  DND998     -0.3327
      9  C3D       32.2730   34.1960    9.3760 C.3   998  DND998      0.2158
     10  O3D       33.5570   34.3530    8.7510 O.3   998  DND998     -0.2175
     11  C2D       31.3990   35.4260    9.1540 C.3   998  DND998      0.2309
     12  O2D       32.1290   36.6640    9.2330 O.3   998  DND998     -0.2158
     13  C1D       30.8940   35.1190    7.7510 C.3   998  DND998      0.2263
     14  N1N       29.6940   35.9030    7.4180 N.pl3 998  DND998     -0.2787
     15  C6N       28.4840   35.5710    7.9070 C.3   998  DND998      0.1195
     16  C5N       27.3560   36.3270    7.5930 C.2   998  DND998     -0.0044
     17  C4N       27.5000   37.4380    6.7430 C.2   998  DND998      0.0050
     18  C3N       28.7630   37.7470    6.2520 C.2   998  DND998      0.0940
     19  C2N       29.8500   36.9710    6.6280 C.2   998  DND998      0.0699
     20  C7N       28.9860   38.9300    5.3580 C.2   998  DND998      0.3890
     21  O7N       30.1450   39.2530    5.0140 O.co2 998  DND998     -0.2405
     22  O8N       28.0020   39.5850    4.9780 O.co2 998  DND998     -0.2405
     23  PA        29.6060   30.5300   13.5010 P.3   998  DND998      0.2189
     24  O13       28.1630   30.4300   13.9160 O.2   998  DND998     -0.5170
     25  O14       30.7410   30.8490   14.3850 O.3   998  DND998     -0.4371
     26  O5B       29.9700   29.0850   12.8540 O.3   998  DND998     -0.3112
     27  C5B       31.2580   28.8670   12.2670 C.3   998  DND998      0.1813
     28  C4B       31.0880   28.2140   10.9060 C.3   998  DND998      0.1821
     29  O4B       30.9900   26.7960   11.1210 O.3   998  DND998     -0.3135
     30  C3B       29.8440   28.6110   10.1150 C.3   998  DND998      0.2184
     31  O3B       30.2140   28.6000    8.7220 O.3   998  DND998     -0.2174
     32  C2B       28.8240   27.5300   10.4800 C.3   998  DND998      0.2570
     33  O2B       27.8420   27.2630    9.4600 O.3   998  DND998     -0.2130
     34  C1B       29.6960   26.3110   10.7120 C.3   998  DND998      0.3186
     35  N9A       29.2330   25.4300   11.8020 N.pl3 998  DND998     -0.1439
     36  C4A       29.0030   24.1420   11.6330 C.2   998  DND998      0.3518
     37  N3A       29.0080   23.3660   10.5060 N.2   998  DND998     -0.0055
     38  C2A       28.6890   22.0730   10.5770 C.3   998  DND998      0.5254
     39  N1A       28.3500   21.5350   11.7550 N.2   998  DND998      0.0021
     40  C6A       28.3230   22.2580   12.8950 C.2   998  DND998      0.4393
     41  C5A       28.6590   23.6130   12.8590 C.2   998  DND998      0.2526
     42  N7A       28.7360   24.6140   13.7820 N.2   998  DND998     -0.2095
     43  C8A       29.1180   25.7370   13.1170 C.3   998  DND998      0.3377
     44  N6A       27.9440   21.6420   14.0400 N.pl3 998  DND998      0.2180
@<TRIPOS>BOND
     1    22    20   ar
     2    21    20   ar
     3    20    18    1
     4    18    19    2
     5    18    17    1
     6    19    14    1
     7    17    16    2
     8    14    13    1
     9    14    15    1
    10    16    15    1
    11     8    13    1
    12     8     7    1
    13    13    11    1
    14     7     9    1
    15     7     6    1
    16    31    30    1
    17    10     9    1
    18    11    12    1
    19    11     9    1
    20    33    32    1
    21     6     5    1
    22    30    32    1
    23    30    28    1
    24     5     1    1
    25    32    34    1
    26    37    38    1
    27    37    36    2
    28    38    39    1
    29    34    29    1
    30    34    35    1
    31    28    29    1
    32    28    27    1
    33    36    35    1
    34    36    41    1
    35    39    40    2
    36    35    43    1
    37     1     4    1
    38     1     2    2
    39     1     3    1
    40     4    23    1
    41    27    26    1
    42    26    23    1
    43    41    40    1
    44    41    42    2
    45    40    44    1
    46    43    42    1
    47    23    24    2
    48    23    25    1
