@<TRIPOS>MOLECULE
2h2a_DND_A_1.pdb
 44 48 0 0 0
SMALL
GASTEIGER

@<TRIPOS>ATOM
      1  PN        11.8390   36.3790   19.7290 P.3   1301  DND1301     0.2189
      2  O11       12.8380   37.4690   19.9090 O.2   1301  DND1301    -0.5170
      3  O12       11.8650   35.2870   20.7410 O.3   1301  DND1301    -0.4371
      4  O3P       12.2620   35.4780   18.4440 O.3   1301  DND1301    -0.2703
      5  O5D       10.4380   37.0470   19.5540 O.3   1301  DND1301    -0.3112
      6  C5D        9.1640   36.3120   19.4050 C.3   1301  DND1301     0.1813
      7  C4D        7.9500   37.2260   19.1720 C.3   1301  DND1301     0.1799
      8  O4D        7.5210   37.8500   20.3950 O.3   1301  DND1301    -0.3327
      9  C3D        8.2540   38.3030   18.2020 C.3   1301  DND1301     0.2158
     10  O3D        7.0980   38.4030   17.3710 O.3   1301  DND1301    -0.2175
     11  C2D        8.5330   39.4900   19.1290 C.3   1301  DND1301     0.2309
     12  O2D        8.3780   40.7360   18.4060 O.3   1301  DND1301    -0.2158
     13  C1D        7.5070   39.2430   20.2500 C.3   1301  DND1301     0.2263
     14  N1N        7.6320   40.1260   21.3650 N.pl3 1301  DND1301    -0.2787
     15  C6N        8.7330   39.6760   22.2040 C.3   1301  DND1301     0.1195
     16  C5N        9.0320   40.4130   23.3670 C.2   1301  DND1301    -0.0044
     17  C4N        8.2260   41.5410   23.6190 C.2   1301  DND1301     0.0050
     18  C3N        7.1580   41.9610   22.7500 C.2   1301  DND1301     0.0940
     19  C2N        6.8390   41.2580   21.6040 C.2   1301  DND1301     0.0699
     20  C7N        6.2950   43.1700   22.9790 C.2   1301  DND1301     0.3890
     21  O7N        5.3660   43.3660   22.0720 O.co2 1301  DND1301    -0.2405
     22  O8N        6.5150   43.8920   23.9120 O.co2 1301  DND1301    -0.2405
     23  PA        13.1440   34.1390   18.0660 P.3   1301  DND1301     0.2189
     24  O13       13.2810   34.2130   16.5850 O.2   1301  DND1301    -0.5170
     25  O14       14.1300   34.3320   19.1390 O.3   1301  DND1301    -0.4371
     26  O5B       12.1090   32.9800   18.5790 O.3   1301  DND1301    -0.3112
     27  C5B       10.9220   32.8150   17.7380 C.3   1301  DND1301     0.1813
     28  C4B        9.8380   32.1630   18.6240 C.3   1301  DND1301     0.1821
     29  O4B       10.1100   30.7490   18.6400 O.3   1301  DND1301    -0.3135
     30  C3B        9.6350   32.5360   20.0810 C.3   1301  DND1301     0.2184
     31  O3B        8.2710   32.4740   20.4570 O.3   1301  DND1301    -0.2174
     32  C2B       10.4930   31.5240   20.8460 C.3   1301  DND1301     0.2570
     33  O2B       10.0890   31.2690   22.1940 O.3   1301  DND1301    -0.2130
     34  C1B       10.3340   30.2840   19.9800 C.3   1301  DND1301     0.3186
     35  N9A       11.4110   29.2670   19.9550 N.pl3 1301  DND1301    -0.1439
     36  C4A       11.2560   27.9750   20.2580 C.2   1301  DND1301     0.3518
     37  N3A       10.2570   27.1990   20.7600 N.2   1301  DND1301    -0.0055
     38  C2A       10.4030   25.8880   21.0560 C.3   1301  DND1301     0.5254
     39  N1A       11.6280   25.3430   20.8230 N.2   1301  DND1301     0.0021
     40  C6A       12.7280   26.0220   20.3220 C.2   1301  DND1301     0.4393
     41  C5A       12.5180   27.4210   20.0270 C.2   1301  DND1301     0.2526
     42  N7A       13.3990   28.3210   19.5420 N.2   1301  DND1301    -0.2095
     43  C8A       12.6910   29.4700   19.4780 C.3   1301  DND1301     0.3377
     44  N6A       13.9300   25.3850   20.1500 N.pl3 1301  DND1301     0.2180
@<TRIPOS>BOND
     1    24    23    2
     2    10     9    1
     3    27    26    1
     4    27    28    1
     5    23     4    1
     6    23    26    1
     7    23    25    1
     8     9    11    1
     9     9     7    1
    10    12    11    1
    11     4     1    1
    12    28    29    1
    13    28    30    1
    14    29    34    1
    15    11    13    1
    16     7     6    1
    17     7     8    1
    18     6     5    1
    19    43    42    1
    20    43    35    1
    21    42    41    2
    22     5     1    1
    23     1     2    2
    24     1     3    1
    25    35    34    1
    26    35    36    1
    27    34    32    1
    28    41    36    1
    29    41    40    1
    30    30    31    1
    31    30    32    1
    32    44    40    1
    33    13     8    1
    34    13    14    1
    35    36    37    2
    36    40    39    2
    37    37    38    1
    38    39    38    1
    39    32    33    1
    40    14    19    1
    41    14    15    1
    42    19    18    2
    43    21    20   ar
    44    15    16    1
    45    18    20    1
    46    18    17    1
    47    20    22   ar
    48    16    17    2
