@<TRIPOS>MOLECULE
2h2e_SA8_A_1.pdb
 27 29 0 0 0
SMALL
GASTEIGER

@<TRIPOS>ATOM
      1  N         70.9100  136.2930   50.9190 N.3   800  SA8800     -0.1208
      2  CA        70.4820  134.9160   51.0490 C.3   800  SA8800      0.1957
      3  C         69.7970  134.4490   49.7500 C.2   800  SA8800      0.3819
      4  O         68.6980  134.9550   49.4230 O.co2 800  SA8800     -0.2441
      5  OXT       70.3700  133.5830   49.0760 O.co2 800  SA8800     -0.2441
      6  CB        69.5080  134.7700   52.2250 C.3   800  SA8800      0.0479
      7  CG        70.0210  135.1870   53.6130 C.3   800  SA8800      0.0743
      8  ND        69.6300  134.2240   54.7820 N.3   800  SA8800     -0.2693
      9  CE        70.1220  134.7460   56.0670 C.3   800  SA8800      0.0897
     10  C5'       70.2120  132.7730   54.6240 C.3   800  SA8800      0.1049
     11  C4'       71.2950  132.4970   53.6080 C.3   800  SA8800      0.1682
     12  O4'       72.4840  133.3220   53.7410 O.3   800  SA8800     -0.3147
     13  C3'       71.7310  131.0400   53.6240 C.3   800  SA8800      0.2173
     14  O3'       71.2460  130.3890   52.4380 O.3   800  SA8800     -0.2175
     15  C2'       73.2450  131.0960   53.7260 C.3   800  SA8800      0.2569
     16  O2'       73.8520  130.0990   52.8650 O.3   800  SA8800     -0.2130
     17  C1'       73.6020  132.5270   53.3230 C.3   800  SA8800      0.3186
     18  N9        74.8750  133.0300   53.9640 N.pl3 800  SA8800     -0.1439
     19  C8        75.0470  133.9780   54.9400 C.3   800  SA8800      0.3377
     20  N7        76.2650  134.2290   55.3160 N.2   800  SA8800     -0.2095
     21  C5        77.0280  133.3600   54.5110 C.2   800  SA8800      0.2526
     22  C6        78.4380  133.0900   54.3860 C.2   800  SA8800      0.4393
     23  N6        79.3640  133.7220   55.1200 N.pl3 800  SA8800      0.2180
     24  N1        78.8540  132.1410   53.4700 N.2   800  SA8800      0.0021
     25  C2        77.9300  131.4920   52.7180 C.3   800  SA8800      0.5254
     26  N3        76.5850  131.6480   52.7350 N.2   800  SA8800     -0.0055
     27  C4        76.1920  132.6130   53.6740 C.2   800  SA8800      0.3518
@<TRIPOS>BOND
     1     5     3   ar
     2     4     3   ar
     3     3     2    1
     4     1     2    1
     5     2     6    1
     6     6     7    1
     7    14    13    1
     8    25    26    1
     9    25    24    1
    10    26    27    2
    11    16    15    1
    12    17    15    1
    13    17    12    1
    14    17    18    1
    15    24    22    2
    16    11    13    1
    17    11    12    1
    18    11    10    1
    19     7     8    1
    20    13    15    1
    21    27    18    1
    22    27    21    1
    23    18    19    1
    24    22    21    1
    25    22    23    1
    26    21    20    2
    27    10     8    1
    28     8     9    1
    29    19    20    1
