@<TRIPOS>MOLECULE
2h2e_LYS_A_1.pdb
 10 9 0 0 0
SMALL
GASTEIGER

@<TRIPOS>ATOM
      1  N         70.1570  135.2840   64.3230 N.3   902  LYS902     -0.1208
      2  CA        70.6350  136.6590   63.9970 C.3   902  LYS902      0.1943
      3  C         69.6840  137.7540   64.5080 C.2   902  LYS902      0.3819
      4  O         68.9460  138.3460   63.6830 O.co2 902  LYS902     -0.2441
      5  CB        70.8300  136.7950   62.4800 C.3   902  LYS902      0.0307
      6  CG        69.7290  136.1700   61.6390 C.3   902  LYS902      0.0036
      7  CD        69.7640  136.7060   60.2250 C.3   902  LYS902      0.0206
      8  CE        68.7740  135.9960   59.3290 C.3   902  LYS902      0.1093
      9  NZ        68.7290  136.6360   57.9910 N.3   902  LYS902     -0.1314
     10  OXT       69.6880  138.0160   65.7350 O.co2 902  LYS902     -0.2441
@<TRIPOS>BOND
     1     9     8    1
     2     8     7    1
     3     7     6    1
     4     6     5    1
     5     5     2    1
     6     4     3   ar
     7     2     1    1
     8     2     3    1
     9     3    10   ar
