@<TRIPOS>MOLECULE
2h2j_SFG_A_1.pdb
 27 29 0 0 0
SMALL
GASTEIGER

@<TRIPOS>ATOM
      1  N         71.0100  132.8580   50.4890 N.3   800  SFG800     -0.1208
      2  CA        70.0900  131.7690   50.7610 C.3   800  SFG800      0.1944
      3  C         69.2700  131.3780   49.5140 C.2   800  SFG800      0.3819
      4  O         68.1230  130.9130   49.6630 O.co2 800  SFG800     -0.2441
      5  OXT       69.7780  131.5600   48.3990 O.co2 800  SFG800     -0.2441
      6  CB        69.1190  132.1230   51.9170 C.3   800  SFG800      0.0321
      7  CG        69.6810  132.6070   53.2630 C.3   800  SFG800      0.0212
      8  CD        69.2630  131.8320   54.5420 C.3   800  SFG800      0.0944
      9  NE        69.8300  132.5760   55.6890 N.3   800  SFG800     -0.1328
     10  C5'       69.8860  130.4090   54.7160 C.3   800  SFG800      0.0514
     11  C4'       70.6990  129.7160   53.6370 C.3   800  SFG800      0.1537
     12  O4'       71.8220  130.4710   53.1520 O.3   800  SFG800     -0.3161
     13  C3'       71.2070  128.3410   54.0850 C.3   800  SFG800      0.2159
     14  O3'       70.5260  127.2840   53.3860 O.3   800  SFG800     -0.2175
     15  C2'       72.6540  128.3140   53.7730 C.3   800  SFG800      0.2569
     16  O2'       72.8760  127.1990   52.8990 O.3   800  SFG800     -0.2130
     17  C1'       72.9830  129.6280   53.0720 C.3   800  SFG800      0.3185
     18  N9        74.1600  130.3030   53.6930 N.pl3 800  SFG800     -0.1439
     19  C8        74.2130  131.3930   54.5270 C.3   800  SFG800      0.3377
     20  N7        75.3850  131.7820   54.9360 N.2   800  SFG800     -0.2095
     21  C5        76.2370  130.8480   54.3040 C.2   800  SFG800      0.2526
     22  C6        77.6570  130.6540   54.3040 C.2   800  SFG800      0.4393
     23  N6        78.4880  131.4400   54.9820 N.pl3 800  SFG800      0.2180
     24  N1        78.1690  129.6150   53.5620 N.2   800  SFG800      0.0021
     25  C2        77.3250  128.8120   52.8710 C.3   800  SFG800      0.5254
     26  N3        75.9780  128.8880   52.7930 N.2   800  SFG800     -0.0055
     27  C4        75.4900  129.9340   53.5450 C.2   800  SFG800      0.3518
@<TRIPOS>BOND
     1     5     3   ar
     2     3     4   ar
     3     3     2    1
     4     1     2    1
     5     2     6    1
     6     6     7    1
     7    26    25    1
     8    26    27    2
     9    25    24    1
    10    16    15    1
    11    17    12    1
    12    17    18    1
    13    17    15    1
    14    12    11    1
    15     7     8    1
    16    14    13    1
    17    27    18    1
    18    27    21    1
    19    24    22    2
    20    11    13    1
    21    11    10    1
    22    18    19    1
    23    15    13    1
    24    21    22    1
    25    21    20    2
    26    22    23    1
    27    19    20    1
    28     8    10    1
    29     8     9    1
