@<TRIPOS>MOLECULE
2h2j_MLZ_A_1.pdb
 11 10 0 0 0
SMALL
GASTEIGER

@<TRIPOS>ATOM
      1  N         69.0330  132.9790   64.4920 N.3   900  MLZ900     -0.1208
      2  CA        70.0680  133.9500   64.1510 C.3   900  MLZ900      0.1943
      3  CB        70.3730  133.8690   62.6450 C.3   900  MLZ900      0.0307
      4  CG        69.1660  134.0350   61.7270 C.3   900  MLZ900      0.0035
      5  CD        69.5690  133.9420   60.2690 C.3   900  MLZ900      0.0189
      6  CE        68.5770  134.6620   59.3700 C.3   900  MLZ900      0.0888
      7  NZ        68.4720  133.9950   58.0440 N.3   900  MLZ900     -0.2165
      8  CM        68.0820  134.9580   56.9810 C.3   900  MLZ900      0.1075
      9  C         69.6700  135.3910   64.5270 C.2   900  MLZ900      0.3819
     10  O         68.5510  135.5870   65.0550 O.co2 900  MLZ900     -0.2441
     11  OXT       70.4900  136.3130   64.2870 O.co2 900  MLZ900     -0.2441
@<TRIPOS>BOND
     1     8     7    1
     2     7     6    1
     3     6     5    1
     4     5     4    1
     5     4     3    1
     6     3     2    1
     7     2     1    1
     8     2     9    1
     9    11     9   ar
    10     9    10   ar
