@<TRIPOS>MOLECULE
2h2q_DU_A_1.pdb
 20 21 0 0 0
SMALL
GASTEIGER

@<TRIPOS>ATOM
      1  OP3      108.2600   20.6600   23.7500 O.2   611  DU611      -0.2224
      2  P        108.0690   20.8990   25.2040 P.3   611  DU611       0.5327
      3  OP1      109.3720   21.3180   25.8490 O.3   611  DU611      -0.1145
      4  OP2      107.5570   19.6410   25.8650 O.3   611  DU611      -0.1145
      5  O5'      106.9920   22.0700   25.4330 O.3   611  DU611      -0.2675
      6  C5'      105.6450   21.8740   25.0710 C.3   611  DU611       0.1858
      7  C4'      104.7400   22.6640   26.0130 C.3   611  DU611       0.1774
      8  O4'      103.5060   22.9450   25.3780 O.3   611  DU611      -0.3339
      9  C3'      104.4110   21.8690   27.2630 C.3   611  DU611       0.1857
     10  O3'      104.3990   22.7270   28.3780 O.3   611  DU611      -0.2203
     11  C2'      103.0160   21.3290   27.0400 C.3   611  DU611       0.0874
     12  C1'      102.4200   22.2820   26.0100 C.3   611  DU611       0.2090
     13  N1       101.5600   21.6030   25.0080 N.am  611  DU611      -0.1790
     14  C2       100.3840   20.9500   25.3800 C.1   611  DU611       0.2844
     15  O2       100.0260   20.8920   26.5600 O.2   611  DU611      -0.1918
     16  N3        99.5960   20.3460   24.4090 N.2   611  DU611      -0.2452
     17  C4        99.9700   20.3870   23.0800 C.1   611  DU611       0.2182
     18  O4        99.2700   19.8460   22.2290 O.2   611  DU611      -0.2085
     19  C5       101.1380   21.0440   22.7060 C.2   611  DU611       0.1242
     20  C6       101.9230   21.6500   23.6830 C.2   611  DU611       0.0928
@<TRIPOS>BOND
     1    18    17    2
     2    19    17    1
     3    19    20    2
     4    17    16    2
     5    20    13    1
     6     1     2    2
     7    16    14    2
     8    13    14   am
     9    13    12    1
    10     6     5    1
    11     6     7    1
    12     2     5    1
    13     2     3    1
    14     2     4    1
    15     8    12    1
    16     8     7    1
    17    14    15    2
    18    12    11    1
    19     7     9    1
    20    11     9    1
    21     9    10    1
