@<TRIPOS>MOLECULE
2h2q_NAP_A_1.pdb
 48 52 0 0 0
SMALL
GASTEIGER

@<TRIPOS>ATOM
      1  PA        50.7300   18.9620   33.1840 P.3   523  NAP523      0.2189
      2  O1A       50.8600   20.4270   33.2950 O.2   523  NAP523     -0.5170
      3  O2A       52.0220   18.2690   33.3800 O.3   523  NAP523     -0.4371
      4  O5B       50.1060   18.5790   31.7570 O.3   523  NAP523     -0.3112
      5  C5B       49.7860   17.2380   31.4700 C.3   523  NAP523      0.1813
      6  C4B       49.2380   17.1860   30.0580 C.3   523  NAP523      0.1820
      7  O4B       50.2850   17.2590   29.1060 O.3   523  NAP523     -0.3136
      8  C3B       48.4940   15.8940   29.7670 C.3   523  NAP523      0.2157
      9  O3B       47.1500   15.9620   30.1840 O.3   523  NAP523     -0.2175
     10  C2B       48.6610   15.7700   28.2670 C.3   523  NAP523      0.2314
     11  O2B       47.7590   16.6120   27.5840 O.3   523  NAP523     -0.2630
     12  C1B       50.0520   16.3520   28.0430 C.3   523  NAP523      0.3158
     13  N9A       51.0310   15.2440   28.0840 N.pl3 523  NAP523     -0.1439
     14  C8A       51.9960   15.0440   29.0410 C.3   523  NAP523      0.3377
     15  N7A       52.6780   13.9150   28.7400 N.2   523  NAP523     -0.2095
     16  C5A       52.1650   13.3840   27.6090 C.2   523  NAP523      0.2526
     17  C6A       52.4890   12.2440   26.8770 C.2   523  NAP523      0.4393
     18  N6A       53.3530   11.3590   27.3690 N.pl3 523  NAP523      0.2180
     19  N1A       51.7720   11.9470   25.7280 N.2   523  NAP523      0.0021
     20  C2A       50.7400   12.7770   25.3180 C.3   523  NAP523      0.5254
     21  N3A       50.4270   13.9060   26.0530 N.2   523  NAP523     -0.0055
     22  C4A       51.1270   14.2080   27.1810 C.2   523  NAP523      0.3518
     23  O3        49.6150   18.4290   34.2060 O.3   523  NAP523     -0.2703
     24  PN        49.9650   18.0050   35.7140 P.3   523  NAP523      0.2189
     25  O1N       48.6980   17.5700   36.3430 O.3   523  NAP523     -0.4371
     26  O2N       51.1230   17.0820   35.6800 O.2   523  NAP523     -0.5170
     27  O5D       50.4390   19.3990   36.3730 O.3   523  NAP523     -0.3112
     28  C5D       49.5840   20.5180   36.4210 C.3   523  NAP523      0.1813
     29  C4D       49.8470   21.3030   37.7010 C.3   523  NAP523      0.1799
     30  O4D       51.2180   21.6570   37.8220 O.3   523  NAP523     -0.3327
     31  C3D       49.0610   22.6060   37.7200 C.3   523  NAP523      0.2158
     32  O3D       48.4970   22.7590   39.0030 O.3   523  NAP523     -0.2175
     33  C2D       50.1200   23.6610   37.4920 C.3   523  NAP523      0.2309
     34  O2D       49.7660   24.9060   38.0460 O.3   523  NAP523     -0.2158
     35  C1D       51.3140   23.0210   38.1840 C.3   523  NAP523      0.2263
     36  N1N       52.6160   23.6050   37.8160 N.pl3 523  NAP523     -0.2787
     37  C2N       53.4270   24.0520   38.8270 C.3   523  NAP523      0.1244
     38  C3N       54.6520   24.6770   38.5840 C.2   523  NAP523      0.0544
     39  C7N       55.5060   25.1530   39.7250 C.2   523  NAP523      0.2818
     40  O7N       56.7480   25.7520   39.4360 O.2   523  NAP523     -0.2670
     41  N7N       55.0880   25.0120   40.9830 N.am  523  NAP523     -0.0839
     42  C4N       55.1380   24.8860   37.1670 C.2   523  NAP523      0.0033
     43  C5N       54.1730   24.3550   36.1440 C.2   523  NAP523      0.0157
     44  C6N       52.9760   23.7460   36.5030 C.2   523  NAP523      0.0633
     45  P2B       46.2840   16.1710   27.1120 P.3   523  NAP523      0.5328
     46  O1X       45.8020   17.1940   26.1170 O.2   523  NAP523     -0.2224
     47  O2X       46.3360   14.8080   26.4600 O.3   523  NAP523     -0.1145
     48  O3X       45.3450   16.1510   28.2950 O.3   523  NAP523     -0.1145
@<TRIPOS>BOND
     1    20    19    1
     2    20    21    1
     3    19    17    2
     4    21    22    2
     5    46    45    2
     6    47    45    1
     7    17    18    1
     8    17    16    1
     9    45    11    1
    10    45    48    1
    11    22    16    1
    12    22    13    1
    13    11    10    1
    14    16    15    2
    15    12    13    1
    16    12    10    1
    17    12     7    1
    18    13    14    1
    19    10     8    1
    20    15    14    1
    21     7     6    1
    22     8     6    1
    23     8     9    1
    24     6     5    1
    25     5     4    1
    26     4     1    1
    27     1     2    2
    28     1     3    1
    29     1    23    1
    30    23    24    1
    31    26    24    2
    32    24    25    1
    33    24    27    1
    34    43    44    2
    35    43    42    1
    36    27    28    1
    37    28    29    1
    38    44    36    1
    39    42    38    2
    40    33    31    1
    41    33    34    1
    42    33    35    1
    43    29    31    1
    44    29    30    1
    45    31    32    1
    46    36    35    1
    47    36    37    1
    48    30    35    1
    49    38    37    1
    50    38    39    1
    51    40    39    2
    52    39    41   am
