@<TRIPOS>MOLECULE
2h39_ADQ_A_1.pdb
 38 41 0 0 0
SMALL
GASTEIGER

@<TRIPOS>ATOM
      1  PB         3.6400   -0.8770  -21.3010 P.3   506  ADQ506      0.2208
      2  O1B        2.7480   -1.6840  -20.3740 O.3   506  ADQ506     -0.4371
      3  O2B        3.0280   -0.6480  -22.6660 O.2   506  ADQ506     -0.5170
      4  O3B        5.0340   -1.5920  -21.6300 O.3   506  ADQ506     -0.2857
      5  PA         3.1760    1.7660  -20.0620 P.3   506  ADQ506      0.2189
      6  O1A        3.3650    3.0370  -20.8860 O.2   506  ADQ506     -0.5170
      7  O2A        3.6700    1.8590  -18.6270 O.3   506  ADQ506     -0.4371
      8  O3A        4.0760    0.5530  -20.6870 O.3   506  ADQ506     -0.2703
      9  O5D        1.6830    1.2430  -20.0270 O.3   506  ADQ506     -0.3112
     10  C5D        0.6200    1.7140  -20.8430 C.3   506  ADQ506      0.1813
     11  C4D       -0.4110    0.6090  -20.7060 C.3   506  ADQ506      0.1821
     12  O4D       -1.6960    1.0700  -21.0740 O.3   506  ADQ506     -0.3135
     13  C3D       -0.1090   -0.5900  -21.6200 C.3   506  ADQ506      0.2184
     14  O3D        0.1950   -1.7210  -20.7900 O.3   506  ADQ506     -0.2174
     15  C2D       -1.3530   -0.8510  -22.4700 C.3   506  ADQ506      0.2570
     16  O2D       -1.7500   -2.2420  -22.4650 O.3   506  ADQ506     -0.2130
     17  C1D       -2.3970   -0.0280  -21.7130 C.3   506  ADQ506      0.3186
     18  N9        -3.4590    0.6050  -22.5300 N.pl3 506  ADQ506     -0.1439
     19  C8        -3.2740    1.2260  -23.7080 C.3   506  ADQ506      0.3377
     20  N7        -4.4680    1.7020  -24.1300 N.2   506  ADQ506     -0.2095
     21  C5        -5.3870    1.3910  -23.1880 C.2   506  ADQ506      0.2526
     22  C6        -6.7670    1.6390  -23.0700 C.2   506  ADQ506      0.4393
     23  N6        -7.4140    2.3060  -24.0460 N.pl3 506  ADQ506      0.2180
     24  N1        -7.4390    1.1970  -21.9750 N.2   506  ADQ506      0.0021
     25  C2        -6.7780    0.5260  -21.0080 C.3   506  ADQ506      0.5254
     26  N3        -5.4540    0.2790  -21.1040 N.2   506  ADQ506     -0.0055
     27  C4        -4.7390    0.6990  -22.1820 C.2   506  ADQ506      0.3518
     28  C1'        6.1950   -1.5120  -20.8070 C.3   506  ADQ506      0.2742
     29  C2'        7.3350   -2.2470  -21.5190 C.3   506  ADQ506      0.2409
     30  C3'        7.1270   -3.7550  -21.6130 C.3   506  ADQ506      0.2198
     31  C4'        7.0620   -4.2890  -20.1930 C.3   506  ADQ506      0.2144
     32  C5'        5.9190   -3.5750  -19.4880 C.3   506  ADQ506      0.1835
     33  C6'        5.7730   -4.0470  -18.0540 C.3   506  ADQ506      0.2142
     34  O2'        7.4360   -1.6980  -22.8080 O.3   506  ADQ506     -0.2149
     35  O3'        8.2420   -4.3530  -22.2890 O.3   506  ADQ506     -0.2174
     36  O4'        6.7930   -5.7040  -20.2230 O.3   506  ADQ506     -0.2176
     37  O5'        5.9970   -2.1200  -19.5340 O.3   506  ADQ506     -0.3254
     38  O6'        6.8830   -3.6350  -17.2520 O.3   506  ADQ506     -0.2176
@<TRIPOS>BOND
     1    20    19    1
     2    20    21    2
     3    23    22    1
     4    19    18    1
     5    21    22    1
     6    21    27    1
     7    22    24    2
     8    34    29    1
     9     3     1    2
    10    18    27    1
    11    18    17    1
    12    15    16    1
    13    15    17    1
    14    15    13    1
    15    35    30    1
    16    27    26    2
    17    24    25    1
    18    17    12    1
    19     4     1    1
    20     4    28    1
    21    13    14    1
    22    13    11    1
    23    30    29    1
    24    30    31    1
    25    29    28    1
    26     1     8    1
    27     1     2    1
    28    26    25    1
    29    12    11    1
    30     6     5    2
    31    10    11    1
    32    10     9    1
    33    28    37    1
    34     8     5    1
    35    36    31    1
    36    31    32    1
    37     5     9    1
    38     5     7    1
    39    37    32    1
    40    32    33    1
    41    33    38    1
