@<TRIPOS>MOLECULE
2h3d_NMN_A_1.pdb
 22 23 0 0 0
SMALL
GASTEIGER

@<TRIPOS>ATOM
      1  O3P       18.8810   -8.8950    8.6010 O.2   3819  NMN3819    -0.2224
      2  P         18.8000   -9.6150    9.9970 P.3   3819  NMN3819     0.5327
      3  O1P       17.8220   -8.9420   10.8570 O.3   3819  NMN3819    -0.1145
      4  O2P       20.1940   -9.6320   10.5060 O.3   3819  NMN3819    -0.1145
      5  O5R       18.2570  -11.0710    9.6590 O.3   3819  NMN3819    -0.2675
      6  C5R       17.1450  -11.2700    8.7060 C.3   3819  NMN3819     0.1859
      7  C4R       17.5410  -12.3260    7.6820 C.3   3819  NMN3819     0.1801
      8  O4R       16.4210  -12.5910    6.7960 O.3   3819  NMN3819    -0.3327
      9  C3R       18.7300  -11.9400    6.7210 C.3   3819  NMN3819     0.2158
     10  O3R       19.6220  -13.0610    6.5340 O.3   3819  NMN3819    -0.2175
     11  C2R       18.0360  -11.5100    5.4650 C.3   3819  NMN3819     0.2309
     12  O2R       18.8440  -11.5900    4.2870 O.3   3819  NMN3819    -0.2158
     13  C1R       16.8450  -12.3860    5.4140 C.3   3819  NMN3819     0.2263
     14  N1        15.7040  -11.7950    4.6410 N.pl3 3819  NMN3819    -0.2787
     15  C2        15.7380  -11.8750    3.2280 C.3   3819  NMN3819     0.1244
     16  C3        14.6970  -11.3340    2.4880 C.2   3819  NMN3819     0.0544
     17  C7        14.7820  -11.4480    0.9530 C.2   3819  NMN3819     0.2818
     18  O7        15.7660  -12.0030    0.5110 O.2   3819  NMN3819    -0.2670
     19  N7        13.8440  -10.9650    0.1780 N.am  3819  NMN3819    -0.0839
     20  C4        13.5380  -10.6740    3.1610 C.2   3819  NMN3819     0.0033
     21  C5        13.5260  -10.6050    4.6120 C.2   3819  NMN3819     0.0157
     22  C6        14.6040  -11.1630    5.3800 C.2   3819  NMN3819     0.0633
@<TRIPOS>BOND
     1    19    17   am
     2    18    17    2
     3    17    16    1
     4    16    20    2
     5    16    15    1
     6    20    21    1
     7    15    14    1
     8    12    11    1
     9    21    22    2
    10    14    22    1
    11    14    13    1
    12    13    11    1
    13    13     8    1
    14    11     9    1
    15    10     9    1
    16     9     7    1
    17     8     7    1
    18     7     6    1
    19     1     2    2
    20     6     5    1
    21     5     2    1
    22     2     4    1
    23     2     3    1
