@<TRIPOS>MOLECULE
2h3e_6PR_A_1.pdb
 16 15 0 0 0
SMALL
GASTEIGER

@<TRIPOS>ATOM
      1  OAH       46.3650   27.5090   15.7100 O.3   331  6PR331     -0.3568
      2  PAP       45.2990   28.7120   15.6080 P.3   331  6PR331      0.1264
      3  OAG       45.2170   29.3690   17.0750 O.3   331  6PR331     -0.3568
      4  OAE       45.6720   29.7000   14.5710 O.2   331  6PR331     -0.4596
      5  CAJ       43.7010   27.9190   15.3050 C.3   331  6PR331      0.1454
      6  CAN       42.5240   28.8330   15.6540 C.2   331  6PR331      0.2492
      7  OAD       42.2610   29.8150   14.9610 O.2   331  6PR331     -0.2728
      8  N         41.8510   28.4790   16.7460 N.am  331  6PR331     -0.1967
      9  CA        40.6770   29.2100   17.2500 C.3   331  6PR331      0.1856
     10  CB        39.9900   28.3940   18.3500 C.3   331  6PR331      0.1451
     11  CG        40.8730   28.1250   19.5740 C.2   331  6PR331      0.3671
     12  OD2       41.8860   28.8400   19.7340 O.co2 331  6PR331     -0.2456
     13  OD1       40.5010   27.2120   20.3410 O.co2 331  6PR331     -0.2456
     14  C         41.0600   30.5980   17.7720 C.2   331  6PR331      0.2811
     15  O         42.2270   30.9840   17.7450 O.2   331  6PR331     -0.2698
     16  NAA       40.0510   31.3230   18.2460 N.am  331  6PR331     -0.0863
@<TRIPOS>BOND
     1     4     2    2
     2     7     6    2
     3     5     2    1
     4     5     6    1
     5     2     1    1
     6     2     3    1
     7     6     8   am
     8     8     9    1
     9     9    14    1
    10     9    10    1
    11    15    14    2
    12    14    16   am
    13    10    11    1
    14    11    12   ar
    15    11    13   ar
