@<TRIPOS>MOLECULE
2h3h_BGC_A_1.pdb
 12 12 0 0 0
SMALL
GASTEIGER

@<TRIPOS>ATOM
      1  C2        -2.4510    0.4410   51.4320 C.3   1500  BGC1500     0.2434
      2  C3        -2.5150   -1.0850   51.5790 C.3   1500  BGC1500     0.2199
      3  C4        -2.5450   -1.8080   50.2140 C.3   1500  BGC1500     0.2144
      4  C5        -1.3260   -1.2870   49.4570 C.3   1500  BGC1500     0.1836
      5  C6        -1.0850   -1.9940   48.1130 C.3   1500  BGC1500     0.2142
      6  C1        -1.4320    0.8680   50.3710 C.3   1500  BGC1500     0.3024
      7  O1        -1.6220    2.2000   49.9910 O.3   1500  BGC1500    -0.1869
      8  O2        -2.1920    1.1270   52.6770 O.3   1500  BGC1500    -0.2148
      9  O3        -3.5980   -1.4280   52.4260 O.3   1500  BGC1500    -0.2174
     10  O4        -2.5750   -3.2270   50.4030 O.3   1500  BGC1500    -0.2176
     11  O5        -1.5580    0.0890   49.2070 O.3   1500  BGC1500    -0.3236
     12  O6        -2.2510   -1.9560   47.3130 O.3   1500  BGC1500    -0.2176
@<TRIPOS>BOND
     1    12     5    1
     2     5     4    1
     3    11     4    1
     4    11     6    1
     5     4     3    1
     6     7     6    1
     7     3    10    1
     8     3     2    1
     9     6     1    1
    10     1     2    1
    11     1     8    1
    12     2     9    1
