@<TRIPOS>MOLECULE
2h3p_COA_A_1.pdb
 48 50 0 0 0
SMALL
GASTEIGER

@<TRIPOS>ATOM
      1  N1A       79.4490    1.6810  -12.2540 N.2   1502  COA1502     0.0021
      2  C2A       78.9920    0.5210  -11.7700 C.3   1502  COA1502     0.5254
      3  N3A       78.1090    0.5010  -10.7660 N.2   1502  COA1502    -0.0055
      4  C4A       77.6250    1.6550  -10.2450 C.2   1502  COA1502     0.3518
      5  C5A       78.0890    2.8690  -10.7170 C.2   1502  COA1502     0.2526
      6  C6A       79.0020    2.8630  -11.7690 C.2   1502  COA1502     0.4393
      7  N6A       79.4370    4.0060  -12.2930 N.pl3 1502  COA1502     0.2180
      8  N7A       77.4670    3.8310  -10.0460 N.2   1502  COA1502    -0.2095
      9  C8A       76.6550    3.2520   -9.1520 C.3   1502  COA1502     0.3377
     10  N9A       76.7580    1.9160   -9.2710 N.pl3 1502  COA1502    -0.1439
     11  C1B       75.9810    0.8940   -8.5080 C.3   1502  COA1502     0.3185
     12  C2B       75.9330    1.1650   -7.0190 C.3   1502  COA1502     0.2543
     13  O2B       77.1310    0.6340   -6.4190 O.3   1502  COA1502    -0.2131
     14  C3B       74.7450    0.3500   -6.5960 C.3   1502  COA1502     0.1928
     15  O3B       75.1160   -1.0300   -6.5620 O.3   1502  COA1502    -0.2673
     16  P3B       74.1280   -2.1260   -5.9340 P.3   1502  COA1502     0.5327
     17  O7A       75.1070   -3.3550   -5.6080 O.3   1502  COA1502    -0.1145
     18  O8A       73.5900   -1.5720   -4.6710 O.3   1502  COA1502    -0.1145
     19  O9A       73.1760   -2.5580   -6.9900 O.2   1502  COA1502    -0.2224
     20  C4B       73.7410    0.5680   -7.7440 C.3   1502  COA1502     0.1795
     21  O4B       74.5750    0.8430   -8.9210 O.3   1502  COA1502    -0.3136
     22  C5B       72.8370    1.7930   -7.4910 C.3   1502  COA1502     0.1812
     23  O5B       73.6170    2.9910   -7.3580 O.3   1502  COA1502    -0.3112
     24  P1A       73.0090    4.3880   -7.8780 P.3   1502  COA1502     0.2189
     25  O1A       72.1590    4.1220   -9.0620 O.2   1502  COA1502    -0.5170
     26  O2A       74.1000    5.3760   -8.0080 O.3   1502  COA1502    -0.4371
     27  O3A       72.0240    4.8200   -6.6700 O.3   1502  COA1502    -0.2703
     28  P2A       72.5560    5.0570   -5.1570 P.3   1502  COA1502     0.2188
     29  O4A       73.8310    5.8250   -5.1680 O.2   1502  COA1502    -0.5170
     30  O5A       72.5060    3.7770   -4.4190 O.3   1502  COA1502    -0.4371
     31  O6A       71.4270    6.0080   -4.5690 O.3   1502  COA1502    -0.3138
     32  CBP       70.1570    8.0490   -4.2870 C.3   1502  COA1502     0.0645
     33  CCP       71.2980    7.3610   -5.0290 C.3   1502  COA1502     0.1519
     34  CDP       68.8610    7.2560   -4.5320 C.3   1502  COA1502     0.0056
     35  CEP       69.9850    9.4810   -4.8300 C.3   1502  COA1502     0.0056
     36  CAP       70.5050    8.0670   -2.7740 C.3   1502  COA1502     0.2312
     37  OAP       71.7450    8.7520   -2.5690 O.3   1502  COA1502    -0.2131
     38  C9P       69.4010    8.7380   -1.9500 C.2   1502  COA1502     0.2719
     39  O9P       69.4380    9.9410   -1.6910 O.2   1502  COA1502    -0.2706
     40  N8P       68.4290    7.9130   -1.5720 N.am  1502  COA1502    -0.2028
     41  C7P       67.2820    8.3490   -0.7750 C.3   1502  COA1502     0.1248
     42  C6P       66.1030    8.7350   -1.6850 C.3   1502  COA1502     0.1102
     43  C5P       64.8420    8.8990   -0.8460 C.2   1502  COA1502     0.2432
     44  O5P       64.8600    9.5440    0.2060 O.2   1502  COA1502    -0.2733
     45  N4P       63.7590    8.2980   -1.3500 N.am  1502  COA1502    -0.2044
     46  C3P       62.4320    8.3030   -0.6870 C.3   1502  COA1502     0.1276
     47  C2P       61.7940    9.6950   -0.7080 C.3   1502  COA1502     0.0920
     48  S1P       60.2340    9.7390    0.2360 S.3   1502  COA1502    -0.0802
@<TRIPOS>BOND
     1     7     6    1
     2     1     2    1
     3     1     6    2
     4     2     3    1
     5     6     5    1
     6     3     4    2
     7     5     4    1
     8     5     8    2
     9     4    10    1
    10     8     9    1
    11    10     9    1
    12    10    11    1
    13    25    24    2
    14    21    11    1
    15    21    20    1
    16    11    12    1
    17    26    24    1
    18    24    23    1
    19    24    27    1
    20    20    22    1
    21    20    14    1
    22    22    23    1
    23    12    14    1
    24    12    13    1
    25    19    16    2
    26    27    28    1
    27    14    15    1
    28    15    16    1
    29    16    17    1
    30    16    18    1
    31    29    28    2
    32    28    31    1
    33    28    30    1
    34    33    31    1
    35    33    32    1
    36    35    32    1
    37    34    32    1
    38    32    36    1
    39    36    37    1
    40    36    38    1
    41    38    39    2
    42    38    40   am
    43    42    43    1
    44    42    41    1
    45    40    41    1
    46    45    43   am
    47    45    46    1
    48    43    44    2
    49    47    46    1
    50    47    48    1
