@<TRIPOS>MOLECULE
2h3p_152_A_1.pdb
 11 10 0 0 0
SMALL
GASTEIGER

@<TRIPOS>ATOM
      1  C1        61.0640   14.5530    0.1280 C.2   1501  1521501     0.3674
      2  O1A       61.2250   15.3880    1.0500 O.co2 1501  1521501    -0.2456
      3  O1B       61.7860   14.5090   -0.8960 O.co2 1501  1521501    -0.2456
      4  C2        59.9440   13.5440    0.2620 C.3   1501  1521501     0.1446
      5  C3        59.3670   13.1090   -1.0870 C.3   1501  1521501     0.1433
      6  O3        58.7400   11.8320   -0.9080 O.3   1501  1521501    -0.2248
      7  C4        58.3020   14.1350   -1.5200 C.3   1501  1521501    -0.0392
      8  N5        57.9700   13.9950   -2.9470 N.4   1501  1521501     0.3874
      9  C5A       59.1890   13.8390   -3.7410 C.3   1501  1521501    -0.0959
     10  C5B       57.1020   12.8340   -3.1510 C.3   1501  1521501    -0.0959
     11  C5C       57.2720   15.1980   -3.3870 C.3   1501  1521501    -0.0959
@<TRIPOS>BOND
     1     9     8    1
     2    11     8    1
     3    10     8    1
     4     8     7    1
     5     7     5    1
     6     5     6    1
     7     5     4    1
     8     3     1   ar
     9     1     4    1
    10     1     2   ar
