@<TRIPOS>MOLECULE
2h3u_COA_A_1.pdb
 48 50 0 0 0
SMALL
GASTEIGER

@<TRIPOS>ATOM
      1  N1A       79.5870    1.6370  -12.3440 N.2   1802  COA1802     0.0021
      2  C2A       79.0930    0.4770  -11.8890 C.3   1802  COA1802     0.5254
      3  N3A       78.2180    0.4590  -10.8720 N.2   1802  COA1802    -0.0055
      4  C4A       77.8120    1.6130  -10.2860 C.2   1802  COA1802     0.3518
      5  C5A       78.3040    2.8270  -10.7390 C.2   1802  COA1802     0.2526
      6  C6A       79.2130    2.8190  -11.7960 C.2   1802  COA1802     0.4393
      7  N6A       79.7090    3.9640  -12.2640 N.pl3 1802  COA1802     0.2180
      8  N7A       77.7500    3.7900  -10.0110 N.2   1802  COA1802    -0.2095
      9  C8A       76.9330    3.2110   -9.1180 C.3   1802  COA1802     0.3377
     10  N9A       76.9740    1.8720   -9.2870 N.pl3 1802  COA1802    -0.1439
     11  C1B       76.2060    0.8400   -8.5120 C.3   1802  COA1802     0.3185
     12  C2B       76.1730    1.1100   -7.0150 C.3   1802  COA1802     0.2543
     13  O2B       77.3640    0.5590   -6.4200 O.3   1802  COA1802    -0.2131
     14  C3B       74.9750    0.3140   -6.5770 C.3   1802  COA1802     0.1928
     15  O3B       75.3220   -1.0720   -6.5060 O.3   1802  COA1802    -0.2673
     16  P3B       74.2880   -2.1450   -5.9030 P.3   1802  COA1802     0.5327
     17  O7A       75.1920   -3.4580   -5.6890 O.3   1802  COA1802    -0.1145
     18  O8A       73.8200   -1.6400   -4.5890 O.3   1802  COA1802    -0.1145
     19  O9A       73.2860   -2.4440   -6.9540 O.2   1802  COA1802    -0.2224
     20  C4B       73.9720    0.5250   -7.7210 C.3   1802  COA1802     0.1795
     21  O4B       74.7920    0.7860   -8.9160 O.3   1802  COA1802    -0.3136
     22  C5B       73.0600    1.7470   -7.4750 C.3   1802  COA1802     0.1812
     23  O5B       73.8250    2.9600   -7.3890 O.3   1802  COA1802    -0.3112
     24  P1A       73.1800    4.3350   -7.9400 P.3   1802  COA1802     0.2189
     25  O1A       72.2710    4.0020   -9.0660 O.2   1802  COA1802    -0.5170
     26  O2A       74.2550    5.3300   -8.1710 O.3   1802  COA1802    -0.4371
     27  O3A       72.2270    4.8300   -6.7180 O.3   1802  COA1802    -0.2703
     28  P2A       72.7820    5.0780   -5.2150 P.3   1802  COA1802     0.2188
     29  O4A       74.0730    5.8120   -5.2540 O.2   1802  COA1802    -0.5170
     30  O5A       72.7190    3.8050   -4.4600 O.3   1802  COA1802    -0.4371
     31  O6A       71.6700    6.0590   -4.6180 O.3   1802  COA1802    -0.3138
     32  CBP       70.4010    8.1060   -4.3100 C.3   1802  COA1802     0.0645
     33  CCP       71.5280    7.4160   -5.0810 C.3   1802  COA1802     0.1519
     34  CDP       69.0730    7.3990   -4.6400 C.3   1802  COA1802     0.0056
     35  CEP       70.3120    9.5800   -4.7470 C.3   1802  COA1802     0.0056
     36  CAP       70.7100    7.9980   -2.7940 C.3   1802  COA1802     0.2312
     37  OAP       71.9250    8.6920   -2.4980 O.3   1802  COA1802    -0.2131
     38  C9P       69.5670    8.5690   -1.9490 C.2   1802  COA1802     0.2719
     39  O9P       69.5520    9.7530   -1.6130 O.2   1802  COA1802    -0.2706
     40  N8P       68.6240    7.6820   -1.6420 N.am  1802  COA1802    -0.2028
     41  C7P       67.4470    8.0200   -0.8440 C.3   1802  COA1802     0.1248
     42  C6P       66.3530    8.6460   -1.7290 C.3   1802  COA1802     0.1102
     43  C5P       65.0840    8.8280   -0.9070 C.2   1802  COA1802     0.2432
     44  O5P       65.1000    9.4700    0.1440 O.2   1802  COA1802    -0.2733
     45  N4P       63.9970    8.2440   -1.4170 N.am  1802  COA1802    -0.2044
     46  C3P       62.6650    8.2740   -0.7540 C.3   1802  COA1802     0.1276
     47  C2P       62.0750    9.6810   -0.7320 C.3   1802  COA1802     0.0920
     48  S1P       60.4870    9.7430    0.1700 S.3   1802  COA1802    -0.0802
@<TRIPOS>BOND
     1     1     2    1
     2     1     6    2
     3     7     6    1
     4     2     3    1
     5     6     5    1
     6     3     4    2
     7     5     4    1
     8     5     8    2
     9     4    10    1
    10     8     9    1
    11    10     9    1
    12    10    11    1
    13    25    24    2
    14    21    11    1
    15    21    20    1
    16    11    12    1
    17    26    24    1
    18    24    23    1
    19    24    27    1
    20    20    22    1
    21    20    14    1
    22    22    23    1
    23    12    14    1
    24    12    13    1
    25    19    16    2
    26    27    28    1
    27    14    15    1
    28    15    16    1
    29    16    17    1
    30    16    18    1
    31    29    28    2
    32    28    31    1
    33    28    30    1
    34    33    31    1
    35    33    32    1
    36    35    32    1
    37    34    32    1
    38    32    36    1
    39    36    37    1
    40    36    38    1
    41    38    40   am
    42    38    39    2
    43    42    43    1
    44    42    41    1
    45    40    41    1
    46    45    43   am
    47    45    46    1
    48    43    44    2
    49    46    47    1
    50    47    48    1
