@<TRIPOS>MOLECULE
2h3u_152_A_1.pdb
 11 10 0 0 0
SMALL
GASTEIGER

@<TRIPOS>ATOM
      1  C1        61.2910   14.5220    0.0610 C.2   1801  1521801     0.3674
      2  O1A       61.4750   15.3600    0.9810 O.co2 1801  1521801    -0.2456
      3  O1B       61.9830   14.4980   -0.9820 O.co2 1801  1521801    -0.2456
      4  C2        60.1870   13.4830    0.2230 C.3   1801  1521801     0.1446
      5  C3        59.5650   13.0510   -1.1170 C.3   1801  1521801     0.1433
      6  O3        58.8050   11.8560   -0.8970 O.3   1801  1521801    -0.2248
      7  C4        58.6270   14.1650   -1.6000 C.3   1801  1521801    -0.0392
      8  N5        58.2030   13.9600   -2.9960 N.4   1801  1521801     0.3874
      9  C5A       59.3670   13.8460   -3.8770 C.3   1801  1521801    -0.0959
     10  C5B       57.3880   12.7530   -3.1060 C.3   1801  1521801    -0.0959
     11  C5C       57.3990   15.1060   -3.4090 C.3   1801  1521801    -0.0959
@<TRIPOS>BOND
     1     9     8    1
     2    11     8    1
     3    10     8    1
     4     8     7    1
     5     7     5    1
     6     5     6    1
     7     5     4    1
     8     3     1   ar
     9     1     4    1
    10     1     2   ar
