@<TRIPOS>MOLECULE
2h3w_HC5_A_1.pdb
 18 17 0 0 0
SMALL
GASTEIGER

@<TRIPOS>ATOM
      1  CAC       57.0980    5.0820   -0.5130 C.3   1602  HC51602     0.0000
      2  CAD       57.7410    6.4710   -0.4820 C.3   1602  HC51602     0.0000
      3  CAE       58.2130    6.8790   -1.8780 C.3   1602  HC51602     0.0006
      4  CAF       58.9520    8.2200   -1.8670 C.3   1602  HC51602     0.0116
      5  CAG       58.0360    9.3920   -1.5110 C.3   1602  HC51602     0.1096
      6  CAH       58.8000   10.7160   -1.6050 C.2   1602  HC51602     0.3168
      7  OAI       59.7270   10.8370   -2.4040 O.2   1602  HC51602    -0.2501
      8  OAK       58.4300   11.7640   -0.8210 O.3   1602  HC51602    -0.4539
      9  CAP       59.2860   12.9020   -1.0220 C.3   1602  HC51602     0.1602
     10  CAQ       60.0100   13.2070    0.2940 C.3   1602  HC51602     0.1553
     11  CAR       61.0650   14.3060    0.1410 C.2   1602  HC51602     0.3684
     12  OAL       61.2230   15.1450    1.0110 O.co2 1602  HC51602    -0.2455
     13  OAS       61.7840   14.3380   -0.8700 O.co2 1602  HC51602    -0.2455
     14  CAO       58.4620   14.1170   -1.4760 C.3   1602  HC51602    -0.0282
     15  NAN       57.9190   13.9930   -2.8390 N.4   1602  HC51602     0.3882
     16  CAT       57.2430   15.2560   -3.1730 C.3   1602  HC51602    -0.0958
     17  CAJ       56.9260   12.9070   -2.9300 C.3   1602  HC51602    -0.0958
     18  CAM       58.9880   13.7730   -3.8250 C.3   1602  HC51602    -0.0958
@<TRIPOS>BOND
     1    18    15    1
     2    16    15    1
     3    17    15    1
     4    15    14    1
     5     7     6    2
     6     3     4    1
     7     3     2    1
     8     4     5    1
     9     6     5    1
    10     6     8    1
    11    14     9    1
    12     9     8    1
    13     9    10    1
    14    13    11   ar
    15     1     2    1
    16    11    10    1
    17    11    12   ar
