@<TRIPOS>MOLECULE
2h3w_COA_A_1.pdb
 48 50 0 0 0
SMALL
GASTEIGER

@<TRIPOS>ATOM
      1  N1A       79.5340    1.4410  -12.0970 N.2   1601  COA1601     0.0021
      2  C2A       79.0670    0.2640  -11.6510 C.3   1601  COA1601     0.5254
      3  N3A       78.1140    0.2250  -10.7130 N.2   1601  COA1601    -0.0055
      4  C4A       77.5980    1.3620  -10.1950 C.2   1601  COA1601     0.3518
      5  C5A       78.0670    2.5910  -10.6250 C.2   1601  COA1601     0.2526
      6  C6A       79.0650    2.6100  -11.5990 C.2   1601  COA1601     0.4393
      7  N6A       79.5190    3.7670  -12.0690 N.pl3 1601  COA1601     0.2180
      8  N7A       77.4220    3.5330   -9.9540 N.2   1601  COA1601    -0.2095
      9  C8A       76.5490    2.9320   -9.1360 C.3   1601  COA1601     0.3377
     10  N9A       76.6710    1.5960   -9.2720 N.pl3 1601  COA1601    -0.1439
     11  C1B       75.8650    0.5550   -8.5730 C.3   1601  COA1601     0.3185
     12  C2B       75.9290    0.7190   -7.0520 C.3   1601  COA1601     0.2543
     13  O2B       77.1070    0.0840   -6.5560 O.3   1601  COA1601    -0.2131
     14  C3B       74.7150   -0.0560   -6.6140 C.3   1601  COA1601     0.1928
     15  O3B       75.0110   -1.4500   -6.6130 O.3   1601  COA1601    -0.2673
     16  P3B       74.0260   -2.5090   -5.8820 P.3   1601  COA1601     0.5327
     17  O7A       74.9780   -3.7890   -5.7070 O.3   1601  COA1601    -0.1145
     18  O8A       73.6580   -1.9730   -4.5540 O.3   1601  COA1601    -0.1145
     19  O9A       72.9520   -2.8690   -6.8370 O.2   1601  COA1601    -0.2224
     20  C4B       73.6660    0.2530   -7.6850 C.3   1601  COA1601     0.1795
     21  O4B       74.4480    0.6100   -8.8940 O.3   1601  COA1601    -0.3136
     22  C5B       72.8130    1.4830   -7.2940 C.3   1601  COA1601     0.1812
     23  O5B       73.6030    2.6800   -7.2430 O.3   1601  COA1601    -0.3112
     24  P1A       73.0020    4.0670   -7.8220 P.3   1601  COA1601     0.2189
     25  O1A       72.1510    3.7730   -9.0030 O.2   1601  COA1601    -0.5170
     26  O2A       74.0960    5.0480   -7.9750 O.3   1601  COA1601    -0.4371
     27  O3A       72.0030    4.5670   -6.6490 O.3   1601  COA1601    -0.2703
     28  P2A       72.5290    4.8320   -5.1400 P.3   1601  COA1601     0.2188
     29  O4A       73.8000    5.6010   -5.1690 O.2   1601  COA1601    -0.5170
     30  O5A       72.4940    3.5590   -4.3890 O.3   1601  COA1601    -0.4371
     31  O6A       71.3840    5.7940   -4.5350 O.3   1601  COA1601    -0.3138
     32  CBP       70.1440    7.8660   -4.1810 C.3   1601  COA1601     0.0645
     33  CCP       71.2300    7.1440   -4.9940 C.3   1601  COA1601     0.1519
     34  CDP       68.7920    7.1770   -4.4330 C.3   1601  COA1601     0.0056
     35  CEP       70.0590    9.3280   -4.6450 C.3   1601  COA1601     0.0056
     36  CAP       70.5160    7.7910   -2.6710 C.3   1601  COA1601     0.2312
     37  OAP       71.7950    8.4030   -2.4580 O.3   1601  COA1601    -0.2131
     38  C9P       69.4620    8.4700   -1.7750 C.2   1601  COA1601     0.2719
     39  O9P       69.6070    9.6260   -1.3880 O.2   1601  COA1601    -0.2706
     40  N8P       68.4150    7.7040   -1.4780 N.am  1601  COA1601    -0.2028
     41  C7P       67.3020    8.1560   -0.6320 C.3   1601  COA1601     0.1248
     42  C6P       66.1000    8.5470   -1.4990 C.3   1601  COA1601     0.1102
     43  C5P       64.8680    8.7570   -0.6180 C.2   1601  COA1601     0.2432
     44  O5P       64.9460    9.3970    0.4380 O.2   1601  COA1601    -0.2733
     45  N4P       63.7410    8.2050   -1.0850 N.am  1601  COA1601    -0.2044
     46  C3P       62.4650    8.2850   -0.3530 C.3   1601  COA1601     0.1276
     47  C2P       61.9070    9.7090   -0.3340 C.3   1601  COA1601     0.0920
     48  S1P       60.4270    9.8540    0.7310 S.3   1601  COA1601    -0.0802
@<TRIPOS>BOND
     1     1     2    1
     2     1     6    2
     3     7     6    1
     4     2     3    1
     5     6     5    1
     6     3     4    2
     7     5     4    1
     8     5     8    2
     9     4    10    1
    10     8     9    1
    11    10     9    1
    12    10    11    1
    13    25    24    2
    14    21    11    1
    15    21    20    1
    16    11    12    1
    17    26    24    1
    18    24    23    1
    19    24    27    1
    20    20    22    1
    21    20    14    1
    22    22    23    1
    23    12    14    1
    24    12    13    1
    25    19    16    2
    26    27    28    1
    27    14    15    1
    28    15    16    1
    29    16    17    1
    30    16    18    1
    31    29    28    2
    32    28    31    1
    33    28    30    1
    34    33    31    1
    35    33    32    1
    36    35    32    1
    37    34    32    1
    38    32    36    1
    39    36    37    1
    40    36    38    1
    41    38    40   am
    42    38    39    2
    43    42    41    1
    44    42    43    1
    45    40    41    1
    46    45    43   am
    47    45    46    1
    48    43    44    2
    49    46    47    1
    50    47    48    1
