@<TRIPOS>MOLECULE
2h42_VIA_A_1.pdb
 33 36 0 0 0
SMALL
GASTEIGER

@<TRIPOS>ATOM
      1  C34       26.4280  119.9220   10.0560 C.3   901  VIA901      0.0004
      2  C33       27.3610  119.8470   11.2650 C.3   901  VIA901      0.0064
      3  C32       27.7990  121.2430   11.7120 C.3   901  VIA901      0.0498
      4  C30       28.8090  121.1320   12.8550 C.2   901  VIA901      0.1051
      5  N29       28.5810  121.3610   14.1460 N.2   901  VIA901     -0.1827
      6  N28       29.5930  121.1190   14.8040 N.pl3 901  VIA901     -0.2099
      7  C31       29.6850  121.3040   16.2700 C.3   901  VIA901      0.1358
      8  C24       30.6020  120.7020   14.0430 C.3   901  VIA901      0.2631
      9  C23       31.9130  120.3100   14.2860 C.1   901  VIA901      0.2168
     10  O27       32.3620  120.2670   15.4300 O.2   901  VIA901     -0.2113
     11  N22       32.7120  119.9430   13.1980 N.2   901  VIA901     -0.2682
     12  C21       32.1760  119.9820   11.9050 C.1   901  VIA901      0.1525
     13  N26       30.9030  120.3550   11.7060 N.2   901  VIA901     -0.3394
     14  C25       30.1260  120.7070   12.7400 C.2   901  VIA901      0.1728
     15  C9        32.9980  119.7020   10.8200 C.ar  901  VIA901      0.1215
     16  C8        33.0670  120.5870    9.7510 C.ar  901  VIA901      0.0350
     17  C7        33.9110  120.3220    8.6770 C.ar  901  VIA901      0.1231
     18  C6        34.6860  119.1670    8.6810 C.ar  901  VIA901      0.0231
     19  C5        34.6140  118.2820    9.7510 C.ar  901  VIA901      0.0390
     20  C4        33.7660  118.5440   10.8230 C.ar  901  VIA901      0.1499
     21  O3        33.6310  117.6620   11.8510 O.3   901  VIA901     -0.4747
     22  C2        34.8440  116.9250   12.0640 C.3   901  VIA901      0.2056
     23  C1        34.5950  115.8590   13.1330 C.3   901  VIA901      0.0512
     24  S10       34.0250  121.4580    7.3510 S.O2  901  VIA901      0.0634
     25  O11       35.1510  121.0430    6.4510 O.2   901  VIA901     -0.1528
     26  O12       34.3100  122.8240    7.9000 O.2   901  VIA901     -0.1528
     27  N14       32.6500  121.5170    6.4740 N.3   901  VIA901     -0.1527
     28  C19       32.3190  120.2480    5.8060 C.3   901  VIA901      0.1131
     29  C18       31.1870  119.4770    6.4880 C.3   901  VIA901      0.0915
     30  N17       30.0390  120.3680    6.6960 N.3   901  VIA901     -0.2690
     31  C20       28.9040  119.5930    7.2170 C.3   901  VIA901      0.0897
     32  C16       30.4670  121.3490    7.7030 C.3   901  VIA901      0.0915
     33  C15       31.5490  122.2550    7.1130 C.3   901  VIA901      0.1131
@<TRIPOS>BOND
     1    28    27    1
     2    28    29    1
     3    25    24    2
     4    27    33    1
     5    27    24    1
     6    29    30    1
     7    30    31    1
     8    30    32    1
     9    33    32    1
    10    24    26    2
    11    24    17    1
    12    17    18   ar
    13    17    16   ar
    14    18    19   ar
    15    16    15   ar
    16    19    20   ar
    17     1     2    1
    18    15    20   ar
    19    15    12    1
    20    20    21    1
    21     2     3    1
    22    13    12    2
    23    13    14    2
    24     3     4    1
    25    21    22    1
    26    12    11    2
    27    22    23    1
    28    14     4    1
    29    14     8    1
    30     4     5    2
    31    11     9    2
    32     8     9    1
    33     8     6    1
    34     5     6    1
    35     9    10    2
    36     6     7    1
