@<TRIPOS>MOLECULE
2h43_III_I_1.pdb
 34 35 0 0 0
SMALL
GASTEIGER

@<TRIPOS>ATOM
      1  N        -31.9980  -16.3700   42.5420 N.3     1  ALA1       -0.1231
      2  CA       -32.9220  -17.3720   43.1620 C.3     1  ALA1        0.1694
      3  C        -32.5290  -18.7800   42.7110 C.2     1  ALA1        0.2592
      4  O        -31.3390  -19.0910   42.5850 O.2     1  ALA1       -0.2718
      5  CB       -34.3430  -17.0740   42.7520 C.3     1  ALA1        0.0304
      6  N        -33.5200  -19.6350   42.4760 N.am    2  HIS2       -0.1962
      7  CA       -33.2360  -20.9910   42.0110 C.3     2  HIS2        0.1784
      8  C        -33.2080  -20.9970   40.4850 C.2     2  HIS2        0.2620
      9  O        -33.5550  -20.0040   39.8570 O.2     2  HIS2       -0.2715
     10  CB       -34.3000  -21.9800   42.5130 C.3     2  HIS2        0.0745
     11  CG       -35.6820  -21.7010   42.0110 C.2     2  HIS2        0.0653
     12  ND1      -36.4210  -20.6130   42.4230 N.2     2  HIS2       -0.2310
     13  CD2      -36.4650  -22.3760   41.1350 C.3     2  HIS2        0.1683
     14  CE1      -37.5990  -20.6290   41.8240 C.2     2  HIS2        0.1939
     15  NE2      -37.6510  -21.6890   41.0370 N.2     2  HIS2       -0.2440
     16  N        -32.7880  -22.1070   39.8890 N.am    3  ARG3       -0.1964
     17  CA       -32.7380  -22.2010   38.4290 C.3     3  ARG3        0.1714
     18  C        -33.4940  -23.4160   37.8980 C.2     3  ARG3        0.2458
     19  O        -33.0520  -24.5550   38.0710 O.2     3  ARG3       -0.2730
     20  CB       -31.2920  -22.2630   37.9270 C.3     3  ARG3        0.0347
     21  CG       -30.5250  -20.9720   38.0700 C.3     3  ARG3        0.0492
     22  CD       -31.0770  -19.9110   37.1700 C.3     3  ARG3        0.2205
     23  NE       -30.3620  -18.6470   37.3330 N.pl3   3  ARG3       -0.0865
     24  CZ       -30.5120  -17.8130   38.3610 C.cat   3  ARG3        0.5346
     25  NH1      -29.8090  -16.6910   38.4010 N.pl3   3  ARG3        0.1354
     26  NH2      -31.3590  -18.0840   39.3450 N.pl3   3  ARG3        0.1354
     27  N        -34.6360  -23.1790   37.2230 N.am    4  PRO4       -0.2715
     28  CA       -35.4550  -24.2590   36.6620 C.3     4  PRO4        0.1552
     29  C        -34.6150  -25.2770   35.9040 C.2     4  PRO4        0.2788
     30  O        -34.8740  -26.4820   36.0860 O.2     4  PRO4       -0.2699
     31  CB       -36.4450  -23.5140   35.7590 C.3     4  PRO4        0.0311
     32  CG       -35.6970  -22.2450   35.3930 C.3     4  PRO4        0.0237
     33  CD       -35.0900  -21.8700   36.7180 C.3     4  PRO4        0.0939
     34  N        -33.7140  -24.8620   35.1450 N.am    5  NH25       -0.0863
@<TRIPOS>BOND
     1    34    29   am
     2    32    31    1
     3    32    33    1
     4    31    28    1
     5    29    30    2
     6    29    28    1
     7    28    27    1
     8    33    27    1
     9    22    23    1
    10    22    21    1
    11    27    18   am
    12    23    24    2
    13    18    19    2
    14    18    17    1
    15    20    21    1
    16    20    17    1
    17    24    25    1
    18    24    26    1
    19    17    16    1
    20     9     8    2
    21    16     8   am
    22     8     7    1
    23    15    13    1
    24    15    14    2
    25    13    11    1
    26    14    12    1
    27    11    12    2
    28    11    10    1
    29     7     6    1
    30     7    10    1
    31     6     3   am
    32     1     2    1
    33     4     3    2
    34     3     2    1
    35     5     2    1
