@<TRIPOS>MOLECULE
2h44_7CA_A_1.pdb
 37 40 0 0 0
SMALL
GASTEIGER

@<TRIPOS>ATOM
      1  C1        76.7950   27.4320   27.3470 C.3   301  7CA301      0.2525
      2  O1        76.0990   26.1740   27.4100 O.3   301  7CA301     -0.4714
      3  C2        74.7220   26.3820   27.3900 C.ar  301  7CA301      0.1387
      4  C3        74.1790   27.6360   27.6510 C.ar  301  7CA301      0.0370
      5  C4        72.7990   27.8050   27.6340 C.ar  301  7CA301      0.0062
      6  C5        73.8750   25.3050   27.0940 C.ar  301  7CA301      0.0370
      7  C6        72.4820   25.4900   27.0810 C.ar  301  7CA301      0.0062
      8  C7        71.9290   26.7450   27.3560 C.ar  301  7CA301      0.0379
      9  C8        70.5530   26.9800   27.3920 C.ar  301  7CA301      0.1822
     10  O2        70.1210   28.0310   28.1860 O.2   301  7CA301     -0.4503
     11  C9        69.5840   26.1290   26.7740 C.ar  301  7CA301      0.2144
     12  C10       68.2110   26.3780   27.0090 C.ar  301  7CA301      0.2384
     13  C11       67.8180   27.4340   27.8430 C.ar  301  7CA301      0.1153
     14  C12       68.7870   28.2560   28.4280 C.ar  301  7CA301      0.1510
     15  O3        67.3640   25.6650   26.4840 O.2   301  7CA301     -0.2830
     16  C13       66.4680   27.6830   28.0950 C.ar  301  7CA301      0.2050
     17  C14       66.0990   28.7530   28.9190 C.ar  301  7CA301      0.0840
     18  C15       67.0770   29.5660   29.4920 C.ar  301  7CA301      0.1982
     19  C16       68.4180   29.3070   29.2530 C.ar  301  7CA301      0.0559
     20  O4        65.5020   26.8810   27.5430 O.3   301  7CA301     -0.2862
     21  O10       66.7230   30.5900   30.3370 O.3   301  7CA301     -0.2867
     22  C17       69.4870   30.1770   29.8850 C.3   301  7CA301      0.0580
     23  C18       69.4250   31.6520   29.4850 C.2   301  7CA301     -0.0297
     24  C19       70.0750   32.0990   28.3450 C.2   301  7CA301     -0.0475
     25  C20       70.0060   33.5760   27.9620 C.3   301  7CA301      0.0260
     26  C21       70.8660   31.1210   27.4710 C.3   301  7CA301      0.0260
     27  O5        69.9410   25.0290   25.9890 O.3   301  7CA301     -0.4440
     28  C22       70.3970   25.3770   24.6760 C.3   301  7CA301      0.3219
     29  O6        69.2920   25.7940   23.8500 O.3   301  7CA301     -0.3184
     30  C23       71.0630   24.1220   24.0680 C.3   301  7CA301      0.2542
     31  O7        71.6820   24.4340   22.8260 O.3   301  7CA301     -0.2135
     32  C24       70.0150   23.0130   23.8750 C.3   301  7CA301      0.2210
     33  O8        70.5960   21.8920   23.2260 O.3   301  7CA301     -0.2173
     34  C25       68.8300   23.5260   23.0600 C.3   301  7CA301      0.2119
     35  O9        67.8260   22.5210   22.9920 O.3   301  7CA301     -0.2177
     36  C26       68.2580   24.7890   23.7120 C.3   301  7CA301      0.1519
     37  C27       67.1300   25.3500   22.8220 C.3   301  7CA301      0.0350
@<TRIPOS>BOND
     1    37    36    1
     2    31    30    1
     3    35    34    1
     4    34    36    1
     5    34    32    1
     6    33    32    1
     7    36    29    1
     8    29    28    1
     9    32    30    1
    10    30    28    1
    11    28    27    1
    12    27    11    1
    13    15    12    2
    14    11    12   ar
    15    11     9   ar
    16    12    13   ar
    17     7     6   ar
    18     7     8   ar
    19     6     3   ar
    20     1     2    1
    21     8     9    1
    22     8     5   ar
    23     3     2    1
    24     3     4   ar
    25     9    10   ar
    26    26    24    1
    27    20    16    1
    28     5     4   ar
    29    13    16   ar
    30    13    14   ar
    31    25    24    1
    32    16    17   ar
    33    10    14   ar
    34    24    23    2
    35    14    19   ar
    36    17    18   ar
    37    19    18   ar
    38    19    22    1
    39    23    22    1
    40    18    21    1
