@<TRIPOS>MOLECULE
2h48_III_C_1.pdb
 31 31 0 0 0
SMALL
GASTEIGER

@<TRIPOS>ATOM
      1  C1        31.8550   66.4510   10.1000 C.2     1  PHQ1        0.4218
      2  O1        31.5910   65.9790   11.1960 O.2     1  PHQ1       -0.2245
      3  O2        32.2000   67.8630    9.9670 O.3     1  PHQ1       -0.4285
      4  C2        32.5880   68.6630   11.0850 C.3     1  PHQ1        0.2368
      5  C3        34.0090   69.2110   10.9340 C.ar    1  PHQ1        0.0213
      6  C4        34.4140   70.2890   11.7310 C.ar    1  PHQ1       -0.0007
      7  C5        35.7950   70.5840   11.8830 C.ar    1  PHQ1       -0.0002
      8  C6        36.6990   70.0300   10.9100 C.ar    1  PHQ1       -0.0000
      9  C7        36.2860   68.8910   10.2010 C.ar    1  PHQ1       -0.0002
     10  C8        34.9220   68.6290   10.0470 C.ar    1  PHQ1       -0.0007
     11  N         31.8550   65.7430    8.9730 N.am    2  VAL2       -0.1611
     12  CA        31.2260   64.4450    8.7900 C.3     2  VAL2        0.1760
     13  C         32.2430   63.4750    8.2430 C.2     2  VAL2        0.2617
     14  O         33.1680   63.8900    7.5570 O.2     2  VAL2       -0.2715
     15  CB        29.9950   64.6350    7.8920 C.3     2  VAL2        0.0291
     16  CG1       29.5660   63.3980    7.1050 C.3     2  VAL2        0.0023
     17  CG2       28.8090   65.1600    8.7000 C.3     2  VAL2        0.0023
     18  N         32.0890   62.1870    8.5620 N.am    3  ALA3       -0.1963
     19  CA        32.9020   61.1160    8.0060 C.3     3  ALA3        0.1728
     20  C         32.5200   60.7770    6.5930 C.2     3  ALA3        0.2613
     21  O         31.3430   60.7270    6.2710 O.2     3  ALA3       -0.2715
     22  CB        32.7760   59.8650    8.8690 C.3     3  ALA3        0.0334
     23  N         33.5280   60.5240    5.7490 N.am    4  ASP4       -0.2026
     24  CA        33.3310   60.1100    4.3620 C.3     4  ASP4        0.1368
     25  C         33.0860   58.5970    4.2070 C.3     4  ASP4        0.1724
     26  O         33.8720   58.0620    3.1530 O.3     4  ASP4       -0.2213
     27  CB        34.4830   60.6200    3.4870 C.3     4  ASP4        0.1382
     28  CG        34.0630   61.8000    2.6310 C.2     4  ASP4        0.3667
     29  OD1       32.8530   61.9760    2.3760 O.co2   4  ASP4       -0.2456
     30  OD2       34.9460   62.5740    2.1990 O.co2   4  ASP4       -0.2456
     31  C1        33.3460   57.7610    5.4590 C.3     5  CF05        0.0374
@<TRIPOS>BOND
     1    30    28   ar
     2    29    28   ar
     3    28    27    1
     4    26    25    1
     5    27    24    1
     6    25    24    1
     7    25    31    1
     8    24    23    1
     9    23    20   am
    10    21    20    2
    11    20    19    1
    12    16    15    1
    13    14    13    2
    14    15    17    1
    15    15    12    1
    16    19    18    1
    17    19    22    1
    18    13    18   am
    19    13    12    1
    20    12    11    1
    21    11     1   am
    22     3     1    1
    23     3     4    1
    24    10     9   ar
    25    10     5   ar
    26     1     2    2
    27     9     8   ar
    28     8     7   ar
    29     5     4    1
    30     5     6   ar
    31     6     7   ar
