@<TRIPOS>MOLECULE
2h4g_694_A_1.pdb
 21 22 0 0 0
SMALL
GASTEIGER

@<TRIPOS>ATOM
      1  C1        47.2730   11.0890    0.5060 C.ar  300  694300      0.0038
      2  C2        47.5210    9.7950   -0.0230 C.ar  300  694300      0.0420
      3  C3        46.4320    9.0000   -0.4500 C.ar  300  694300      0.1957
      4  C4        45.0960    9.4830   -0.3500 C.ar  300  694300      0.0420
      5  C5        44.8470   10.7810    0.1840 C.ar  300  694300      0.0038
      6  C6        45.9290   11.6070    0.6230 C.ar  300  694300      0.0068
      7  C7        45.6610   12.9690    1.1830 C.ar  300  694300      0.0389
      8  C8        46.1050   13.5880    2.3580 C.ar  300  694300      0.0752
      9  C9        45.6020   14.9310    2.5310 C.ar  300  694300      0.1583
     10  C10       44.7930   15.3070    1.4600 C.ar  300  694300      0.1437
     11  S1        44.6340   14.0460    0.3100 S.2   300  694300     -0.0768
     12  C11       44.1040   16.7080    1.2510 C.2   300  694300      0.3966
     13  O1        43.9300   17.4410    2.2800 O.co2 300  694300     -0.2399
     14  O2        43.7790   16.9910    0.0600 O.co2 300  694300     -0.2399
     15  O3        45.8820   15.7650    3.6040 O.3   300  694300     -0.4625
     16  C12       47.1130   16.5260    3.4360 C.3   300  694300      0.3186
     17  C13       47.4820   17.1650    4.7870 C.2   300  694300      0.4084
     18  O4        46.5480   17.2540    5.6340 O.co2 300  694300     -0.2415
     19  O5        48.6830   17.5320    4.8860 O.co2 300  694300     -0.2415
     20 BR1        47.2540   12.7920    3.6390 Br    300  694300     -0.0453
     21  O6        46.6420    7.7490   -0.9680 O.3   300  694300     -0.2866
@<TRIPOS>BOND
     1    21     3    1
     2     3     4   ar
     3     3     2   ar
     4     4     5   ar
     5     2     1   ar
     6    14    12   ar
     7     5     6   ar
     8    11     7   ar
     9    11    10   ar
    10     1     6   ar
    11     6     7    1
    12     7     8   ar
    13    12    10    1
    14    12    13   ar
    15    10     9   ar
    16     8     9   ar
    17     8    20    1
    18     9    15    1
    19    16    15    1
    20    16    17    1
    21    17    19   ar
    22    17    18   ar
