@<TRIPOS>MOLECULE
2h4i_LBT_A_1.pdb
 23 24 0 0 0
SMALL
GASTEIGER

@<TRIPOS>ATOM
      1  C1         9.5370   17.8590   18.0790 C.3    11  LBT11       0.2695
      2  C2        10.1640   19.2350   18.0230 C.3    11  LBT11       0.2406
      3  C3        10.9540   19.4220   19.2980 C.3    11  LBT11       0.2198
      4  C4         9.9840   19.4160   20.4630 C.3    11  LBT11       0.2144
      5  C5         9.1800   18.1110   20.4650 C.3    11  LBT11       0.1835
      6  C6         8.1390   18.1630   21.5950 C.3    11  LBT11       0.2142
      7  O1         8.9680   17.6260   16.7730 O.3    11  LBT11      -0.3257
      8  O2        10.9710   19.3510   16.8760 O.3    11  LBT11      -0.2149
      9  O3        11.6280   20.6500   19.3190 O.3    11  LBT11      -0.2174
     10  O4         9.1700   20.5870   20.5200 O.3    11  LBT11      -0.2176
     11  O5         8.6140   17.8680   19.1860 O.3    11  LBT11      -0.3256
     12  O6         8.2430   17.0070   22.4370 O.3    11  LBT11      -0.2176
     13  C1'        5.6640   17.5730   14.5180 C.3    11  LBT11       0.3023
     14  C2'        5.3040   17.7190   15.9870 C.3    11  LBT11       0.2433
     15  C3'        6.5830   18.0500   16.7570 C.3    11  LBT11       0.2168
     16  C4'        7.7010   17.0140   16.5110 C.3    11  LBT11       0.1804
     17  C5'        7.8680   16.6290   15.0440 C.3    11  LBT11       0.1804
     18  C6'        8.5820   15.2560   14.9760 C.3    11  LBT11       0.2141
     19  O1'        6.1020   18.8380   14.0480 O.3    11  LBT11      -0.1869
     20  O2'        4.4300   18.8130   16.0610 O.3    11  LBT11      -0.2148
     21  O3'        6.2650   18.1700   18.1460 O.3    11  LBT11      -0.2175
     22  O5'        6.6230   16.5240   14.3560 O.3    11  LBT11      -0.3237
     23  O6'        9.2340   15.0610   13.7250 O.3    11  LBT11      -0.2176
@<TRIPOS>BOND
     1    23    18    1
     2    19    13    1
     3    22    13    1
     4    22    17    1
     5    13    14    1
     6    18    17    1
     7    17    16    1
     8    14    20    1
     9    14    15    1
    10    16    15    1
    11    16     7    1
    12    15    21    1
    13     7     1    1
    14     8     2    1
    15     2     1    1
    16     2     3    1
    17     1    11    1
    18    11     5    1
    19     3     9    1
    20     3     4    1
    21     4     5    1
    22     4    10    1
    23     5     6    1
    24     6    12    1
