@<TRIPOS>MOLECULE
2h4k_509_A_1.pdb
 20 21 0 0 0
SMALL
GASTEIGER

@<TRIPOS>ATOM
      1  C1        46.3160    8.7190    0.0150 C.ar  300  509300      0.0000
      2  C2        45.0090    9.2180   -0.0350 C.ar  300  509300      0.0000
      3  C3        44.7480   10.5400    0.3400 C.ar  300  509300      0.0005
      4  C4        45.8110   11.3700    0.7390 C.ar  300  509300      0.0066
      5  C5        47.1210   10.8600    0.7890 C.ar  300  509300      0.0005
      6  C6        47.3750    9.5350    0.4210 C.ar  300  509300      0.0000
      7  C7        45.5390   12.7420    1.1450 C.ar  300  509300      0.0389
      8  C8        46.0050   13.4030    2.2410 C.ar  300  509300      0.0752
      9  C9        45.5610   14.7340    2.3980 C.ar  300  509300      0.1583
     10  C10       44.7080   15.0700    1.3730 C.ar  300  509300      0.1437
     11  S1        44.4990   13.7740    0.2710 S.2   300  509300     -0.0768
     12  C11       43.9960   16.4520    1.1670 C.2   300  509300      0.3966
     13  O1        43.5570   16.6510   -0.0020 O.co2 300  509300     -0.2399
     14  O2        43.9340   17.2410    2.1580 O.co2 300  509300     -0.2399
     15  O3        45.9320   15.5320    3.4260 O.3   300  509300     -0.4625
     16  C12       47.1380   16.2780    3.2020 C.3   300  509300      0.3186
     17  C13       47.5240   17.0040    4.5010 C.2   300  509300      0.4084
     18  O4        48.5950   17.6430    4.4450 O.co2 300  509300     -0.2415
     19  O5        46.7690   16.9050    5.4950 O.co2 300  509300     -0.2415
     20 BR1        47.1990   12.6480    3.4640 Br    300  509300     -0.0453
@<TRIPOS>BOND
     1     2     1   ar
     2     2     3   ar
     3    13    12   ar
     4     1     6   ar
     5    11     7   ar
     6    11    10   ar
     7     3     4   ar
     8     6     5   ar
     9     4     5   ar
    10     4     7    1
    11     7     8   ar
    12    12    10    1
    13    12    14   ar
    14    10     9   ar
    15     8     9   ar
    16     8    20    1
    17     9    15    1
    18    16    15    1
    19    16    17    1
    20    18    17   ar
    21    17    19   ar
