@<TRIPOS>MOLECULE
2h4l_R1P_X_1.pdb
 14 14 0 0 0
SMALL
GASTEIGER

@<TRIPOS>ATOM
      1  C5'      -49.6740  -13.3930   13.7200 C.3   600  R1P600      0.2142
      2  O5'      -49.3580  -13.5380   12.3360 O.3   600  R1P600     -0.2176
      3  C4'      -48.4570  -13.8390   14.5100 C.3   600  R1P600      0.1836
      4  O4'      -48.3300  -13.0760   15.7120 O.3   600  R1P600     -0.3253
      5  C1'      -48.2680  -13.9020   16.8650 C.3   600  R1P600      0.2781
      6  C2'      -48.4900  -15.3360   16.4210 C.3   600  R1P600      0.2409
      7  O2'      -47.5030  -16.2440   16.9030 O.3   600  R1P600     -0.2149
      8  C3'      -48.5510  -15.2980   14.9040 C.3   600  R1P600      0.2168
      9  O3'      -47.3920  -15.9140   14.3770 O.3   600  R1P600     -0.2175
     10  O1'      -46.8820  -13.8270   17.1600 O.3   600  R1P600     -0.2416
     11  P        -46.2130  -12.7840   18.1670 P.3   600  R1P600      0.5346
     12  O1P      -44.8790  -12.2310   17.5040 O.2   600  R1P600     -0.2223
     13  O2P      -47.1930  -11.5920   18.5280 O.3   600  R1P600     -0.1145
     14  O3P      -45.8710  -13.5530   19.5230 O.3   600  R1P600     -0.1145
@<TRIPOS>BOND
     1     2     1    1
     2     1     3    1
     3     9     8    1
     4     3     8    1
     5     3     4    1
     6     8     6    1
     7     4     5    1
     8     6     5    1
     9     6     7    1
    10     5    10    1
    11    10    11    1
    12    12    11    2
    13    11    13    1
    14    11    14    1
