@<TRIPOS>MOLECULE
2h4n_AZM_A_1.pdb
 13 13 0 0 0
SMALL
GASTEIGER

@<TRIPOS>ATOM
      1  C1        -5.3540    2.1150   15.4970 C.ar  264  AZM264      0.2590
      2  C2        -4.8140    4.0300   14.1770 C.ar  264  AZM264      0.2093
      3  C3        -5.6840    5.9910   13.0410 C.2   264  AZM264      0.2478
      4  C4        -5.2930    7.0450   12.0420 C.3   264  AZM264      0.0969
      5  N1        -5.4970   -0.5130   15.6740 N.3   264  AZM264      0.0413
      6  N2        -3.6960    3.2500   14.4490 N.ar  264  AZM264     -0.1222
      7  N3        -4.0070    2.1330   15.2070 N.ar  264  AZM264     -0.1189
      8  N4        -4.7000    5.1600   13.3840 N.am  264  AZM264     -0.1528
      9  O1        -5.6590    0.7830   17.7850 O.2   264  AZM264     -0.1483
     10  O2        -7.4940    0.9060   16.0290 O.2   264  AZM264     -0.1483
     11  O3        -6.8430    5.8550   13.4400 O.2   264  AZM264     -0.2729
     12  S1        -6.1030    0.7890   16.4000 S.O2  264  AZM264      0.1178
     13  S2        -6.2860    3.4580   14.9010 S.2   264  AZM264     -0.0087
@<TRIPOS>BOND
     1     4     3    1
     2     3     8   am
     3     3    11    2
     4     8     2    1
     5     2     6   ar
     6     2    13   ar
     7     6     7   ar
     8    13     1   ar
     9     7     1   ar
    10     1    12    1
    11     5    12    1
    12    10    12    2
    13    12     9    2
