@<TRIPOS>MOLECULE
2h4w_III_C_1.pdb
 31 31 0 0 0
SMALL
GASTEIGER

@<TRIPOS>ATOM
      1  C1        31.8390   66.6590    9.9150 C.2     1  PHQ1        0.4218
      2  O1        31.6330   66.2050   11.0310 O.2     1  PHQ1       -0.2245
      3  O2        32.1310   68.0730    9.7340 O.3     1  PHQ1       -0.4285
      4  C2        32.4600   68.9420   10.8180 C.3     1  PHQ1        0.2368
      5  C3        33.9300   69.3460   10.7370 C.ar    1  PHQ1        0.0213
      6  C4        34.4520   70.2380   11.6800 C.ar    1  PHQ1       -0.0007
      7  C5        35.8320   70.4560   11.7330 C.ar    1  PHQ1       -0.0002
      8  C6        36.6820   69.7560   10.8670 C.ar    1  PHQ1       -0.0000
      9  C7        36.1460   69.0420    9.7950 C.ar    1  PHQ1       -0.0002
     10  C8        34.7710   68.7990    9.7560 C.ar    1  PHQ1       -0.0007
     11  N         31.8130   65.9290    8.8080 N.am    2  VAL2       -0.1611
     12  CA        31.2040   64.6150    8.6920 C.3     2  VAL2        0.1760
     13  C         32.2280   63.6370    8.1650 C.2     2  VAL2        0.2617
     14  O         33.1570   64.0450    7.4850 O.2     2  VAL2       -0.2715
     15  CB        29.9600   64.7800    7.8080 C.3     2  VAL2        0.0291
     16  CG1       29.5920   63.5680    6.9560 C.3     2  VAL2        0.0023
     17  CG2       28.7630   65.2120    8.6570 C.3     2  VAL2        0.0023
     18  N         32.0930   62.3460    8.4820 N.am    3  ALA3       -0.1963
     19  CA        32.9280   61.3240    7.8620 C.3     3  ALA3        0.1728
     20  C         32.4780   61.0010    6.4630 C.2     3  ALA3        0.2613
     21  O         31.2890   60.8600    6.2000 O.2     3  ALA3       -0.2715
     22  CB        32.9680   60.0510    8.7020 C.3     3  ALA3        0.0334
     23  N         33.4520   60.8690    5.5550 N.am    4  ASP4       -0.2026
     24  CA        33.2360   60.3150    4.2230 C.3     4  ASP4        0.1368
     25  C         32.9400   58.8060    4.1960 C.3     4  ASP4        0.1724
     26  O         33.5540   58.1980    3.0740 O.3     4  ASP4       -0.2213
     27  CB        34.3880   60.7230    3.3030 C.3     4  ASP4        0.1382
     28  CG        33.9530   61.9040    2.4640 C.2     4  ASP4        0.3667
     29  OD1       32.7340   62.1000    2.2820 O.co2   4  ASP4       -0.2456
     30  OD2       34.8240   62.6470    1.9720 O.co2   4  ASP4       -0.2456
     31  C1        33.3570   58.0370    5.4450 C.3     5  CF05        0.0374
@<TRIPOS>BOND
     1    30    28   ar
     2    29    28   ar
     3    28    27    1
     4    26    25    1
     5    27    24    1
     6    25    24    1
     7    25    31    1
     8    24    23    1
     9    23    20   am
    10    21    20    2
    11    20    19    1
    12    16    15    1
    13    14    13    2
    14    15    17    1
    15    15    12    1
    16    19    18    1
    17    19    22    1
    18    13    18   am
    19    13    12    1
    20    12    11    1
    21    11     1   am
    22     3     1    1
    23     3     4    1
    24    10     9   ar
    25    10     5   ar
    26     9     8   ar
    27     1     2    2
    28     5     4    1
    29     5     6   ar
    30     8     7   ar
    31     6     7   ar
