@<TRIPOS>MOLECULE
2h4x_3PG_A_1.pdb
 11 10 0 0 0
SMALL
GASTEIGER

@<TRIPOS>ATOM
      1  C1        40.0780   30.1770   69.5970 C.2   1408  3PG1408     0.3972
      2  O1        38.8290   30.4870   69.1450 O.co2 1408  3PG1408    -0.2427
      3  O2        40.2580   28.9010   69.8870 O.co2 1408  3PG1408    -0.2427
      4  C2        41.1020   31.2240   69.7140 C.3   1408  3PG1408     0.2838
      5  O3        40.7280   32.1000   70.7910 O.3   1408  3PG1408    -0.2081
      6  C3        41.2350   31.9880   68.4180 C.3   1408  3PG1408     0.1983
      7  O1P       41.6610   31.1710   67.3870 O.3   1408  3PG1408    -0.2669
      8  P         42.2940   31.8540   66.0370 P.3   1408  3PG1408     0.5327
      9  O2P       41.1150   32.8030   65.3200 O.3   1408  3PG1408    -0.1145
     10  O3P       43.6190   32.8040   66.4230 O.3   1408  3PG1408    -0.1145
     11  O4P       42.7240   30.6520   64.9480 O.2   1408  3PG1408    -0.2224
@<TRIPOS>BOND
     1    11     8    2
     2     9     8    1
     3     8    10    1
     4     8     7    1
     5     7     6    1
     6     6     4    1
     7     2     1   ar
     8     1     4    1
     9     1     3   ar
    10     4     5    1
