@<TRIPOS>MOLECULE
2h4y_III_C_1.pdb
 31 31 0 0 0
SMALL
GASTEIGER

@<TRIPOS>ATOM
      1  C1        58.3160   37.1500   50.0720 C.2     1  PHQ1        0.4218
      2  O1        58.9240   36.8860   51.0980 O.2     1  PHQ1       -0.2245
      3  O2        56.8880   37.4410   50.1260 O.3     1  PHQ1       -0.4285
      4  C2        56.2750   37.9920   51.2930 C.3     1  PHQ1        0.2368
      5  C3        55.7660   39.4110   51.0520 C.ar    1  PHQ1        0.0213
      6  C4        54.9350   40.0090   52.0050 C.ar    1  PHQ1       -0.0007
      7  C5        54.6090   41.3640   51.8990 C.ar    1  PHQ1       -0.0002
      8  C6        55.0880   42.1140   50.8230 C.ar    1  PHQ1       -0.0000
      9  C7        55.9030   41.5100   49.8600 C.ar    1  PHQ1       -0.0002
     10  C8        56.1380   40.1340   49.9130 C.ar    1  PHQ1       -0.0007
     11  N         58.8890   37.1860   48.8710 N.am    2  VAL2       -0.1611
     12  CA        60.0660   36.4180   48.4980 C.3     2  VAL2        0.1760
     13  C         60.9410   37.2440   47.5920 C.2     2  VAL2        0.2617
     14  O         60.4380   37.9400   46.7210 O.2     2  VAL2       -0.2715
     15  CB        59.6260   35.0860   47.8700 C.3     2  VAL2        0.0291
     16  CG1       60.5940   34.5140   46.8360 C.3     2  VAL2        0.0023
     17  CG2       59.3660   34.0380   48.9500 C.3     2  VAL2        0.0023
     18  N         62.2570   37.1750   47.8040 N.am    3  ALA3       -0.1963
     19  CA        63.2190   37.9190   47.0070 C.3     3  ALA3        0.1728
     20  C         63.4210   37.3140   45.6480 C.2     3  ALA3        0.2613
     21  O         63.4060   36.1020   45.4980 O.2     3  ALA3       -0.2715
     22  CB        64.5550   38.0100   47.7380 C.3     3  ALA3        0.0334
     23  N         63.6180   38.1760   44.6470 N.am    4  ASP4       -0.2026
     24  CA        63.7590   37.7510   43.2610 C.3     4  ASP4        0.1368
     25  C         65.2250   37.5100   42.8510 C.3     4  ASP4        0.1724
     26  O         65.5250   38.1390   41.6130 O.3     4  ASP4       -0.2213
     27  CB        63.0210   38.7180   42.3340 C.3     4  ASP4        0.1382
     28  CG        61.7510   38.0910   41.7970 C.2     4  ASP4        0.3667
     29  OD1       61.6370   36.8430   41.7530 O.co2   4  ASP4       -0.2456
     30  OD2       60.8450   38.8550   41.4050 O.co2   4  ASP4       -0.2456
     31  C1        66.2640   37.9530   43.8810 C.3     5  CF05        0.0374
@<TRIPOS>BOND
     1    30    28   ar
     2    26    25    1
     3    29    28   ar
     4    28    27    1
     5    27    24    1
     6    25    24    1
     7    25    31    1
     8    24    23    1
     9    23    20   am
    10    21    20    2
    11    20    19    1
    12    14    13    2
    13    16    15    1
    14    19    22    1
    15    19    18    1
    16    13    18   am
    17    13    12    1
    18    15    12    1
    19    15    17    1
    20    12    11    1
    21    11     1   am
    22     9    10   ar
    23     9     8   ar
    24    10     5   ar
    25     1     3    1
    26     1     2    2
    27     3     4    1
    28     8     7   ar
    29     5     4    1
    30     5     6   ar
    31     7     6   ar
