@<TRIPOS>MOLECULE
2h4z_DG2_A_1.pdb
 15 14 0 0 0
SMALL
GASTEIGER

@<TRIPOS>ATOM
      1  C3        41.5650   31.3130   69.5040 C.3   1002  DG21002     0.2583
      2  C4        41.8660   32.0510   68.1970 C.3   1002  DG21002     0.1954
      3  O2        41.1030   32.2580   70.4730 O.3   1002  DG21002    -0.2584
      4  O5        42.3620   31.1680   67.1870 O.3   1002  DG21002    -0.2670
      5  O7        39.6120   30.4880   68.4210 O.co2 1002  DG21002    -0.2428
      6  O8        40.5490   29.2210   69.9880 O.co2 1002  DG21002    -0.2428
      7  O9        40.6790   31.0170   72.6940 O.3   1002  DG21002    -0.1145
      8  O10       43.0840   31.6250   72.0220 O.2   1002  DG21002    -0.2224
      9  O11       41.4500   33.4640   72.7260 O.3   1002  DG21002    -0.1145
     10  P1        41.5690   32.1730   72.0130 P.3   1002  DG21002     0.5331
     11  C7        40.4880   30.2490   69.2820 C.2   1002  DG21002     0.3945
     12  P6        42.8680   31.7560   65.7760 P.3   1002  DG21002     0.5327
     13  O15       41.6490   32.6000   65.1490 O.3   1002  DG21002    -0.1145
     14  O14       44.0250   32.8170   66.1320 O.3   1002  DG21002    -0.1145
     15  O13       43.3420   30.6950   64.8600 O.2   1002  DG21002    -0.2224
@<TRIPOS>BOND
     1    15    12    2
     2    13    12    1
     3    12    14    1
     4    12     4    1
     5     4     2    1
     6     2     1    1
     7     5    11   ar
     8    11     1    1
     9    11     6   ar
    10     1     3    1
    11     3    10    1
    12    10     8    2
    13    10     7    1
    14    10     9    1
