@<TRIPOS>MOLECULE
2h51_III_C_1.pdb
 31 31 0 0 0
SMALL
GASTEIGER

@<TRIPOS>ATOM
      1  C1        58.1740   37.0580   49.9900 C.2     1  PHQ1        0.4218
      2  O1        58.7880   36.8570   51.0280 O.2     1  PHQ1       -0.2245
      3  O2        56.7580   37.4010   50.0420 O.3     1  PHQ1       -0.4285
      4  C2        56.1530   37.9230   51.2280 C.3     1  PHQ1        0.2368
      5  C3        55.6140   39.3360   51.0180 C.ar    1  PHQ1        0.0213
      6  C4        54.7760   39.8980   51.9850 C.ar    1  PHQ1       -0.0007
      7  C5        54.4920   41.2660   51.9540 C.ar    1  PHQ1       -0.0002
      8  C6        54.9660   42.0540   50.9010 C.ar    1  PHQ1       -0.0000
      9  C7        55.7370   41.4730   49.8900 C.ar    1  PHQ1       -0.0002
     10  C8        55.9700   40.0950   49.8970 C.ar    1  PHQ1       -0.0007
     11  N         58.7280   36.9810   48.7790 N.am    2  VAL2       -0.1611
     12  CA        59.9570   36.2620   48.4810 C.3     2  VAL2        0.1760
     13  C         60.8270   37.0840   47.5640 C.2     2  VAL2        0.2617
     14  O         60.3140   37.7660   46.6880 O.2     2  VAL2       -0.2715
     15  CB        59.6050   34.8780   47.9160 C.3     2  VAL2        0.0291
     16  CG1       60.5800   34.3400   46.8700 C.3     2  VAL2        0.0023
     17  CG2       59.4510   33.8620   49.0450 C.3     2  VAL2        0.0023
     18  N         62.1440   37.0240   47.7750 N.am    3  ALA3       -0.1963
     19  CA        63.1220   37.7440   46.9740 C.3     3  ALA3        0.1728
     20  C         63.2880   37.1630   45.5970 C.2     3  ALA3        0.2613
     21  O         63.2540   35.9530   45.4270 O.2     3  ALA3       -0.2715
     22  CB        64.4680   37.7530   47.6910 C.3     3  ALA3        0.0334
     23  N         63.4800   38.0420   44.6080 N.am    4  ASP4       -0.2026
     24  CA        63.6380   37.6450   43.2140 C.3     4  ASP4        0.1368
     25  C         65.1070   37.4220   42.8070 C.3     4  ASP4        0.1724
     26  O         65.4010   38.0630   41.5720 O.3     4  ASP4       -0.2213
     27  CB        62.9000   38.6200   42.2960 C.3     4  ASP4        0.1382
     28  CG        61.6520   37.9840   41.7170 C.2     4  ASP4        0.3667
     29  OD1       61.5240   36.7380   41.7300 O.co2   4  ASP4       -0.2456
     30  OD2       60.7800   38.7380   41.2360 O.co2   4  ASP4       -0.2456
     31  C1        66.1350   37.8670   43.8460 C.3     5  CF05        0.0374
@<TRIPOS>BOND
     1    30    28   ar
     2    26    25    1
     3    28    29   ar
     4    28    27    1
     5    27    24    1
     6    25    24    1
     7    25    31    1
     8    24    23    1
     9    23    20   am
    10    21    20    2
    11    20    19    1
    12    14    13    2
    13    16    15    1
    14    19    22    1
    15    19    18    1
    16    13    18   am
    17    13    12    1
    18    15    12    1
    19    15    17    1
    20    12    11    1
    21    11     1   am
    22     9    10   ar
    23     9     8   ar
    24    10     5   ar
    25     1     3    1
    26     1     2    2
    27     3     4    1
    28     8     7   ar
    29     5     4    1
    30     5     6   ar
    31     7     6   ar
