@<TRIPOS>MOLECULE
2h52_3PG_A_1.pdb
 11 10 0 0 0
SMALL
GASTEIGER

@<TRIPOS>ATOM
      1  C1        40.5580   29.9880   69.6180 C.2   1408  3PG1408     0.3972
      2  O1        39.3000   30.2370   69.1460 O.co2 1408  3PG1408    -0.2427
      3  O2        40.7590   28.7390   70.0230 O.co2 1408  3PG1408    -0.2427
      4  C2        41.5690   31.0630   69.6350 C.3   1408  3PG1408     0.2838
      5  O3        41.2920   31.9170   70.7640 O.3   1408  3PG1408    -0.2081
      6  C3        41.5490   31.8490   68.3320 C.3   1408  3PG1408     0.1983
      7  O1P       41.9860   31.0700   67.2740 O.3   1408  3PG1408    -0.2669
      8  P         42.6300   31.7760   65.9420 P.3   1408  3PG1408     0.5327
      9  O2P       41.4670   32.7440   65.2190 O.3   1408  3PG1408    -0.1145
     10  O3P       43.9550   32.7060   66.3650 O.3   1408  3PG1408    -0.1145
     11  O4P       43.0760   30.5920   64.8240 O.2   1408  3PG1408    -0.2224
@<TRIPOS>BOND
     1    11     8    2
     2     9     8    1
     3     8    10    1
     4     8     7    1
     5     7     6    1
     6     6     4    1
     7     2     1   ar
     8     1     4    1
     9     1     3   ar
    10     4     5    1
