@<TRIPOS>MOLECULE
2h54_III_C_1.pdb
 31 31 0 0 0
SMALL
GASTEIGER

@<TRIPOS>ATOM
      1  C1        31.5690   66.5290    9.7170 C.2     1  PHQ1        0.4218
      2  O1        31.2720   66.0980   10.8220 O.2     1  PHQ1       -0.2245
      3  O2        31.8520   67.9480    9.5410 O.3     1  PHQ1       -0.4285
      4  C2        32.1880   68.7950   10.6430 C.3     1  PHQ1        0.2368
      5  C3        33.6360   69.2740   10.5660 C.ar    1  PHQ1        0.0213
      6  C4        34.0800   70.2530   11.4600 C.ar    1  PHQ1       -0.0007
      7  C5        35.4450   70.5310   11.5690 C.ar    1  PHQ1       -0.0002
      8  C6        36.3610   69.8730   10.7420 C.ar    1  PHQ1       -0.0000
      9  C7        35.9070   68.9580    9.7890 C.ar    1  PHQ1       -0.0002
     10  C8        34.5360   68.7310    9.6400 C.ar    1  PHQ1       -0.0007
     11  N         31.6550   65.7660    8.6280 N.am    2  VAL2       -0.1611
     12  CA        30.9800   64.4890    8.4510 C.3     2  VAL2        0.1760
     13  C         31.9350   63.4850    7.8540 C.2     2  VAL2        0.2617
     14  O         32.7820   63.8540    7.0510 O.2     2  VAL2       -0.2715
     15  CB        29.7170   64.7170    7.6080 C.3     2  VAL2        0.0291
     16  CG1       29.3620   63.5790    6.6530 C.3     2  VAL2        0.0023
     17  CG2       28.5200   65.0460    8.4980 C.3     2  VAL2        0.0023
     18  N         31.8130   62.2160    8.2540 N.am    3  ALA3       -0.1963
     19  CA        32.6360   61.1390    7.7210 C.3     3  ALA3        0.1728
     20  C         32.2520   60.7630    6.3160 C.2     3  ALA3        0.2613
     21  O         31.0840   60.7960    5.9620 O.2     3  ALA3       -0.2715
     22  CB        32.5480   59.9120    8.6240 C.3     3  ALA3        0.0334
     23  N         33.2500   60.3920    5.5100 N.am    4  ASP4       -0.2026
     24  CA        33.0370   59.9320    4.1420 C.3     4  ASP4        0.1368
     25  C         32.8230   58.4100    4.0380 C.3     4  ASP4        0.1724
     26  O         33.6010   57.8460    2.9910 O.3     4  ASP4       -0.2213
     27  CB        34.1630   60.4480    3.2410 C.3     4  ASP4        0.1382
     28  CG        33.6740   61.5860    2.3700 C.2     4  ASP4        0.3667
     29  OD1       32.4450   61.7400    2.1880 O.co2   4  ASP4       -0.2456
     30  OD2       34.5260   62.3420    1.8530 O.co2   4  ASP4       -0.2456
     31  C1        33.1080   57.6290    5.3210 C.3     5  CF05        0.0374
@<TRIPOS>BOND
     1    30    28   ar
     2    29    28   ar
     3    28    27    1
     4    26    25    1
     5    27    24    1
     6    25    24    1
     7    25    31    1
     8    24    23    1
     9    23    20   am
    10    21    20    2
    11    20    19    1
    12    16    15    1
    13    14    13    2
    14    15    12    1
    15    15    17    1
    16    19    18    1
    17    19    22    1
    18    13    18   am
    19    13    12    1
    20    12    11    1
    21    11     1   am
    22     3     1    1
    23     3     4    1
    24    10     9   ar
    25    10     5   ar
    26     1     2    2
    27     9     8   ar
    28     5     4    1
    29     5     6   ar
    30     8     7   ar
    31     6     7   ar
