@<TRIPOS>MOLECULE
2h55_DZ8_A_1.pdb
 29 32 0 0 0
SMALL
GASTEIGER

@<TRIPOS>ATOM
      1  C96        0.6040    5.5400   27.0940 C.3   1001  DZ81001     0.0188
      2  C94        2.0980    5.2110   27.0560 C.3   1001  DZ81001     0.0729
      3  C95        2.5400    4.5540   28.3650 C.3   1001  DZ81001     0.0188
      4  N94        2.8740    6.4410   26.8420 N.3   1001  DZ81001    -0.2194
      5  C93        2.6170    6.9800   25.4980 C.3   1001  DZ81001     0.0904
      6  C92        3.6810    8.0250   25.1510 C.3   1001  DZ81001     0.0407
      7  C91        3.2900    9.4140   25.6620 C.3   1001  DZ81001     0.1016
      8  N9         2.0880    9.8740   24.9500 N.pl3 1001  DZ81001    -0.2384
      9  C4         0.9600   10.1400   25.5980 C.2   1001  DZ81001     0.2370
     10  N3         0.4060    9.5950   26.6890 N.2   1001  DZ81001    -0.2987
     11  C2        -0.8870    9.8050   26.9720 C.1   1001  DZ81001     0.2999
     12  F2        -1.3800    9.3980   28.1590 F     1001  DZ81001    -0.0976
     13  N1        -1.6850   10.4450   26.1060 N.2   1001  DZ81001    -0.2959
     14  C6        -1.2140   10.8670   24.9240 C.2   1001  DZ81001     0.2668
     15  N6        -2.0150   11.5500   24.1100 N.pl3 1001  DZ81001    -0.0892
     16  C5         0.1540   10.8130   24.6870 C.2   1001  DZ81001     0.2251
     17  N7         0.9130   11.0860   23.6280 N.2   1001  DZ81001    -0.3827
     18  C8         2.1540   10.6860   23.8980 C.2   1001  DZ81001     0.1703
     19  C81        3.3890   10.9170   23.0220 C.3   1001  DZ81001     0.1020
     20  C1'        4.2970   11.9660   23.6690 C.ar  1001  DZ81001    -0.0051
     21  C6'        3.6870   13.1050   24.1830 C.ar  1001  DZ81001     0.0368
     22  C5'        4.4420   14.1610   24.6830 C.ar  1001  DZ81001     0.1761
     23  O3'        4.0900   15.4120   25.0860 O.3   1001  DZ81001    -0.4346
     24  C7'        5.2410   15.9050   25.7870 C.3   1001  DZ81001     0.4294
     25  O1'        6.3490   15.2330   25.1700 O.3   1001  DZ81001    -0.4346
     26  C4'        5.8280   14.0570   24.7260 C.ar  1001  DZ81001     0.1768
     27  C3'        6.4350   12.8690   24.3330 C.ar  1001  DZ81001     0.0457
     28  C2'        5.6840   11.8690   23.7260 C.ar  1001  DZ81001     0.0298
     29  I          6.6610   10.1240   23.1020 I     1001  DZ81001    -0.0427
@<TRIPOS>BOND
     1    19    20    1
     2    19    18    1
     3    29    28    1
     4    17    18    2
     5    17    16    2
     6    20    28   ar
     7    20    21   ar
     8    28    27   ar
     9    18     8    1
    10    15    14    1
    11    21    22   ar
    12    27    26   ar
    13    22    26   ar
    14    22    23    1
    15    16    14    1
    16    16     9    1
    17    26    25    1
    18    14    13    2
    19     8     9    1
    20     8     7    1
    21    23    24    1
    22     6     5    1
    23     6     7    1
    24    25    24    1
    25     5     4    1
    26     9    10    2
    27    13    11    2
    28    10    11    2
    29     4     2    1
    30    11    12    1
    31     2     1    1
    32     2     3    1
