@<TRIPOS>MOLECULE
2h57_GTP_A_1.pdb
 32 34 0 0 0
SMALL
GASTEIGER

@<TRIPOS>ATOM
      1  PG         2.5800   41.6770   22.7610 P.3   201  GTP201      0.5373
      2  O1G        2.8760   43.0750   23.1300 O.3   201  GTP201     -0.1143
      3  O2G        1.3460   41.0700   23.4550 O.3   201  GTP201     -0.1143
      4  O3G        3.7000   40.7640   22.9150 O.2   201  GTP201     -0.2221
      5  O3B        2.2970   41.8030   21.1340 O.3   201  GTP201     -0.2258
      6  PB         1.6780   40.6870   20.2410 P.3   201  GTP201      0.2277
      7  O1B        2.6630   39.6880   19.7380 O.2   201  GTP201     -0.5168
      8  O2B        0.6410   39.8670   20.8730 O.3   201  GTP201     -0.4368
      9  O3A        0.9340   41.5140   19.0280 O.3   201  GTP201     -0.2700
     10  PA        -0.6490   41.7730   18.7680 P.3   201  GTP201      0.2189
     11  O1A       -1.3890   40.5250   18.5200 O.2   201  GTP201     -0.5170
     12  O2A       -1.1460   42.6940   19.8670 O.3   201  GTP201     -0.4371
     13  O5'       -0.5680   42.6460   17.4160 O.3   201  GTP201     -0.3112
     14  C5'        0.1630   43.8570   17.3450 C.3   201  GTP201      0.1813
     15  C4'       -0.3620   44.7850   16.2550 C.3   201  GTP201      0.1799
     16  O4'       -0.1080   44.2160   14.9800 O.3   201  GTP201     -0.3326
     17  C3'       -1.8730   45.0060   16.3320 C.3   201  GTP201      0.2158
     18  O3'       -2.1580   46.3380   15.9700 O.3   201  GTP201     -0.2175
     19  C2'       -2.4330   44.0280   15.3400 C.3   201  GTP201      0.2310
     20  O2'       -3.6870   44.4180   14.8230 O.3   201  GTP201     -0.2158
     21  C1'       -1.3230   43.9760   14.2960 C.3   201  GTP201      0.2293
     22  N9        -1.2040   42.7030   13.5530 N.pl3 201  GTP201     -0.2354
     23  C8        -1.1550   41.4310   14.0270 C.3   201  GTP201      0.2246
     24  N7        -1.0410   40.5970   13.0030 N.2   201  GTP201     -0.2322
     25  C5        -1.0090   41.3020   11.8680 C.2   201  GTP201      0.2182
     26  C6        -0.9180   40.9650   10.5350 C.1   201  GTP201      0.2372
     27  O6        -0.8020   39.8170   10.1410 O.2   201  GTP201     -0.2069
     28  N1        -0.9270   41.9610    9.5900 N.2   201  GTP201     -0.2485
     29  C2        -1.0090   43.2730    9.9490 C.1   201  GTP201      0.2531
     30  N2        -1.0330   44.1990    8.9990 N.pl3 201  GTP201     -0.0226
     31  N3        -1.1230   43.6260   11.2600 N.2   201  GTP201     -0.3074
     32  C4        -1.1180   42.6310   12.2050 C.2   201  GTP201      0.2300
@<TRIPOS>BOND
     1    30    29    1
     2    28    29    2
     3    28    26    2
     4    29    31    2
     5    27    26    2
     6    26    25    1
     7    31    32    2
     8    25    32    1
     9    25    24    2
    10    32    22    1
    11    24    23    1
    12    22    23    1
    13    22    21    1
    14    21    16    1
    15    21    19    1
    16    20    19    1
    17    16    15    1
    18    19    17    1
    19    18    17    1
    20    15    17    1
    21    15    14    1
    22    14    13    1
    23    13    10    1
    24    11    10    2
    25    10     9    1
    26    10    12    1
    27     9     6    1
    28     7     6    2
    29     6     8    1
    30     6     5    1
    31     5     1    1
    32     1     4    2
    33     1     2    1
    34     1     3    1
