@<TRIPOS>MOLECULE
2h58_ADP_A_1.pdb
 27 29 0 0 0
SMALL
GASTEIGER

@<TRIPOS>ATOM
      1  PB       -10.1280   29.7650   49.4030 P.3   901  ADP901      0.5373
      2  O1B      -10.2300   30.8710   50.3890 O.3   901  ADP901     -0.1143
      3  O2B       -9.0230   28.7690   49.6810 O.3   901  ADP901     -0.1143
      4  O3B      -11.4790   29.1950   49.0500 O.2   901  ADP901     -0.2221
      5  PA        -8.7330   30.0330   46.8340 P.3   901  ADP901      0.2231
      6  O1A       -7.2890   30.1190   47.1560 O.3   901  ADP901     -0.4370
      7  O2A       -9.3490   28.8400   46.1840 O.2   901  ADP901     -0.5169
      8  O3A       -9.6500   30.5160   48.0450 O.3   901  ADP901     -0.2261
      9  O5'       -8.9290   31.2870   45.8160 O.3   901  ADP901     -0.3111
     10  C5'      -10.1340   31.5050   45.0870 C.3   901  ADP901      0.1813
     11  C4'       -9.7510   32.0140   43.6860 C.3   901  ADP901      0.1821
     12  O4'       -9.1230   33.3000   43.8160 O.3   901  ADP901     -0.3135
     13  C3'       -8.7460   31.1000   43.0220 C.3   901  ADP901      0.2184
     14  O3'       -9.0120   30.9510   41.6280 O.3   901  ADP901     -0.2174
     15  C2'       -7.4280   31.7930   43.2060 C.3   901  ADP901      0.2570
     16  O2'       -6.5170   31.4920   42.1540 O.3   901  ADP901     -0.2130
     17  C1'       -7.8210   33.2530   43.2490 C.3   901  ADP901      0.3186
     18  N9        -6.9480   34.0580   44.1090 N.pl3 901  ADP901     -0.1439
     19  C8        -6.9740   34.0810   45.4520 C.3   901  ADP901      0.3377
     20  N7        -6.0600   34.9340   45.9290 N.2   901  ADP901     -0.2095
     21  C5        -5.4280   35.4660   44.8720 C.2   901  ADP901      0.2526
     22  C6        -4.3440   36.4190   44.6830 C.2   901  ADP901      0.4393
     23  N6        -3.7680   36.9910   45.7350 N.pl3 901  ADP901      0.2180
     24  N1        -3.9630   36.7210   43.4310 N.2   901  ADP901      0.0021
     25  C2        -4.5410   36.1470   42.3700 C.3   901  ADP901      0.5254
     26  N3        -5.5420   35.2510   42.4550 N.2   901  ADP901     -0.0055
     27  C4        -6.0110   34.8900   43.6750 C.2   901  ADP901      0.3518
@<TRIPOS>BOND
     1    14    13    1
     2    16    15    1
     3    25    26    1
     4    25    24    1
     5    26    27    2
     6    13    15    1
     7    13    11    1
     8    15    17    1
     9    17    12    1
    10    17    18    1
    11    24    22    2
    12    27    18    1
    13    27    21    1
    14    11    12    1
    15    11    10    1
    16    18    19    1
    17    22    21    1
    18    22    23    1
    19    21    20    2
    20    10     9    1
    21    19    20    1
    22     9     5    1
    23     7     5    2
    24     5     6    1
    25     5     8    1
    26     8     1    1
    27     4     1    2
    28     1     3    1
    29     1     2    1
