@<TRIPOS>MOLECULE
2h5a_X1P_X_1.pdb
 14 14 0 0 0
SMALL
GASTEIGER

@<TRIPOS>ATOM
      1  C1       -48.2460  -14.0200   16.3590 C.3   600  X1P600      0.2781
      2  O1       -46.9950  -13.3260   16.4110 O.3   600  X1P600     -0.2416
      3  P        -46.3920  -12.7730   17.8010 P.3   600  X1P600      0.5346
      4  O1P      -46.0910  -13.9640   18.6810 O.3   600  X1P600     -0.1145
      5  O2P      -47.3990  -11.8500   18.4640 O.3   600  X1P600     -0.1145
      6  O3P      -45.1440  -12.0070   17.4500 O.2   600  X1P600     -0.2223
      7  C2       -48.0590  -15.5440   16.2730 C.3   600  X1P600      0.2410
      8  O2       -47.3920  -16.0550   17.4250 O.3   600  X1P600     -0.2149
      9  C3       -47.2970  -15.9240   14.9990 C.3   600  X1P600      0.2198
     10  O3       -47.0740  -17.3330   14.9660 O.3   600  X1P600     -0.2174
     11  C4       -48.1030  -15.4140   13.7980 C.3   600  X1P600      0.2143
     12  O4       -47.4240  -15.6170   12.5630 O.3   600  X1P600     -0.2176
     13  C5       -48.3440  -13.9090   13.9610 C.3   600  X1P600      0.1803
     14  O5       -48.9850  -13.5800   15.2080 O.3   600  X1P600     -0.3254
@<TRIPOS>BOND
     1    12    11    1
     2    11    13    1
     3    11     9    1
     4    13    14    1
     5    10     9    1
     6     9     7    1
     7    14     1    1
     8     7     1    1
     9     7     8    1
    10     1     2    1
    11     2     3    1
    12     6     3    2
    13     3     5    1
    14     3     4    1
