@<TRIPOS>MOLECULE
2h5e_GDP_A_1.pdb
 28 30 0 0 0
SMALL
GASTEIGER

@<TRIPOS>ATOM
      1  PB        -2.7820   26.7130   -1.1860 P.3   2567  GDP2567     0.5373
      2  O1B       -3.3700   27.0580   -2.5000 O.2   2567  GDP2567    -0.2221
      3  O2B       -1.3040   27.1470   -1.2220 O.3   2567  GDP2567    -0.1143
      4  O3B       -3.5770   27.4540   -0.1000 O.3   2567  GDP2567    -0.1143
      5  O3A       -2.8600   25.1090   -0.9010 O.3   2567  GDP2567    -0.2261
      6  PA        -4.0550   24.4740   -0.0380 P.3   2567  GDP2567     0.2231
      7  O1A       -3.7760   24.7030    1.3680 O.3   2567  GDP2567    -0.4370
      8  O2A       -5.4060   25.0860   -0.4390 O.2   2567  GDP2567    -0.5169
      9  O5'       -4.0010   22.8880   -0.3750 O.3   2567  GDP2567    -0.3111
     10  C5'       -4.0840   22.4540   -1.7170 C.3   2567  GDP2567     0.1813
     11  C4'       -4.4940   20.9950   -1.7760 C.3   2567  GDP2567     0.1799
     12  O4'       -3.4500   20.2000   -1.2400 O.3   2567  GDP2567    -0.3326
     13  C3'       -5.7690   20.7260   -0.9770 C.3   2567  GDP2567     0.2158
     14  O3'       -6.6490   19.8210   -1.6720 O.3   2567  GDP2567    -0.2175
     15  C2'       -5.2060   20.1780    0.3280 C.3   2567  GDP2567     0.2310
     16  O2'       -6.0890   19.2670    0.9340 O.3   2567  GDP2567    -0.2158
     17  C1'       -3.9140   19.4990   -0.1070 C.3   2567  GDP2567     0.2293
     18  N9        -2.8080   19.5120    0.8710 N.pl3 2567  GDP2567    -0.2354
     19  C8        -2.3000   20.5980    1.5410 C.3   2567  GDP2567     0.2246
     20  N7        -1.2640   20.1830    2.3140 N.2   2567  GDP2567    -0.2322
     21  C5        -1.0970   18.8560    2.1260 C.2   2567  GDP2567     0.2182
     22  C6        -0.2040   17.9320    2.6700 C.1   2567  GDP2567     0.2372
     23  O6         0.3240   18.1490    3.7660 O.2   2567  GDP2567    -0.2069
     24  N1        -0.3060   16.6150    2.2770 N.2   2567  GDP2567    -0.2485
     25  C2        -1.2610   16.2130    1.3570 C.1   2567  GDP2567     0.2531
     26  N2        -1.4080   14.9170    1.1090 N.pl3 2567  GDP2567    -0.0226
     27  N3        -2.1440   17.1250    0.8280 N.2   2567  GDP2567    -0.3074
     28  C4        -2.0600   18.4210    1.2140 C.2   2567  GDP2567     0.2300
@<TRIPOS>BOND
     1     2     1    2
     2    11    10    1
     3    11    12    1
     4    11    13    1
     5    10     9    1
     6    14    13    1
     7    12    17    1
     8     3     1    1
     9     1     5    1
    10     1     4    1
    11    13    15    1
    12     5     6    1
    13     8     6    2
    14     9     6    1
    15    17    15    1
    16    17    18    1
    17     6     7    1
    18    15    16    1
    19    27    28    2
    20    27    25    2
    21    18    28    1
    22    18    19    1
    23    26    25    1
    24    28    21    1
    25    25    24    2
    26    19    20    1
    27    21    20    2
    28    21    22    1
    29    24    22    2
    30    22    23    2
