@<TRIPOS>MOLECULE
2h5i_III_C_1.pdb
 35 34 0 0 0
SMALL
GASTEIGER

@<TRIPOS>ATOM
      1  C         -6.7620   71.9270   27.0170 C.2     1  ACE1        0.2423
      2  O         -5.5790   72.0730   26.7120 O.2     1  ACE1       -0.2733
      3  CH3       -7.1800   71.6770   28.4470 C.3     1  ACE1        0.0964
      4  N         -7.7510   71.9860   26.1320 N.am    2  ASP2       -0.1972
      5  CA        -7.4770   72.1480   24.7040 C.3     2  ASP2        0.1839
      6  C         -7.0780   73.5880   24.3940 C.2     2  ASP2        0.2622
      7  O         -7.7570   74.5280   24.8490 O.2     2  ASP2       -0.2715
      8  CB        -8.6970   71.7420   23.8800 C.3     2  ASP2        0.1450
      9  CG        -9.0730   70.2820   23.9380 C.2     2  ASP2        0.3671
     10  OD1       -8.1920   69.3910   23.9140 O.co2   2  ASP2       -0.2456
     11  OD2      -10.2930   69.9830   23.9730 O.co2   2  ASP2       -0.2456
     12  N         -6.0060   73.7660   23.6180 N.am    3  GLU3       -0.1963
     13  CA        -5.5140   75.0960   23.2600 C.3     3  GLU3        0.1733
     14  C         -5.0880   75.1420   21.7920 C.2     3  GLU3        0.2616
     15  O         -4.7960   74.0430   21.2890 O.2     3  GLU3       -0.2715
     16  CB        -4.2910   75.4600   24.1230 C.3     3  GLU3        0.0429
     17  CG        -4.5220   75.3070   25.6290 C.3     3  GLU3        0.1163
     18  CD        -3.3760   75.8390   26.4730 C.2     3  GLU3        0.3649
     19  OE1       -2.2060   75.8790   26.0280 O.co2   3  GLU3       -0.2457
     20  OE2       -3.6190   76.2470   27.6420 O.co2   3  GLU3       -0.2457
     21  N         -4.9830   76.2970   21.1410 N.am    4  VAL4       -0.1963
     22  CA        -4.5070   76.2410   19.7390 C.3     4  VAL4        0.1727
     23  C         -3.0780   76.7240   19.5290 C.2     4  VAL4        0.2613
     24  O         -2.5610   77.5850   20.2350 O.2     4  VAL4       -0.2715
     25  CB        -5.4620   77.0370   18.8290 C.3     4  VAL4        0.0290
     26  CG1       -6.8410   76.3820   18.7880 C.3     4  VAL4        0.0023
     27  CG2       -5.6100   78.4890   19.2490 C.3     4  VAL4        0.0023
     28  C         -1.0790   77.5420   16.8920 C.3     5  ASJ5        0.2041
     29  N         -2.3880   76.1850   18.5140 N.am    5  ASJ5       -0.2025
     30  O          0.1510   77.9840   16.3580 O.3     5  ASJ5       -0.2185
     31  CA        -1.0600   76.5340   18.0330 C.3     5  ASJ5        0.1395
     32  CB        -0.3130   75.2450   17.6400 C.3     5  ASJ5        0.1383
     33  CG         0.3610   74.5270   18.7920 C.2     5  ASJ5        0.3667
     34  OD1        0.7580   75.2090   19.7610 O.co2   5  ASJ5       -0.2456
     35  OD2        0.8080   73.3560   18.6780 O.co2   5  ASJ5       -0.2456
@<TRIPOS>BOND
     1    30    28    1
     2    28    31    1
     3    32    31    1
     4    32    33    1
     5    31    29    1
     6    29    23   am
     7    35    33   ar
     8    26    25    1
     9    33    34   ar
    10    25    27    1
    11    25    22    1
    12    23    22    1
    13    23    24    2
    14    22    21    1
    15    21    14   am
    16    15    14    2
    17    14    13    1
    18    13    12    1
    19    13    16    1
    20    12     6   am
    21     8     9    1
    22     8     5    1
    23    10     9   ar
    24     9    11   ar
    25    16    17    1
    26     6     5    1
    27     6     7    2
    28     5     4    1
    29    17    18    1
    30    19    18   ar
    31     4     1   am
    32    18    20   ar
    33     2     1    2
    34     1     3    1
