@<TRIPOS>MOLECULE
2h5j_III_E_1.pdb
 36 35 0 0 0
SMALL
GASTEIGER

@<TRIPOS>ATOM
      1  C         22.4020   14.2030   45.8600 C.2     1  ACE1        0.2423
      2  O         22.3930   13.0010   45.5760 O.2     1  ACE1       -0.2733
      3  CH3       22.6150   14.6460   47.2930 C.3     1  ACE1        0.0964
      4  N         22.2360   15.1710   44.9720 N.am    2  ASP2       -0.1972
      5  CA        21.9310   14.9550   43.5610 C.3     2  ASP2        0.1839
      6  C         23.1890   14.5770   42.7970 C.2     2  ASP2        0.2622
      7  O         24.1860   15.3030   42.7840 O.2     2  ASP2       -0.2715
      8  CB        21.2910   16.1970   42.9430 C.3     2  ASP2        0.1450
      9  CG        19.8820   16.5220   43.3830 C.2     2  ASP2        0.3671
     10  OD1       19.0930   15.6260   43.7700 O.co2   2  ASP2       -0.2456
     11  OD2       19.5120   17.7220   43.3410 O.co2   2  ASP2       -0.2456
     12  N         23.2070   13.4220   42.1350 N.am    3  MET3       -0.1963
     13  CA        24.4020   13.0240   41.3920 C.3     3  MET3        0.1736
     14  C         23.9920   12.6330   39.9740 C.2     3  MET3        0.2616
     15  O         22.7830   12.6180   39.7350 O.2     3  MET3       -0.2715
     16  CB        25.0940   11.8510   42.0790 C.3     3  MET3        0.0427
     17  CG        25.3310   12.0980   43.5670 C.3     3  MET3        0.0599
     18  SD        25.9940   10.6600   44.4260 S.3     3  MET3       -0.1393
     19  CE        27.7550   10.9320   44.2010 C.3     3  MET3        0.0692
     20  N         24.9340   12.3070   39.1180 N.am    4  GLN4       -0.1963
     21  CA        24.6480   11.9790   37.7290 C.3     4  GLN4        0.1733
     22  C         24.9350   10.5090   37.4330 C.2     4  GLN4        0.2613
     23  O         25.9290    9.9630   37.9220 O.2     4  GLN4       -0.2715
     24  CB        25.4850   12.8320   36.7690 C.3     4  GLN4        0.0408
     25  CG        25.2920   14.3280   36.9080 C.3     4  GLN4        0.0908
     26  CD        26.2310   14.9670   37.9170 C.2     4  GLN4        0.2608
     27  OE1       27.4240   14.6830   37.9700 O.2     4  GLN4       -0.2717
     28  NE2       25.6890   15.8560   38.7390 N.am    4  GLN4       -0.0878
     29  C         24.5950    8.5140   34.6730 C.3     5  ASJ5        0.2041
     30  N         24.0720    9.9110   36.6260 N.am    5  ASJ5       -0.2025
     31  O         25.2810    7.4560   34.0890 O.3     5  ASJ5       -0.2185
     32  CA        24.2150    8.5530   36.1210 C.3     5  ASJ5        0.1395
     33  CB        22.8820    7.8030   36.2590 C.3     5  ASJ5        0.1383
     34  CG        22.7160    7.0770   37.5680 C.2     5  ASJ5        0.3667
     35  OD1       23.7430    6.8270   38.2350 O.co2   5  ASJ5       -0.2456
     36  OD2       21.5590    6.7690   37.9150 O.co2   5  ASJ5       -0.2456
@<TRIPOS>BOND
     1    31    29    1
     2    29    32    1
     3    32    33    1
     4    32    30    1
     5    33    34    1
     6    30    22   am
     7    24    25    1
     8    24    21    1
     9    25    26    1
    10    22    21    1
    11    22    23    2
    12    34    36   ar
    13    34    35   ar
    14    21    20    1
    15    26    27    2
    16    26    28   am
    17    20    14   am
    18    15    14    2
    19    14    13    1
    20    13    16    1
    21    13    12    1
    22    16    17    1
    23    12     6   am
    24     7     6    2
    25     6     5    1
    26     8     9    1
    27     8     5    1
    28    11     9   ar
    29     9    10   ar
    30     5     4    1
    31    17    18    1
    32    19    18    1
    33     4     1   am
    34     2     1    2
    35     1     3    1
