@<TRIPOS>MOLECULE
2h5k_III_C_1.pdb
 35 35 0 0 0
SMALL
GASTEIGER

@<TRIPOS>ATOM
      1  C         -9.0980  -51.7890   22.0530 C.2     0  ACE0        0.2423
      2  O         -8.4310  -52.7560   21.6900 O.2     0  ACE0       -0.2733
      3  CH3       -9.3620  -51.5390   23.5410 C.3     0  ACE0        0.0964
      4  N         -9.4980  -50.8020   21.2550 N.am    1  TYR1       -0.1974
      5  CA        -9.1510  -50.7510   19.8260 C.3     1  TYR1        0.1770
      6  C         -8.4710  -49.4030   19.5830 C.2     1  TYR1        0.2619
      7  O         -8.7510  -48.4180   20.2680 O.2     1  TYR1       -0.2715
      8  CB       -10.3990  -50.8460   18.9450 C.3     1  TYR1        0.0574
      9  CG       -11.2140  -52.1010   19.2610 C.ar    1  TYR1       -0.0198
     10  CD1      -11.0830  -53.2660   18.5090 C.ar    1  TYR1       -0.0011
     11  CD2      -12.0990  -52.0710   20.3310 C.ar    1  TYR1       -0.0011
     12  CE1      -11.8300  -54.3980   18.8300 C.ar    1  TYR1        0.0371
     13  CE2      -12.8410  -53.2040   20.6460 C.ar    1  TYR1        0.0371
     14  CZ       -12.7130  -54.3740   19.9050 C.ar    1  TYR1        0.1490
     15  OH       -13.4430  -55.4530   20.3060 O.3     1  TYR1       -0.3998
     16  P        -12.8320  -56.9120   19.9960 P.3     1  TYR1        0.5887
     17  O1P      -13.3780  -57.3350   18.5430 O.2     1  TYR1       -0.2114
     18  O2P      -11.2340  -56.7760   19.8660 O.3     1  TYR1       -0.1039
     19  O3P      -13.1910  -57.9080   21.0310 O.3     1  TYR1       -0.1039
     20  N         -7.5700  -49.3870   18.6060 N.am    2  VAL2       -0.1963
     21  CA        -6.8540  -48.1440   18.2900 C.3     2  VAL2        0.1727
     22  C         -7.8740  -47.0660   17.9040 C.2     2  VAL2        0.2616
     23  O         -7.9970  -46.0500   18.5900 O.2     2  VAL2       -0.2715
     24  CB        -5.8450  -48.4220   17.1720 C.3     2  VAL2        0.0290
     25  CG1       -5.0760  -47.1560   16.7900 C.3     2  VAL2        0.0023
     26  CG2       -4.8630  -49.5020   17.6290 C.3     2  VAL2        0.0023
     27  N         -8.6590  -47.3670   16.8710 N.am    3  ASN3       -0.1958
     28  CA        -9.6660  -46.4210   16.3640 C.3     3  ASN3        0.1836
     29  C        -10.9520  -46.4820   17.1880 C.2     3  ASN3        0.2811
     30  O        -12.0220  -46.1400   16.6850 O.2     3  ASN3       -0.2698
     31  CB        -9.9820  -46.7390   14.9000 C.3     3  ASN3        0.1196
     32  CG       -10.6430  -48.1120   14.7380 C.2     3  ASN3        0.2630
     33  OD1      -10.5890  -48.9550   15.6280 O.2     3  ASN3       -0.2716
     34  ND2      -11.2800  -48.3020   13.5850 N.am    3  ASN3       -0.0877
     35  N        -10.8200  -46.9270   18.4330 N.am    4  NH24       -0.0863
@<TRIPOS>BOND
     1    34    32   am
     2    32    31    1
     3    32    33    2
     4    31    28    1
     5    28    27    1
     6    28    29    1
     7    30    29    2
     8    25    24    1
     9    27    22   am
    10    24    26    1
    11    24    21    1
    12    29    35   am
    13    22    21    1
    14    22    23    2
    15    21    20    1
    16    10    12   ar
    17    10     9   ar
    18    17    16    2
    19    20     6   am
    20    12    14   ar
    21     8     9    1
    22     8     5    1
    23     9    11   ar
    24     6     5    1
    25     6     7    2
    26     5     4    1
    27    18    16    1
    28    14    15    1
    29    14    13   ar
    30    16    15    1
    31    16    19    1
    32    11    13   ar
    33     4     1   am
    34     2     1    2
    35     1     3    1
