@<TRIPOS>MOLECULE
2h5l_NAD_A_1.pdb
 44 48 0 0 0
SMALL
GASTEIGER

@<TRIPOS>ATOM
      1  PA         8.9660   17.0610   62.6870 P.3   432  NAD432      0.2189
      2  O1A        9.0300   18.2640   63.5600 O.3   432  NAD432     -0.4371
      3  O2A        8.0310   17.2260   61.5430 O.2   432  NAD432     -0.5170
      4  O5B        8.4020   15.8150   63.4860 O.3   432  NAD432     -0.3112
      5  C5B        9.0260   15.3010   64.6810 C.3   432  NAD432      0.1813
      6  C4B        7.8330   14.7990   65.4620 C.3   432  NAD432      0.1821
      7  O4B        8.2820   14.2150   66.7060 O.3   432  NAD432     -0.3135
      8  C3B        6.8370   15.8920   65.8930 C.3   432  NAD432      0.2184
      9  O3B        5.5270   15.6820   65.2940 O.3   432  NAD432     -0.2174
     10  C2B        6.8670   15.7810   67.4180 C.3   432  NAD432      0.2570
     11  O2B        5.5620   16.0630   67.9810 O.3   432  NAD432     -0.2130
     12  C1B        7.3130   14.3220   67.6380 C.3   432  NAD432      0.3186
     13  N9A        7.9760   14.1190   68.8960 N.pl3 432  NAD432     -0.1439
     14  C8A        8.8090   14.9830   69.5390 C.3   432  NAD432      0.3377
     15  N7A        9.2660   14.5120   70.6850 N.2   432  NAD432     -0.2095
     16  C5A        8.6820   13.2780   70.7610 C.2   432  NAD432      0.2526
     17  C6A        8.7640   12.2570   71.7540 C.2   432  NAD432      0.4393
     18  N6A        9.4910   12.3490   72.8660 N.pl3 432  NAD432      0.2180
     19  N1A        8.0420   11.0960   71.5430 N.2   432  NAD432      0.0021
     20  C2A        7.2860   10.9970   70.3870 C.3   432  NAD432      0.5254
     21  N3A        7.1650   11.9080   69.4210 N.2   432  NAD432     -0.0055
     22  C4A        7.8830   13.0200   69.6680 C.2   432  NAD432      0.3518
     23  O3        10.4560   16.7140   62.2260 O.3   432  NAD432     -0.2703
     24  PN        10.8930   15.9720   60.8740 P.3   432  NAD432      0.2189
     25  O1N       10.9780   16.8470   59.6740 O.2   432  NAD432     -0.5170
     26  O2N        9.9890   14.8040   60.6840 O.3   432  NAD432     -0.4371
     27  O5D       12.3670   15.5970   61.3200 O.3   432  NAD432     -0.3112
     28  C5D       12.5980   14.7080   62.4640 C.3   432  NAD432      0.1813
     29  C4D       14.0970   14.5430   62.6240 C.3   432  NAD432      0.1799
     30  O4D       14.6060   13.7670   61.5240 O.3   432  NAD432     -0.3327
     31  C3D       14.9110   15.8320   62.6390 C.3   432  NAD432      0.2158
     32  O3D       15.9950   15.7070   63.5740 O.3   432  NAD432     -0.2175
     33  C2D       15.4530   15.9250   61.2340 C.3   432  NAD432      0.2309
     34  O2D       16.6710   16.7160   61.1900 O.3   432  NAD432     -0.2158
     35  C1D       15.6590   14.4730   60.8960 C.3   432  NAD432      0.2263
     36  N1N       15.6750   14.1620   59.4650 N.pl3 432  NAD432     -0.2787
     37  C2N       16.4700   13.0710   59.0200 C.3   432  NAD432      0.1244
     38  C3N       16.5370   12.6830   57.6010 C.2   432  NAD432      0.0544
     39  C7N       17.4060   11.5100   57.2590 C.2   432  NAD432      0.2818
     40  O7N       17.4180   11.2380   56.0590 O.2   432  NAD432     -0.2670
     41  N7N       18.1200   10.7910   58.1560 N.am  432  NAD432     -0.0839
     42  C4N       15.7410   13.4690   56.6120 C.2   432  NAD432      0.0033
     43  C5N       14.9150   14.6280   57.1730 C.2   432  NAD432      0.0157
     44  C6N       14.9190   14.9020   58.4810 C.2   432  NAD432      0.0633
@<TRIPOS>BOND
     1    40    39    2
     2    42    43    1
     3    42    38    2
     4    43    44    2
     5    39    38    1
     6    39    41   am
     7    38    37    1
     8    44    36    1
     9    37    36    1
    10    36    35    1
    11    25    24    2
    12    26    24    1
    13    24    27    1
    14    24    23    1
    15    35    33    1
    16    35    30    1
    17    34    33    1
    18    33    31    1
    19    27    28    1
    20    30    29    1
    21     3     1    2
    22    23     1    1
    23    28    29    1
    24    29    31    1
    25    31    32    1
    26     1     4    1
    27     1     2    1
    28     4     5    1
    29     5     6    1
    30     9     8    1
    31     6     8    1
    32     6     7    1
    33     8    10    1
    34     7    12    1
    35    10    12    1
    36    10    11    1
    37    12    13    1
    38    13    14    1
    39    13    22    1
    40    21    22    2
    41    21    20    1
    42    14    15    1
    43    22    16    1
    44    20    19    1
    45    15    16    2
    46    16    17    1
    47    19    17    2
    48    17    18    1
