@<TRIPOS>MOLECULE
2h5l_3DD_A_1.pdb
 18 19 0 0 0
SMALL
GASTEIGER

@<TRIPOS>ATOM
      1  N9        20.1800   13.0550   53.6060 N.pl3 433  3DD433     -0.2833
      2  C8        19.5570   11.8820   53.3160 C.3   433  3DD433      0.2203
      3  N7        19.9830   11.3690   52.2320 N.2   433  3DD433     -0.2394
      4  C5        20.9180   12.1500   51.7150 C.2   433  3DD433      0.1812
      5  C6        21.7470   12.0880   50.5320 C.2   433  3DD433      0.4292
      6  N6        21.6450   11.0290   49.6490 N.pl3 433  3DD433      0.2176
      7  N1        22.6300   13.1160   50.3250 N.2   433  3DD433     -0.0517
      8  C2        22.7410   14.1830   51.1980 C.3   433  3DD433      0.2912
      9  C3        21.9700   14.2720   52.3320 C.2   433  3DD433      0.0474
     10  C4        21.0700   13.2960   52.6140 C.2   433  3DD433      0.0744
     11  C1'       19.8490   13.8110   54.8170 C.3   433  3DD433      0.1287
     12  C2'       19.0070   15.0440   54.5890 C.3   433  3DD433      0.2129
     13  O2'       17.9430   14.7300   53.6940 O.3   433  3DD433     -0.2179
     14  C3'       18.4150   15.5740   55.9380 C.3   433  3DD433      0.2856
     15  O3'       19.3300   15.8120   57.0420 O.3   433  3DD433     -0.2080
     16  C4'       17.6670   16.8090   55.6650 C.2   433  3DD433      0.3973
     17  O4A       17.1810   17.4010   56.5820 O.co2 433  3DD433     -0.2427
     18  O4B       17.5290   17.2670   54.3920 O.co2 433  3DD433     -0.2427
@<TRIPOS>BOND
     1     6     5    1
     2     7     5    2
     3     7     8    1
     4     5     4    1
     5     8     9    1
     6     4     3    2
     7     4    10    1
     8     3     2    1
     9     9    10    2
    10    10     1    1
    11     2     1    1
    12     1    11    1
    13    13    12    1
    14    18    16   ar
    15    12    11    1
    16    12    14    1
    17    16    14    1
    18    16    17   ar
    19    14    15    1
