@<TRIPOS>MOLECULE
2h5s_SA2_A_1.pdb
 24 23 0 0 0
SMALL
GASTEIGER

@<TRIPOS>ATOM
      1  O23       35.0960   59.4380    3.8890 O.co2 611  SA2611     -0.2457
      2  C20       35.7680   60.3160    3.3060 C.2   611  SA2611      0.3649
      3  O22       36.9930   60.5100    3.4400 O.co2 611  SA2611     -0.2457
      4  C19       35.0180   61.2410    2.3460 C.3   611  SA2611      0.1146
      5  C18       35.5450   61.0890    0.9170 C.3   611  SA2611      0.0235
      6  C17       34.8020   62.0020   -0.0600 C.3   611  SA2611      0.1101
      7  C16       34.8630   63.4310    0.2970 C.2   611  SA2611      0.3170
      8  O24       35.8690   64.0930    0.0440 O.2   611  SA2611     -0.2501
      9  O15       33.7900   63.9780    0.9310 O.3   611  SA2611     -0.4466
     10  C14       33.9880   65.3590    1.2700 C.3   611  SA2611      0.2320
     11  C2        32.7910   65.8970    2.0390 C.3   611  SA2611      0.1768
     12  S1        33.2130   67.5850    2.6100 S.3   611  SA2611     -0.0158
     13  O13       34.3170   67.4960    3.6220 O.3   611  SA2611     -0.0781
     14  O12       33.6910   68.3920    1.4380 O.3   611  SA2611     -0.0781
     15  C21       31.5900   65.9550    1.0910 C.3   611  SA2611      0.0296
     16  C3        32.5170   64.9730    3.2330 C.3   611  SA2611      0.2184
     17  C9        31.3200   65.4640    4.0540 C.2   611  SA2611      0.3859
     18  O10       31.4980   66.4620    4.7860 O.co2 611  SA2611     -0.2437
     19  O11       30.2500   64.8290    3.9340 O.co2 611  SA2611     -0.2437
     20  N4        33.7160   64.9310    4.0840 N.pl3 611  SA2611     -0.2248
     21  C5        33.7800   63.9440    4.9770 C.2   611  SA2611      0.0841
     22  C6        32.9810   62.6450    4.9360 C.2   611  SA2611      0.0628
     23  C7        33.3870   61.6100    5.7710 C.2   611  SA2611      0.2356
     24  O8        34.3710   61.7950    6.4870 O.2   611  SA2611     -0.2831
@<TRIPOS>BOND
     1     6     7    1
     2     6     5    1
     3     8     7    2
     4     7     9    1
     5     5     4    1
     6     9    10    1
     7    15    11    1
     8    10    11    1
     9    14    12    1
    10    11    12    1
    11    11    16    1
    12     4     2    1
    13    12    13    1
    14    16    17    1
    15    16    20    1
    16     2     3   ar
    17     2     1   ar
    18    19    17   ar
    19    17    18   ar
    20    20    21    1
    21    22    21    2
    22    22    23    1
    23    23    24    2
