@<TRIPOS>MOLECULE
2h5s_MA4_A_1.pdb
 35 37 0 0 0
SMALL
GASTEIGER

@<TRIPOS>ATOM
      1  C1        60.7530   52.8290    2.3560 C.3   400  MA4400      0.2695
      2  C2        61.3360   52.1760    1.0820 C.3   400  MA4400      0.2406
      3  C3        60.9560   50.6970    1.0010 C.3   400  MA4400      0.2198
      4  C4        61.3550   49.9920    2.2760 C.3   400  MA4400      0.2144
      5  C5        60.7760   50.7530    3.5070 C.3   400  MA4400      0.1835
      6  C6        61.2410   50.1200    4.7870 C.3   400  MA4400      0.2142
      7  O2        60.8270   52.9040   -0.0640 O.3   400  MA4400     -0.2149
      8  O3        61.6200   50.1410   -0.1780 O.3   400  MA4400     -0.2174
      9  O5        61.1830   52.1100    3.5240 O.3   400  MA4400     -0.3256
     10  O6        62.6780   50.1120    4.8390 O.3   400  MA4400     -0.2176
     11  O1        59.3440   52.7910    2.2510 O.3   400  MA4400     -0.3257
     12  O4        60.8260   48.6870    2.2980 O.3   400  MA4400     -0.2176
     13  C10       56.0440   55.1760    2.8350 C.3   400  MA4400      0.2695
     14  C20       56.8660   55.5170    1.5820 C.3   400  MA4400      0.2404
     15  C30       57.7060   54.2750    1.2990 C.3   400  MA4400      0.2167
     16  C40       58.5660   53.9960    2.5070 C.3   400  MA4400      0.1804
     17  C50       57.7540   53.7590    3.7320 C.3   400  MA4400      0.1803
     18  C60       58.5900   53.5560    4.9970 C.3   400  MA4400      0.2141
     19  O10       55.2350   56.2800    3.1550 O.3   400  MA4400     -0.3286
     20  O20       56.0310   55.8010    0.4840 O.3   400  MA4400     -0.2149
     21  O30       58.5250   54.5330    0.1550 O.3   400  MA4400     -0.2175
     22  O50       56.9130   54.8960    3.9620 O.3   400  MA4400     -0.3257
     23  O60       59.4250   54.7540    5.1620 O.3   400  MA4400     -0.2176
     24  C11       54.2000   55.9460    4.1050 C.3   400  MA4400      0.1449
     25  C21       52.9250   55.7490    3.3350 C.3   400  MA4400      0.0325
     26  C31       51.8740   55.3960    4.3880 C.3   400  MA4400      0.0072
     27  C41       50.4870   55.6390    3.8000 C.3   400  MA4400      0.0258
     28  C51       49.3380   55.3450    4.7360 C.2   400  MA4400     -0.0304
     29  C61       49.4720   54.5840    6.0110 C.2   400  MA4400     -0.0267
     30  C12       48.1930   54.3950    6.8020 C.3   400  MA4400      0.0433
     31  C22       48.1420   55.4320    7.9530 C.2   400  MA4400     -0.0267
     32  C32       47.3850   55.0270    9.2440 C.2   400  MA4400     -0.0304
     33  C42       46.6360   53.7190    9.1970 C.3   400  MA4400      0.0257
     34  C52       47.4760   52.6180    8.5750 C.3   400  MA4400      0.0053
     35  C62       48.0970   52.9380    7.2250 C.3   400  MA4400      0.0090
@<TRIPOS>BOND
     1     8     3    1
     2     7     2    1
     3    21    15    1
     4    20    14    1
     5     3     2    1
     6     3     4    1
     7     2     1    1
     8    15    14    1
     9    15    16    1
    10    14    13    1
    11    11     1    1
    12    11    16    1
    13     4    12    1
    14     4     5    1
    15     1     9    1
    16    16    17    1
    17    13    19    1
    18    13    22    1
    19    19    24    1
    20    25    24    1
    21    25    26    1
    22     5     9    1
    23     5     6    1
    24    17    22    1
    25    17    18    1
    26    27    26    1
    27    27    28    1
    28    28    29    2
    29     6    10    1
    30    18    23    1
    31    29    30    1
    32    30    35    1
    33    30    31    1
    34    35    34    1
    35    31    32    2
    36    34    33    1
    37    33    32    1
