@<TRIPOS>MOLECULE
2h5u_MAN_A_1.pdb
 11 11 0 0 0
SMALL
GASTEIGER

@<TRIPOS>ATOM
      1  C1        17.9240   44.3890   37.6940 C.3   503  MAN503      0.1777
      2  C2        19.2670   45.0700   37.9280 C.3   503  MAN503      0.2141
      3  C3        20.2510   44.1270   38.6270 C.3   503  MAN503      0.2173
      4  C4        19.6350   43.4150   39.8370 C.3   503  MAN503      0.2142
      5  C5        18.2430   42.8580   39.5170 C.3   503  MAN503      0.1810
      6  C6        17.5370   42.3180   40.7600 C.3   503  MAN503      0.2141
      7  O2        19.0850   46.2520   38.6810 O.3   503  MAN503     -0.2176
      8  O3        21.3850   44.8640   39.0280 O.3   503  MAN503     -0.2175
      9  O4        20.4910   42.3640   40.2270 O.3   503  MAN503     -0.2176
     10  O5        17.4280   43.8510   38.9110 O.3   503  MAN503     -0.3481
     11  O6        17.1260   43.3800   41.5960 O.3   503  MAN503     -0.2176
@<TRIPOS>BOND
     1     1     2    1
     2     1    10    1
     3     2     3    1
     4     2     7    1
     5     3     8    1
     6     3     4    1
     7    10     5    1
     8     5     4    1
     9     5     6    1
    10     4     9    1
    11     6    11    1
