@<TRIPOS>MOLECULE
2h5z_CTO_B_1.pdb
 43 45 0 0 0
SMALL
GASTEIGER

@<TRIPOS>ATOM
      1  C11       10.9800   10.1660   27.2020 C.3   200  CTO200      0.2586
      2  C21       11.8700   10.8040   28.2580 C.3   200  CTO200      0.1842
      3  N21       11.3240   12.0830   28.6500 N.am  200  CTO200     -0.1992
      4  C71       11.0740   12.3770   29.9310 C.2   200  CTO200      0.2420
      5  O71       11.0470   11.5280   30.8130 O.2   200  CTO200     -0.2733
      6  C81       10.8130   13.8270   30.2470 C.3   200  CTO200      0.0964
      7  C31       13.2980   10.9470   27.7500 C.3   200  CTO200      0.2094
      8  O31       14.1220   11.5200   28.7770 O.3   200  CTO200     -0.2183
      9  C41       13.8310    9.5810   27.3270 C.3   200  CTO200      0.2136
     10  O41       15.1200    9.6930   26.6850 O.3   200  CTO200     -0.2176
     11  C51       12.8730    8.8350   26.3810 C.3   200  CTO200      0.1834
     12  O51       11.4980    8.8810   26.8230 O.3   200  CTO200     -0.3262
     13  C61       13.3220    7.3790   26.2310 C.3   200  CTO200      0.2142
     14  O61       14.7570    7.3070   26.3290 O.3   200  CTO200     -0.2176
     15  C12        5.6610    9.8340   26.7350 C.3   200  CTO200      0.2586
     16  C22        6.4160    8.5190   26.8290 C.3   200  CTO200      0.1841
     17  N22        5.5400    7.5080   27.3810 N.am  200  CTO200     -0.1992
     18  C72        4.8960    6.5710   26.6580 C.2   200  CTO200      0.2420
     19  O72        4.7090    6.6310   25.4390 O.2   200  CTO200     -0.2733
     20  C82        4.3790    5.3960   27.4560 C.3   200  CTO200      0.0964
     21  C32        7.7400    8.6840   27.5970 C.3   200  CTO200      0.2062
     22  O32        8.5020    7.5210   27.3690 O.3   200  CTO200     -0.2184
     23  C42        8.5690    9.8200   27.0100 C.3   200  CTO200      0.1795
     24  O42        9.7210    9.9910   27.8400 O.3   200  CTO200     -0.3264
     25  C52        7.6790   11.0730   26.9580 C.3   200  CTO200      0.1803
     26  O52        6.5250   10.8000   26.1600 O.3   200  CTO200     -0.3263
     27  C62        8.3670   12.3430   26.4430 C.3   200  CTO200      0.2141
     28  O62        8.7190   12.1400   25.0640 O.3   200  CTO200     -0.2176
     29  C13        0.7880   11.3120   25.5680 C.3   200  CTO200      0.2917
     30  O13       -0.3390   12.1820   25.7770 O.3   200  CTO200     -0.1879
     31  C23        1.9540   12.0780   24.9180 C.3   200  CTO200      0.1870
     32  N23        1.6400   12.5300   23.5960 N.am  200  CTO200     -0.1991
     33  C73        1.3230   13.8060   23.4360 C.2   200  CTO200      0.2420
     34  O73        1.4940   14.6650   24.3190 O.2   200  CTO200     -0.2733
     35  C83        0.7410   14.0850   22.0700 C.3   200  CTO200      0.0964
     36  C33        3.2490   11.2980   24.8590 C.3   200  CTO200      0.2063
     37  O33        4.2670   12.2520   24.5950 O.3   200  CTO200     -0.2184
     38  C43        3.5500   10.5930   26.1720 C.3   200  CTO200      0.1795
     39  O43        4.5380    9.6240   25.8880 O.3   200  CTO200     -0.3264
     40  C53        2.3370    9.8940   26.7930 C.3   200  CTO200      0.1803
     41  O53        1.2370   10.8110   26.8470 O.3   200  CTO200     -0.3243
     42  C63        2.6220    9.3870   28.2020 C.3   200  CTO200      0.2141
     43  O63        1.4570    8.6160   28.5050 O.3   200  CTO200     -0.2176
@<TRIPOS>BOND
     1    35    33    1
     2    33    32   am
     3    33    34    2
     4    32    31    1
     5    37    36    1
     6    36    31    1
     7    36    38    1
     8    31    29    1
     9    28    27    1
    10    19    18    2
    11    29    30    1
    12    29    41    1
    13    39    38    1
    14    39    15    1
    15    26    15    1
    16    26    25    1
    17    38    40    1
    18    13    14    1
    19    13    11    1
    20    11    12    1
    21    11     9    1
    22    27    25    1
    23    18    17   am
    24    18    20    1
    25    10     9    1
    26    15    16    1
    27    40    41    1
    28    40    42    1
    29    12     1    1
    30    16    17    1
    31    16    21    1
    32    25    23    1
    33    23    21    1
    34    23    24    1
    35     1    24    1
    36     1     2    1
    37     9     7    1
    38    22    21    1
    39     7     2    1
    40     7     8    1
    41    42    43    1
    42     2     3    1
    43     3     4   am
    44     4     6    1
    45     4     5    2
