@<TRIPOS>MOLECULE
2h63_NAP_A_1.pdb
 48 52 0 0 0
SMALL
GASTEIGER

@<TRIPOS>ATOM
      1  PA         5.0860    1.7400  -24.4840 P.3   501  NAP501      0.2189
      2  O1A        4.8180    0.6470  -25.4400 O.2   501  NAP501     -0.5170
      3  O2A        4.1990    1.9010  -23.3430 O.3   501  NAP501     -0.4371
      4  O5B        5.1670    3.1590  -25.1900 O.3   501  NAP501     -0.3112
      5  C5B        6.2540    3.3670  -26.0570 C.3   501  NAP501      0.1813
      6  C4B        5.9100    4.4840  -27.0310 C.3   501  NAP501      0.1820
      7  O4B        4.6700    4.2120  -27.6930 O.3   501  NAP501     -0.3136
      8  C3B        5.6580    5.8450  -26.3890 C.3   501  NAP501      0.2157
      9  O3B        6.8820    6.5110  -26.0830 O.3   501  NAP501     -0.2175
     10  C2B        4.8730    6.5720  -27.5100 C.3   501  NAP501      0.2314
     11  O2B        5.7080    7.3510  -28.3220 O.3   501  NAP501     -0.2630
     12  C1B        4.3400    5.4500  -28.3750 C.3   501  NAP501      0.3158
     13  N9A        2.8870    5.1950  -28.4440 N.pl3 501  NAP501     -0.1439
     14  C8A        2.2160    4.9520  -29.5830 C.3   501  NAP501      0.3377
     15  N7A        0.9290    4.7170  -29.3180 N.2   501  NAP501     -0.2095
     16  C5A        0.7880    4.7910  -28.0000 C.2   501  NAP501      0.2526
     17  C6A       -0.3090    4.6350  -27.1870 C.2   501  NAP501      0.4393
     18  N6A       -1.4730    4.3610  -27.7320 N.pl3 501  NAP501      0.2180
     19  N1A       -0.1470    4.7770  -25.8590 N.2   501  NAP501      0.0021
     20  C2A        1.0670    5.0780  -25.3650 C.3   501  NAP501      0.5254
     21  N3A        2.1530    5.2490  -26.1230 N.2   501  NAP501     -0.0055
     22  C4A        2.0340    5.0910  -27.4380 C.2   501  NAP501      0.3518
     23  O3         6.6340    1.4610  -23.9860 O.3   501  NAP501     -0.2703
     24  PN         7.0300    1.3690  -22.3980 P.3   501  NAP501      0.2189
     25  O1N        6.4580    0.1270  -21.7660 O.3   501  NAP501     -0.4371
     26  O2N        6.7250    2.7270  -21.8560 O.2   501  NAP501     -0.5170
     27  O5D        8.5790    1.1220  -22.6610 O.3   501  NAP501     -0.3112
     28  C5D        9.3080    2.2020  -23.2000 C.3   501  NAP501      0.1813
     29  C4D       10.7980    2.0480  -22.9530 C.3   501  NAP501      0.1799
     30  O4D       11.0100    1.8260  -21.5510 O.3   501  NAP501     -0.3327
     31  C3D       11.2520    0.8110  -23.7070 C.3   501  NAP501      0.2158
     32  O3D       12.5860    1.0190  -24.2100 O.3   501  NAP501     -0.2175
     33  C2D       11.2690   -0.2590  -22.6370 C.3   501  NAP501      0.2309
     34  O2D       12.3140   -1.2120  -22.9140 O.3   501  NAP501     -0.2158
     35  C1D       11.6690    0.5640  -21.4260 C.3   501  NAP501      0.2263
     36  N1N       11.1560    0.0620  -20.1470 N.pl3 501  NAP501     -0.2787
     37  C2N        9.8200    0.2170  -19.7950 C.3   501  NAP501      0.1244
     38  C3N        9.4280   -0.2650  -18.5520 C.2   501  NAP501      0.0544
     39  C7N        7.9940   -0.1370  -18.0860 C.2   501  NAP501      0.2818
     40  O7N        7.5730   -0.8550  -17.1850 O.2   501  NAP501     -0.2670
     41  N7N        7.2780    0.8030  -18.6870 N.am  501  NAP501     -0.0839
     42  C4N       10.3220   -0.8870  -17.6760 C.2   501  NAP501      0.0033
     43  C5N       11.6420   -1.0290  -18.0410 C.2   501  NAP501      0.0157
     44  C6N       12.0630   -0.5570  -19.2770 C.2   501  NAP501      0.0633
     45  P2B        5.0790    8.8040  -28.6600 P.3   501  NAP501      0.5328
     46  O1X        3.9180    8.2760  -29.6340 O.2   501  NAP501     -0.2224
     47  O2X        4.3800    9.3630  -27.3030 O.3   501  NAP501     -0.1145
     48  O3X        5.9390    9.8240  -29.3270 O.3   501  NAP501     -0.1145
@<TRIPOS>BOND
     1    46    45    2
     2    14    15    1
     3    14    13    1
     4    48    45    1
     5    15    16    2
     6    45    11    1
     7    45    47    1
     8    13    12    1
     9    13    22    1
    10    12     7    1
    11    12    10    1
    12    11    10    1
    13    16    22    1
    14    16    17    1
    15    18    17    1
    16     7     6    1
    17    10     8    1
    18    22    21    2
    19    17    19    2
    20     6     8    1
    21     6     5    1
    22     8     9    1
    23    21    20    1
    24     5     4    1
    25    19    20    1
    26     2     1    2
    27     4     1    1
    28     1    23    1
    29     1     3    1
    30    32    31    1
    31    23    24    1
    32    31    29    1
    33    31    33    1
    34    28    29    1
    35    28    27    1
    36    29    30    1
    37    34    33    1
    38    27    24    1
    39    33    35    1
    40    24    26    2
    41    24    25    1
    42    30    35    1
    43    35    36    1
    44    36    37    1
    45    36    44    1
    46    37    38    1
    47    44    43    2
    48    41    39   am
    49    38    39    1
    50    38    42    2
    51    39    40    2
    52    43    42    1
