@<TRIPOS>MOLECULE
2h65_III_E_1.pdb
 38 37 0 0 0
SMALL
GASTEIGER

@<TRIPOS>ATOM
      1  C         22.3830   15.1160   48.1030 C.2     1  ACE1        0.2423
      2  O         21.4390   15.7720   47.7070 O.2     1  ACE1       -0.2733
      3  CH3       22.1980   14.1880   49.2800 C.3     1  ACE1        0.0964
      4  N         23.6200   15.1790   47.4920 N.am    2  VAL2       -0.1978
      5  CA        23.7840   15.8400   46.1940 C.3     2  VAL2        0.1726
      6  C         23.4200   14.8960   45.0550 C.2     2  VAL2        0.2616
      7  O         23.2870   13.6840   45.2480 O.2     2  VAL2       -0.2715
      8  CB        25.2560   16.2940   45.9980 C.3     2  VAL2        0.0290
      9  CG1       25.6760   17.2440   47.1110 C.3     2  VAL2        0.0023
     10  CG2       26.1670   15.0810   45.9560 C.3     2  VAL2        0.0023
     11  N         23.2630   15.4590   43.8650 N.am    3  ASP3       -0.1957
     12  CA        22.9250   14.6730   42.6950 C.3     3  ASP3        0.1840
     13  C         24.1810   14.4130   41.8730 C.2     3  ASP3        0.2622
     14  O         25.0250   15.2920   41.7170 O.2     3  ASP3       -0.2715
     15  CB        21.8810   15.4220   41.8730 C.3     3  ASP3        0.1450
     16  CG        20.6000   15.6790   42.6600 C.2     3  ASP3        0.3671
     17  OD1       19.9780   14.6840   43.1200 O.co2   3  ASP3       -0.2456
     18  OD2       20.2160   16.8680   42.8240 O.co2   3  ASP3       -0.2456
     19  N         24.3160   13.1960   41.3640 N.am    4  VAL4       -0.1963
     20  CA        25.4700   12.8470   40.5520 C.3     4  VAL4        0.1727
     21  C         24.9970   12.2030   39.2580 C.2     4  VAL4        0.2616
     22  O         23.8870   11.6870   39.1900 O.2     4  VAL4       -0.2715
     23  CB        26.4160   11.8900   41.3100 C.3     4  VAL4        0.0290
     24  CG1       27.0100   12.6010   42.5220 C.3     4  VAL4        0.0023
     25  CG2       25.6640   10.6500   41.7560 C.3     4  VAL4        0.0023
     26  N         25.8400   12.2450   38.2330 N.am    5  ALA5       -0.1963
     27  CA        25.4810   11.6810   36.9430 C.3     5  ALA5        0.1728
     28  C         25.8120   10.1970   36.8530 C.2     5  ALA5        0.2613
     29  O         26.6060    9.6800   37.6350 O.2     5  ALA5       -0.2715
     30  CB        26.1730   12.4450   35.8340 C.3     5  ALA5        0.0334
     31  C         25.8750    7.8790   34.2340 C.3     6  ASJ6        0.2041
     32  N         25.1610    9.5190   35.9120 N.am    6  ASJ6       -0.2025
     33  O         25.8190    6.4900   33.8680 O.3     6  ASJ6       -0.2185
     34  CA        25.3630    8.0930   35.6700 C.3     6  ASJ6        0.1395
     35  CB        24.0390    7.3380   35.8430 C.3     6  ASJ6        0.1383
     36  CG        23.9810    6.5340   37.1300 C.2     6  ASJ6        0.3667
     37  OD1       25.0250    6.0260   37.5850 O.co2   6  ASJ6       -0.2456
     38  OD2       22.8770    6.4020   37.6910 O.co2   6  ASJ6       -0.2456
@<TRIPOS>BOND
     1    33    31    1
     2    31    34    1
     3    34    35    1
     4    34    32    1
     5    30    27    1
     6    35    36    1
     7    32    28   am
     8    28    27    1
     9    28    29    2
    10    27    26    1
    11    36    37   ar
    12    36    38   ar
    13    26    21   am
    14    22    21    2
    15    21    20    1
    16    20    23    1
    17    20    19    1
    18    23    25    1
    19    23    24    1
    20    19    13   am
    21    14    13    2
    22    13    12    1
    23    15    16    1
    24    15    12    1
    25    16    18   ar
    26    16    17   ar
    27    12    11    1
    28    11     6   am
    29     6     7    2
    30     6     5    1
    31    10     8    1
    32     8     5    1
    33     8     9    1
    34     5     4    1
    35     4     1   am
    36     2     1    2
    37     1     3    1
