@<TRIPOS>MOLECULE
2h6b_3C4_A_1.pdb
 12 12 0 0 0
SMALL
GASTEIGER

@<TRIPOS>ATOM
      1  O2        53.2510   88.0740   28.3190 O.co2 302  3C4302     -0.2453
      2  C         52.5970   87.0540   28.0370 C.2   302  3C4302      0.3692
      3  O1        52.0630   86.3290   28.9230 O.co2 302  3C4302     -0.2453
      4  CG        52.4540   86.7190   26.5650 C.3   302  3C4302      0.1404
      5  CA        51.9990   85.3280   26.1800 C.ar  302  3C4302     -0.0099
      6  CD2       50.6920   85.0620   26.1910 C.ar  302  3C4302     -0.0004
      7  CE2       50.2510   83.8980   25.8960 C.ar  302  3C4302      0.0426
      8  CZ        51.0440   82.7510   25.4830 C.ar  302  3C4302      0.2061
      9  OH        50.5090   81.4960   25.1070 O.3   302  3C4302     -0.2857
     10 CL         53.7040   81.8820   25.0730 Cl    302  3C4302     -0.0789
     11  CE1       52.4920   83.0870   25.4850 C.ar  302  3C4302      0.0962
     12  CD1       52.8830   84.3450   25.8440 C.ar  302  3C4302      0.0109
@<TRIPOS>BOND
     1    10    11    1
     2     9     8    1
     3     8    11   ar
     4     8     7   ar
     5    11    12   ar
     6    12     5   ar
     7     7     6   ar
     8     5     6   ar
     9     5     4    1
    10     4     2    1
    11     2     1   ar
    12     2     3   ar
