@<TRIPOS>MOLECULE
2h6f_FAR_P_1.pdb
 15 14 0 0 0
SMALL
GASTEIGER

@<TRIPOS>ATOM
      1  C1        20.4980  132.6340    2.6120 C.3   2010  FAR2010     0.0300
      2  C2        19.6110  131.9010    1.6340 C.2   2010  FAR2010    -0.0342
      3  C3        19.8870  131.7220    0.3170 C.2   2010  FAR2010    -0.0478
      4  C5        18.9570  130.9800   -0.6010 C.3   2010  FAR2010     0.0263
      5  C6        19.3510  129.5240   -0.8420 C.3   2010  FAR2010     0.0297
      6  C7        18.2680  128.7350   -1.5420 C.2   2010  FAR2010    -0.0342
      7  C8        18.2520  128.4340   -2.8650 C.2   2010  FAR2010    -0.0478
      8  C9        17.1290  127.6370   -3.4860 C.3   2010  FAR2010     0.0263
      9  C11       16.3480  128.3450   -4.5900 C.3   2010  FAR2010     0.0297
     10  C12       15.0560  127.6330   -4.8840 C.2   2010  FAR2010    -0.0342
     11  C13       14.1460  128.0000   -5.8130 C.2   2010  FAR2010    -0.0478
     12  C14       14.2860  129.2010   -6.7130 C.3   2010  FAR2010     0.0260
     13  C15       12.8850  127.2240   -6.0340 C.3   2010  FAR2010     0.0260
     14  C4        21.1300  132.2370   -0.3600 C.3   2010  FAR2010     0.0260
     15  C10       19.3300  128.8540   -3.8430 C.3   2010  FAR2010     0.0260
@<TRIPOS>BOND
     1    12    11    1
     2    13    11    1
     3    11    10    2
     4    10     9    1
     5     9     8    1
     6    15     7    1
     7     8     7    1
     8     7     6    2
     9     6     5    1
    10     5     4    1
    11     4     3    1
    12    14     3    1
    13     3     2    2
    14     2     1    1
