@<TRIPOS>MOLECULE
2h6f_III_P_1.pdb
 28 27 0 0 0
SMALL
GASTEIGER

@<TRIPOS>ATOM
      1  N         20.1700  136.6690    1.7500 N.3   2006  CYS2006    -0.1221
      2  CA        19.5600  135.4810    1.0890 C.3   2006  CYS2006     0.1808
      3  C         18.7170  135.8940   -0.1230 C.2   2006  CYS2006     0.2601
      4  O         17.7120  136.5910    0.0310 O.2   2006  CYS2006    -0.2717
      5  CB        18.6570  134.7220    2.0830 C.3   2006  CYS2006     0.0970
      6  SG        19.5200  133.8810    3.4770 S.3   2006  CYS2006    -0.0800
      7  N         19.1300  135.4790   -1.3190 N.am  2007  VAL2007    -0.1965
      8  CA        18.3740  135.7750   -2.5400 C.3   2007  VAL2007     0.1727
      9  C         18.1560  134.4950   -3.3500 C.2   2007  VAL2007     0.2616
     10  O         19.0900  133.7160   -3.5820 O.2   2007  VAL2007    -0.2715
     11  CB        18.7150  136.9390   -3.5120 C.3   2007  VAL2007     0.0290
     12  CG1       18.9290  138.2310   -2.7270 C.3   2007  VAL2007     0.0023
     13  CG2       19.9420  136.6000   -4.3340 C.3   2007  VAL2007     0.0023
     14  N         16.9130  134.2900   -3.7690 N.am  2008  LEU2008    -0.1963
     15  CA        16.5260  133.1080   -4.5280 C.3   2008  LEU2008     0.1728
     16  C         16.6150  133.2790   -6.0340 C.2   2008  LEU2008     0.2617
     17  O         16.6370  132.2890   -6.7640 O.2   2008  LEU2008    -0.2715
     18  CB        15.0920  132.7050   -4.1800 C.3   2008  LEU2008     0.0311
     19  CG        14.7590  132.4240   -2.7170 C.3   2008  LEU2008     0.0022
     20  CD1       13.3310  131.9060   -2.6210 C.3   2008  LEU2008     0.0001
     21  CD2       15.7350  131.3970   -2.1600 C.3   2008  LEU2008     0.0001
     22  N         16.6480  134.5230   -6.4990 N.am  2009  SER2009    -0.1914
     23  CA        16.7050  134.7830   -7.9310 C.3   2009  SER2009     0.2304
     24  C         17.1830  136.1960   -8.2330 C.2   2009  SER2009     0.3869
     25  O         17.5540  136.9120   -7.2780 O.co2 2009  SER2009    -0.2437
     26  CB        15.3250  134.5560   -8.5610 C.3   2009  SER2009     0.2152
     27  OG        14.3320  135.3570   -7.9370 O.3   2009  SER2009    -0.2179
     28  OXT       17.1900  136.5560   -9.4270 O.co2 2009  SER2009    -0.2437
@<TRIPOS>BOND
     1    28    24   ar
     2    26    27    1
     3    26    23    1
     4    24    23    1
     5    24    25   ar
     6    23    22    1
     7    17    16    2
     8    22    16   am
     9    16    15    1
    10    15    18    1
    11    15    14    1
    12    13    11    1
    13    18    19    1
    14    14     9   am
    15    10     9    2
    16    11    12    1
    17    11     8    1
    18     9     8    1
    19    19    20    1
    20    19    21    1
    21     8     7    1
    22     7     3   am
    23     3     4    2
    24     3     2    1
    25     2     1    1
    26     2     5    1
    27     5     6    1
