@<TRIPOS>MOLECULE
2h6g_GER_P_1.pdb
 20 19 0 0 0
SMALL
GASTEIGER

@<TRIPOS>ATOM
      1  C1        20.4740  132.6080    3.1110 C.3   2010  GER2010     0.0300
      2  C2        19.7440  131.9420    1.9610 C.2   2010  GER2010    -0.0342
      3  C3        20.2630  131.7360    0.7170 C.2   2010  GER2010    -0.0478
      4  C4        21.6590  132.1460    0.3040 C.3   2010  GER2010     0.0260
      5  C5        19.4810  131.0780   -0.3900 C.3   2010  GER2010     0.0263
      6  C6        19.5820  129.5480   -0.4050 C.3   2010  GER2010     0.0297
      7  C7        18.3510  128.8940   -0.9890 C.2   2010  GER2010    -0.0342
      8  C8        18.2400  128.3900   -2.2470 C.2   2010  GER2010    -0.0478
      9  C9        19.3560  128.4070   -3.2690 C.3   2010  GER2010     0.0260
     10  C10       16.9500  127.7590   -2.7200 C.3   2010  GER2010     0.0263
     11  C11       16.3840  128.3640   -4.0030 C.3   2010  GER2010     0.0297
     12  C12       15.0720  127.7410   -4.4220 C.2   2010  GER2010    -0.0342
     13  C13       14.3880  128.1080   -5.5320 C.2   2010  GER2010    -0.0478
     14  C14       14.8760  129.1920   -6.4840 C.3   2010  GER2010     0.0260
     15  C15       13.0440  127.5000   -5.9250 C.3   2010  GER2010     0.0263
     16  C16       12.0370  128.6050   -6.1550 C.3   2010  GER2010     0.0297
     17  C17       11.6470  129.2990   -4.8640 C.2   2010  GER2010    -0.0342
     18  C18       10.8400  130.3780   -4.7660 C.2   2010  GER2010    -0.0478
     19  C19       10.2290  131.0950   -5.9480 C.3   2010  GER2010     0.0260
     20  C20       10.4710  130.9840   -3.4470 C.3   2010  GER2010     0.0260
@<TRIPOS>BOND
     1    14    13    1
     2    16    15    1
     3    16    17    1
     4    19    18    1
     5    15    13    1
     6    13    12    2
     7    17    18    2
     8    18    20    1
     9    12    11    1
    10    11    10    1
    11     9     8    1
    12    10     8    1
    13     8     7    2
    14     7     6    1
    15     6     5    1
    16     5     3    1
    17     4     3    1
    18     3     2    2
    19     2     1    1
