@<TRIPOS>MOLECULE
2h6g_III_P_1.pdb
 28 27 0 0 0
SMALL
GASTEIGER

@<TRIPOS>ATOM
      1  N         20.2130  136.5900    1.9170 N.3   2006  CYS2006    -0.1221
      2  CA        19.6140  135.3300    1.3820 C.3   2006  CYS2006     0.1808
      3  C         18.8230  135.5840    0.0890 C.2   2006  CYS2006     0.2601
      4  O         17.5950  135.6790    0.1410 O.2   2006  CYS2006    -0.2717
      5  CB        18.6500  134.6970    2.4140 C.3   2006  CYS2006     0.0970
      6  SG        19.4220  133.8670    3.8790 S.3   2006  CYS2006    -0.0800
      7  N         19.4930  135.7010   -1.0600 N.am  2007  VAL2007    -0.1965
      8  CA        18.7490  135.9210   -2.3050 C.3   2007  VAL2007     0.1727
      9  C         18.5250  134.6190   -3.0740 C.2   2007  VAL2007     0.2616
     10  O         19.4670  133.8730   -3.3560 O.2   2007  VAL2007    -0.2715
     11  CB        19.4370  136.9560   -3.2500 C.3   2007  VAL2007     0.0290
     12  CG1       19.6330  138.2780   -2.5170 C.3   2007  VAL2007     0.0023
     13  CG2       20.7510  136.4130   -3.7780 C.3   2007  VAL2007     0.0023
     14  N         17.2640  134.3600   -3.4060 N.am  2008  LEU2008    -0.1963
     15  CA        16.8710  133.1510   -4.1260 C.3   2008  LEU2008     0.1728
     16  C         16.9360  133.2870   -5.6380 C.2   2008  LEU2008     0.2617
     17  O         16.9750  132.2820   -6.3510 O.2   2008  LEU2008    -0.2715
     18  CB        15.4400  132.7540   -3.7620 C.3   2008  LEU2008     0.0311
     19  CG        15.1060  132.4730   -2.3010 C.3   2008  LEU2008     0.0022
     20  CD1       13.7690  131.7580   -2.2350 C.3   2008  LEU2008     0.0001
     21  CD2       16.1850  131.6070   -1.6780 C.3   2008  LEU2008     0.0001
     22  N         16.9260  134.5280   -6.1210 N.am  2009  SER2009    -0.1914
     23  CA        16.9540  134.7880   -7.5530 C.3   2009  SER2009     0.2304
     24  C         17.3860  136.2180   -7.8670 C.2   2009  SER2009     0.3869
     25  O         17.7630  136.9470   -6.9230 O.co2 2009  SER2009    -0.2437
     26  CB        15.5650  134.5410   -8.1490 C.3   2009  SER2009     0.2152
     27  OG        14.6260  135.4610   -7.6180 O.3   2009  SER2009    -0.2179
     28  OXT       17.3400  136.5840   -9.0620 O.co2 2009  SER2009    -0.2437
@<TRIPOS>BOND
     1    28    24   ar
     2    26    27    1
     3    26    23    1
     4    24    23    1
     5    24    25   ar
     6    23    22    1
     7    17    16    2
     8    22    16   am
     9    16    15    1
    10    15    18    1
    11    15    14    1
    12    13    11    1
    13    18    19    1
    14    14     9   am
    15    10     9    2
    16    11    12    1
    17    11     8    1
    18     9     8    1
    19     8     7    1
    20    19    20    1
    21    19    21    1
    22     7     3   am
    23     3     4    2
    24     3     2    1
    25     2     1    1
    26     2     5    1
    27     5     6    1
