@<TRIPOS>MOLECULE
2h6h_FAR_P_1.pdb
 15 14 0 0 0
SMALL
GASTEIGER

@<TRIPOS>ATOM
      1  C1        20.5280  132.6060    2.6000 C.3   2010  FAR2010     0.0300
      2  C2        19.6410  131.9200    1.5860 C.2   2010  FAR2010    -0.0342
      3  C3        19.9330  131.7820    0.2700 C.2   2010  FAR2010    -0.0478
      4  C5        19.0030  131.0830   -0.6850 C.3   2010  FAR2010     0.0263
      5  C6        19.4150  129.6540   -1.0290 C.3   2010  FAR2010     0.0297
      6  C7        18.3070  128.8820   -1.7110 C.2   2010  FAR2010    -0.0342
      7  C8        18.2600  128.5760   -3.0320 C.2   2010  FAR2010    -0.0478
      8  C9        17.1090  127.8010   -3.6240 C.3   2010  FAR2010     0.0263
      9  C11       16.2890  128.5570   -4.6760 C.3   2010  FAR2010     0.0297
     10  C12       15.0150  127.8280   -5.0250 C.2   2010  FAR2010    -0.0342
     11  C13       14.1000  128.2370   -5.9360 C.2   2010  FAR2010    -0.0478
     12  C14       14.2280  129.4910   -6.7680 C.3   2010  FAR2010     0.0260
     13  C15       12.8570  127.4520   -6.2210 C.3   2010  FAR2010     0.0260
     14  C4        21.1880  132.3220   -0.3770 C.3   2010  FAR2010     0.0260
     15  C10       19.3370  128.9520   -4.0300 C.3   2010  FAR2010     0.0260
@<TRIPOS>BOND
     1    12    11    1
     2    13    11    1
     3    11    10    2
     4    10     9    1
     5     9     8    1
     6    15     7    1
     7     8     7    1
     8     7     6    2
     9     6     5    1
    10     5     4    1
    11     4     3    1
    12    14     3    1
    13     3     2    2
    14     2     1    1
