@<TRIPOS>MOLECULE
2h6i_GER_P_1.pdb
 20 19 0 0 0
SMALL
GASTEIGER

@<TRIPOS>ATOM
      1  C1        20.5190  132.5810    2.7510 C.3   2010  GER2010     0.0300
      2  C2        19.7520  131.9360    1.6060 C.2   2010  GER2010    -0.0342
      3  C3        20.2330  131.7900    0.3290 C.2   2010  GER2010    -0.0478
      4  C4        21.6040  132.2730   -0.1060 C.3   2010  GER2010     0.0260
      5  C5        19.4300  131.1550   -0.7900 C.3   2010  GER2010     0.0263
      6  C6        19.5570  129.6220   -0.9810 C.3   2010  GER2010     0.0297
      7  C7        18.2860  129.0380   -1.5810 C.2   2010  GER2010    -0.0342
      8  C8        18.0640  128.7350   -2.8830 C.2   2010  GER2010    -0.0478
      9  C9        19.0980  128.9300   -3.9840 C.3   2010  GER2010     0.0260
     10  C10       16.7200  128.1900   -3.3230 C.3   2010  GER2010     0.0263
     11  C11       16.2420  128.6750   -4.7000 C.3   2010  GER2010     0.0297
     12  C12       14.8820  128.1490   -5.0570 C.2   2010  GER2010    -0.0342
     13  C13       14.2000  128.4090   -6.2120 C.2   2010  GER2010    -0.0478
     14  C14       14.6960  129.2690   -7.3380 C.3   2010  GER2010     0.0260
     15  C15       12.8190  127.8800   -6.4570 C.3   2010  GER2010     0.0263
     16  C16       11.8970  128.4780   -5.4440 C.3   2010  GER2010     0.0297
     17  C17       11.3550  129.8110   -5.8780 C.2   2010  GER2010    -0.0342
     18  C18       10.5420  130.6020   -5.1380 C.2   2010  GER2010    -0.0478
     19  C19       10.0800  130.2870   -3.7360 C.3   2010  GER2010     0.0260
     20  C20        9.9680  131.8710   -5.6790 C.3   2010  GER2010     0.0260
@<TRIPOS>BOND
     1    14    13    1
     2    15    13    1
     3    15    16    1
     4    13    12    2
     5    17    16    1
     6    17    18    2
     7    20    18    1
     8    18    19    1
     9    12    11    1
    10    11    10    1
    11     9     8    1
    12    10     8    1
    13     8     7    2
    14     7     6    1
    15     6     5    1
    16     5     3    1
    17     4     3    1
    18     3     2    2
    19     2     1    1
