@<TRIPOS>MOLECULE
2h6i_III_P_1.pdb
 28 27 0 0 0
SMALL
GASTEIGER

@<TRIPOS>ATOM
      1  N         20.5840  136.7280    1.3360 N.3   2006  CYS2006    -0.1221
      2  CA        19.8910  135.4630    0.9120 C.3   2006  CYS2006     0.1808
      3  C         19.0100  135.6960   -0.3320 C.2   2006  CYS2006     0.2601
      4  O         17.7930  135.7350   -0.1880 O.2   2006  CYS2006    -0.2717
      5  CB        18.9380  134.9170    2.0310 C.3   2006  CYS2006     0.0970
      6  SG        19.6110  133.9580    3.5090 S.3   2006  CYS2006    -0.0800
      7  N         19.5670  135.8490   -1.5340 N.am  2007  VAL2007    -0.1965
      8  CA        18.6800  136.0410   -2.6980 C.3   2007  VAL2007     0.1727
      9  C         18.4290  134.7390   -3.4580 C.2   2007  VAL2007     0.2616
     10  O         19.3510  133.9910   -3.7590 O.2   2007  VAL2007    -0.2715
     11  CB        19.2060  137.1100   -3.6950 C.3   2007  VAL2007     0.0290
     12  CG1       19.3770  138.4210   -2.9800 C.3   2007  VAL2007     0.0023
     13  CG2       20.5130  136.6630   -4.3270 C.3   2007  VAL2007     0.0023
     14  N         17.1730  134.4740   -3.7750 N.am  2008  LEU2008    -0.1963
     15  CA        16.8380  133.2500   -4.4730 C.3   2008  LEU2008     0.1728
     16  C         16.9460  133.3950   -5.9720 C.2   2008  LEU2008     0.2617
     17  O         17.1420  132.3960   -6.6780 O.2   2008  LEU2008    -0.2715
     18  CB        15.4140  132.8300   -4.1540 C.3   2008  LEU2008     0.0311
     19  CG        15.0340  132.6430   -2.6910 C.3   2008  LEU2008     0.0022
     20  CD1       13.6160  132.0940   -2.6270 C.3   2008  LEU2008     0.0001
     21  CD2       16.0020  131.6880   -2.0200 C.3   2008  LEU2008     0.0001
     22  N         16.7950  134.6330   -6.4540 N.am  2009  SER2009    -0.1914
     23  CA        16.8420  134.9170   -7.8930 C.3   2009  SER2009     0.2304
     24  C         17.3390  136.3250   -8.2160 C.2   2009  SER2009     0.3869
     25  O         17.7340  137.0280   -7.2430 O.co2 2009  SER2009    -0.2437
     26  CB        15.4530  134.7220   -8.5040 C.3   2009  SER2009     0.2152
     27  OG        14.4880  135.4700   -7.7890 O.3   2009  SER2009    -0.2179
     28  OXT       17.3270  136.6870   -9.4320 O.co2 2009  SER2009    -0.2437
@<TRIPOS>BOND
     1    28    24   ar
     2    26    23    1
     3    26    27    1
     4    24    23    1
     5    24    25   ar
     6    23    22    1
     7    17    16    2
     8    22    16   am
     9    16    15    1
    10    15    18    1
    11    15    14    1
    12    13    11    1
    13    18    19    1
    14    14     9   am
    15    10     9    2
    16    11    12    1
    17    11     8    1
    18     9     8    1
    19     8     7    1
    20    19    20    1
    21    19    21    1
    22     7     3   am
    23     3     4    2
    24     3     2    1
    25     2     1    1
    26     2     5    1
    27     5     6    1
