@<TRIPOS>MOLECULE
2h6m_III_I_1.pdb
 33 32 0 0 0
SMALL
GASTEIGER

@<TRIPOS>ATOM
      1  C         -7.1320  -11.1200   41.4650 C.2     1  ACE1        0.2423
      2  O         -7.8790  -10.1550   41.6460 O.2     1  ACE1       -0.2733
      3  CH3       -7.4560  -12.4730   42.0680 C.3     1  ACE1        0.0964
      4  N         -6.0150  -11.0580   40.7440 N.am    2  LEU2       -0.1978
      5  CA        -5.5490   -9.8210   40.1140 C.3     2  LEU2        0.1727
      6  C         -6.1700   -9.6140   38.7400 C.2     2  LEU2        0.2616
      7  O         -6.2780  -10.5560   37.9520 O.2     2  LEU2       -0.2715
      8  CB        -4.0270   -9.8350   39.9690 C.3     2  LEU2        0.0311
      9  CG        -3.1340   -9.9590   41.2010 C.3     2  LEU2        0.0022
     10  CD1       -1.7130  -10.2810   40.7610 C.3     2  LEU2        0.0001
     11  CD2       -3.1790   -8.6830   42.0240 C.3     2  LEU2        0.0001
     12  N         -6.5670   -8.3760   38.4580 N.am    3  ALA3       -0.1963
     13  CA        -7.0740   -7.9990   37.1420 C.3     3  ALA3        0.1728
     14  C         -6.2260   -6.8740   36.5510 C.2     3  ALA3        0.2616
     15  O         -5.8050   -5.9590   37.2650 O.2     3  ALA3       -0.2715
     16  CB        -8.5320   -7.5720   37.2260 C.3     3  ALA3        0.0334
     17  N         -5.9760   -6.9470   35.2470 N.am    4  ALA4       -0.1963
     18  CA        -5.3030   -5.8650   34.5350 C.3     4  ALA4        0.1728
     19  C         -6.0500   -4.5610   34.7830 C.2     4  ALA4        0.2612
     20  O         -7.2510   -4.4470   34.5070 O.2     4  ALA4       -0.2715
     21  CB        -5.2290   -6.1660   33.0360 C.3     4  ALA4        0.0334
     22  C         -5.3020   -1.3120   34.6240 C.3     5  GLN5        0.1719
     23  CD        -6.4470   -1.9650   39.2730 C.2     5  GLN5        0.2258
     24  CG        -6.7860   -2.0520   37.8150 C.3     5  GLN5        0.0871
     25  N         -5.3350   -3.5910   35.3390 N.am    5  GLN5       -0.2031
     26  OE1       -5.3890   -1.4600   39.6410 O.2     5  GLN5       -0.2749
     27  NE2       -7.3620   -2.4680   40.1130 N.am    5  GLN5       -0.2760
     28  CH1       -8.6200   -3.0700   39.6730 C.3     5  GLN5        0.1149
     29  CH2       -7.1990   -2.4710   41.5590 C.3     5  GLN5        0.1149
     30  CA        -5.8980   -2.2810   35.6120 C.3     5  GLN5        0.1261
     31  CB        -5.5380   -1.8400   37.0250 C.3     5  GLN5        0.0338
     32  O         -5.7170    0.0900   34.6180 O.3     5  GLN5       -0.2213
     33  C1        -4.8130   -1.6230   33.1750 C.3     6  CF06        0.0373
@<TRIPOS>BOND
     1    21    18    1
     2    33    22    1
     3    20    19    2
     4    18    19    1
     5    18    17    1
     6    32    22    1
     7    22    30    1
     8    19    25   am
     9    17    14   am
    10    25    30    1
    11    30    31    1
    12    14    13    1
    13    14    15    2
    14    31    24    1
    15    13    16    1
    16    13    12    1
    17    24    23    1
    18     7     6    2
    19    12     6   am
    20     6     5    1
    21    23    26    2
    22    23    27   am
    23    28    27    1
    24     8     5    1
    25     8     9    1
    26    27    29    1
    27     5     4    1
    28     4     1   am
    29    10     9    1
    30     9    11    1
    31     1     2    2
    32     1     3    1
