@<TRIPOS>MOLECULE
2h6m_BBL_A_1.pdb
 16 16 0 0 0
SMALL
GASTEIGER

@<TRIPOS>ATOM
      1  OG2       15.9420   16.1570   35.2570 O.co2 901  BBL901     -0.2437
      2  CB2       16.9260   15.6900   35.8740 C.2   901  BBL901      0.3843
      3  OG1       18.0170   16.3230   35.9530 O.co2 901  BBL901     -0.2437
      4  CA        16.7930   14.3150   36.5030 C.3   901  BBL901      0.2012
      5  CBZ       15.5510   14.1630   37.3990 C.3   901  BBL901      0.0358
      6  N         17.9720   13.9590   37.2650 N.am  901  BBL901     -0.1589
      7  C         19.0070   13.3390   36.7140 C.2   901  BBL901      0.4219
      8  O         19.0600   12.9790   35.5400 O.2   901  BBL901     -0.2245
      9  OEZ       20.1300   13.0990   37.5930 O.3   901  BBL901     -0.4285
     10  CB        21.4140   12.7820   37.0670 C.3   901  BBL901      0.2368
     11  CG        22.4540   13.2700   38.0410 C.ar  901  BBL901      0.0213
     12  CD1       23.7450   12.7460   37.9790 C.ar  901  BBL901     -0.0007
     13  CE1       24.7180   13.1800   38.8760 C.ar  901  BBL901     -0.0002
     14  CZ        24.3990   14.1470   39.8290 C.ar  901  BBL901     -0.0000
     15  CE2       23.1090   14.6720   39.8970 C.ar  901  BBL901     -0.0002
     16  CD2       22.1320   14.2350   39.0000 C.ar  901  BBL901     -0.0007
@<TRIPOS>BOND
     1     1     2   ar
     2     8     7    2
     3     2     3   ar
     4     2     4    1
     5     4     6    1
     6     4     5    1
     7     7     6   am
     8     7     9    1
     9    10     9    1
    10    10    11    1
    11    12    11   ar
    12    12    13   ar
    13    11    16   ar
    14    13    14   ar
    15    16    15   ar
    16    14    15   ar
