@<TRIPOS>MOLECULE
2h77_T3_A_1.pdb
 23 24 0 0 0
SMALL
GASTEIGER

@<TRIPOS>ATOM
      1  C1        21.3110    4.0720    5.5430 C.ar    1  T31        -0.0191
      2  C2        17.3440    6.0640    8.0540 C.ar    1  T31         0.1460
      3  C3        20.7830    3.9050    6.6730 C.ar    1  T31         0.0047
      4  C4        16.5330    6.2500    8.9590 C.ar    1  T31         0.0465
      5  C5        19.7810    4.0090    7.4240 C.ar    1  T31         0.0647
      6  C6        16.0980    7.0660    9.8160 C.ar    1  T31         0.0720
      7  C7        18.7360    4.5830    6.6850 C.ar    1  T31         0.1558
      8  C8        16.7060    8.3130    9.6210 C.ar    1  T31         0.2012
      9  C9        18.9880    4.9260    5.3070 C.ar    1  T31         0.0647
     10  C10       17.5610    8.0510    8.6960 C.ar    1  T31         0.0456
     11  C11       20.3060    4.6420    4.7700 C.ar    1  T31         0.0047
     12  C12       18.0540    7.2250    7.8820 C.ar    1  T31         0.0408
     13  C13       22.6870    3.6980    5.0780 C.3     1  T31         0.0570
     14  C15       22.7570    3.4210    3.5840 C.3     1  T31         0.1986
     15  C17       24.1630    3.0140    3.2240 C.2     1  T31         0.3822
     16  I1        19.6040    3.5210    9.4410 I       1  T31        -0.0393
     17  I2        14.6530    6.8120   11.2730 I       1  T31        -0.0391
     18  I3        17.5180    5.8470    3.9660 I       1  T31        -0.0393
     19  N1        21.7710    2.4990    3.0280 N.3     1  T31        -0.1205
     20  O1        16.3520    9.4900   10.2630 O.3     1  T31        -0.2861
     21  O2        17.5310    4.8210    7.3280 O.3     1  T31        -0.4526
     22  O3        24.4370    2.0500    2.4950 O.co2   1  T31        -0.2440
     23  O4        25.0570    3.6830    3.7040 O.co2   1  T31        -0.2440
@<TRIPOS>BOND
     1    22    15   ar
     2    19    14    1
     3    15    14    1
     4    15    23   ar
     5    14    13    1
     6    18     9    1
     7    11     9   ar
     8    11     1   ar
     9    13     1    1
    10     9     7   ar
    11     1     3   ar
    12     3     5   ar
    13     7    21    1
    14     7     5   ar
    15    21     2    1
    16     5    16    1
    17    12     2   ar
    18    12    10   ar
    19     2     4   ar
    20    10     8   ar
    21     4     6   ar
    22     8     6   ar
    23     8    20    1
    24     6    17    1
