@<TRIPOS>MOLECULE
2h79_T3_A_1.pdb
 23 24 0 0 0
SMALL
GASTEIGER

@<TRIPOS>ATOM
      1  C1        25.8290    2.3580   16.3690 C.ar    1  T31        -0.0191
      2  C2        28.1790    1.0020   20.6740 C.ar    1  T31         0.1460
      3  C3        26.1860    1.0400   16.5600 C.ar    1  T31         0.0047
      4  C4        28.4300   -0.0110   21.5540 C.ar    1  T31         0.0465
      5  C5        26.5230    0.5910   17.8430 C.ar    1  T31         0.0647
      6  C6        29.7460   -0.0840   22.1190 C.ar    1  T31         0.0720
      7  C7        26.5420    1.4910   18.9470 C.ar    1  T31         0.1558
      8  C8        30.7820    0.8760   21.6860 C.ar    1  T31         0.2012
      9  C9        26.1610    2.8500   18.6920 C.ar    1  T31         0.0647
     10  C10       30.4380    1.8940   20.7520 C.ar    1  T31         0.0456
     11  C11       25.8760    3.3070   17.4150 C.ar    1  T31         0.0047
     12  C12       29.1180    1.9670   20.2280 C.ar    1  T31         0.0408
     13  C13       25.5000    2.7620   14.9070 C.3     1  T31         0.0570
     14  C15       24.3530    3.7790   14.7940 C.3     1  T31         0.1986
     15  C17       23.9980    3.8590   13.3090 C.2     1  T31         0.3822
     16  I1        27.0560   -1.4440   18.1270 I       1  T31        -0.0393
     17  I2        30.2280   -1.5590   23.4800 I       1  T31        -0.0391
     18  I3        25.9960    4.2480   20.3580 I       1  T31        -0.0393
     19  N1        23.1910    3.4070   15.6240 N.3     1  T31        -0.1205
     20  O1        31.9970    0.7710   22.3290 O.3     1  T31        -0.2861
     21  O2        26.8830    1.0710   20.2030 O.3     1  T31        -0.4526
     22  O3        22.7240    3.9620   13.0560 O.co2   1  T31        -0.2440
     23  O4        24.8750    4.0400   12.4840 O.co2   1  T31        -0.2440
@<TRIPOS>BOND
     1    23    15   ar
     2    22    15   ar
     3    15    14    1
     4    14    13    1
     5    14    19    1
     6    13     1    1
     7     1     3   ar
     8     1    11   ar
     9     3     5   ar
    10    11     9   ar
    11     5    16    1
    12     5     7   ar
    13     9     7   ar
    14     9    18    1
    15     7    21    1
    16    21     2    1
    17    12     2   ar
    18    12    10   ar
    19     2     4   ar
    20    10     8   ar
    21     4     6   ar
    22     8     6   ar
    23     8    20    1
    24     6    17    1
