@<TRIPOS>MOLECULE
2h7c_COA_A_1.pdb
 48 50 0 0 0
SMALL
GASTEIGER

@<TRIPOS>ATOM
      1  N1A       12.4480    0.9530   23.6450 N.2     1  COA1        0.0021
      2  C2A       12.6440    0.1680   24.6980 C.3     1  COA1        0.5254
      3  N3A       11.7430   -0.3910   25.4880 N.2     1  COA1       -0.0055
      4  C4A       10.3210   -0.1240   25.1500 C.2     1  COA1        0.3518
      5  C5A       10.0510    0.7430   23.9890 C.2     1  COA1        0.2526
      6  C6A       11.2100    1.2450   23.2530 C.2     1  COA1        0.4393
      7  N6A       11.0780    2.0320   22.1970 N.pl3   1  COA1        0.2180
      8  N7A        8.7040    0.9200   23.7550 N.2     1  COA1       -0.2095
      9  C8A        8.2390    0.1650   24.8000 C.3     1  COA1        0.3377
     10  N9A        9.0730   -0.5040   25.6900 N.pl3   1  COA1       -0.1439
     11  C1B        8.6420   -1.3600   26.8640 C.3     1  COA1        0.3185
     12  C2B        8.9840   -2.8380   26.6670 C.3     1  COA1        0.2543
     13  O2B        7.8020   -3.6160   26.8710 O.3     1  COA1       -0.2131
     14  C3B       10.0780   -3.2010   27.6980 C.3     1  COA1        0.1928
     15  O3B        9.6530   -4.4570   28.3060 O.3     1  COA1       -0.2673
     16  P3B       10.5090   -5.4820   29.1960 P.3     1  COA1        0.5327
     17  O7A       11.3080   -6.4240   28.2600 O.2     1  COA1       -0.2224
     18  O8A        9.5120   -6.3490   30.0860 O.3     1  COA1       -0.1145
     19  O9A       11.4750   -4.7030   30.0980 O.3     1  COA1       -0.1145
     20  C4B       10.0590   -2.0030   28.6760 C.3     1  COA1        0.1795
     21  O4B        9.2970   -0.9300   28.0590 O.3     1  COA1       -0.3136
     22  C5B       11.3990   -1.3030   29.0750 C.3     1  COA1        0.1812
     23  O5B       12.4520   -2.0930   29.7230 O.3     1  COA1       -0.3112
     24  P1A       13.8480   -1.3850   30.2400 P.3     1  COA1        0.2189
     25  O1A       14.2010   -0.1600   29.3620 O.2     1  COA1       -0.5170
     26  O2A       13.4680   -0.9390   31.7240 O.3     1  COA1       -0.4371
     27  O3A       15.1230   -2.3420   30.3270 O.3     1  COA1       -0.2703
     28  P2A       15.7660   -2.8650   29.0020 P.3     1  COA1        0.2188
     29  O4A       17.0130   -3.8140   29.3170 O.3     1  COA1       -0.4371
     30  O5A       14.6900   -3.6590   28.2730 O.2     1  COA1       -0.5170
     31  O6A       16.2110   -1.5790   28.1010 O.3     1  COA1       -0.3138
     32  CBP       17.1160   -0.2820   26.0990 C.3     1  COA1        0.0599
     33  CCP       16.8630   -1.6630   26.7960 C.3     1  COA1        0.1516
     34  CDP       17.9590    0.6750   26.9780 C.3     1  COA1        0.0052
     35  CEP       15.7300    0.3300   25.9520 C.3     1  COA1        0.0052
     36  CAP       17.7830   -0.4300   24.6600 C.3     1  COA1        0.2012
     37  OAP       16.9430   -1.3090   23.8810 O.3     1  COA1       -0.2187
     38  C9P       19.2430   -0.9900   24.5990 C.3     1  COA1        0.2561
     39  O9P       19.2560   -2.2790   24.0300 O.3     1  COA1       -0.2008
     40  N8P       20.0820   -0.2200   23.6440 N.3     1  COA1       -0.1869
     41  C7P       21.4110    0.2990   24.0870 C.3     1  COA1        0.0955
     42  C6P       21.3190    1.6080   24.9140 C.3     1  COA1        0.0702
     43  C5P       22.7100    2.1060   25.3120 C.3     1  COA1        0.2270
     44  O5P       23.4120    2.5180   24.1540 O.3     1  COA1       -0.2036
     45  N4P       22.6390    3.3330   26.1170 N.3     1  COA1       -0.1883
     46  C3P       23.8050    3.5420   27.0190 C.3     1  COA1        0.1038
     47  C2P       23.6060    4.8480   27.7900 C.3     1  COA1        0.0875
     48  S1P       21.9780    4.8480   28.6380 S.3     1  COA1       -0.0806
@<TRIPOS>BOND
     1     7     6    1
     2     6     1    2
     3     6     5    1
     4    40    41    1
     5    40    38    1
     6     1     2    1
     7     8     5    2
     8     8     9    1
     9    37    36    1
    10     5     4    1
    11    39    38    1
    12    41    42    1
    13    44    43    1
    14    38    36    1
    15    36    32    1
    16     2     3    1
    17     9    10    1
    18    42    43    1
    19     4     3    2
    20     4    10    1
    21    43    45    1
    22    10    11    1
    23    35    32    1
    24    32    33    1
    25    32    34    1
    26    45    46    1
    27    12    11    1
    28    12    13    1
    29    12    14    1
    30    33    31    1
    31    11    21    1
    32    46    47    1
    33    14    15    1
    34    14    20    1
    35    47    48    1
    36    21    20    1
    37    31    28    1
    38    17    16    2
    39    30    28    2
    40    15    16    1
    41    20    22    1
    42    28    29    1
    43    28    27    1
    44    22    23    1
    45    16    18    1
    46    16    19    1
    47    25    24    2
    48    23    24    1
    49    24    27    1
    50    24    26    1
