@<TRIPOS>MOLECULE
2h7c_SIA_D_1.pdb
 21 21 0 0 0
SMALL
GASTEIGER

@<TRIPOS>ATOM
      1  C1        -8.0410  -31.1600   20.8040 C.2   482  SIA482      0.4179
      2  C2        -9.4380  -30.5810   20.6330 C.3   482  SIA482      0.3155
      3  C3       -10.2500  -31.4710   19.6840 C.3   482  SIA482      0.1056
      4  C4       -11.7580  -31.3030   19.9120 C.3   482  SIA482      0.1798
      5  C5       -12.0690  -29.9660   20.5970 C.3   482  SIA482      0.1554
      6  C6       -11.3350  -29.8410   21.9490 C.3   482  SIA482      0.1734
      7  C7       -11.1380  -28.3650   22.3220 C.3   482  SIA482      0.2135
      8  C8       -10.1070  -28.2080   23.4400 C.3   482  SIA482      0.2173
      9  C9        -9.9940  -26.7420   23.8550 C.3   482  SIA482      0.2175
     10  C10      -13.9890  -28.7840   21.4500 C.2   482  SIA482      0.2420
     11  C11      -14.3790  -28.9830   22.9080 C.3   482  SIA482      0.0964
     12  N5       -13.5000  -29.8370   20.8020 N.am  482  SIA482     -0.2020
     13  O1A       -7.4290  -31.5600   19.7910 O.co2 482  SIA482     -0.2401
     14  O1B       -7.5450  -31.2040   21.9510 O.co2 482  SIA482     -0.2401
     15  O2        -9.3530  -29.2920   20.1300 O.3   482  SIA482     -0.1830
     16  O4       -12.4340  -31.3580   18.6630 O.3   482  SIA482     -0.2210
     17  O6       -10.0540  -30.5350   21.9300 O.3   482  SIA482     -0.3220
     18  O7       -10.7290  -27.6210   21.1820 O.3   482  SIA482     -0.2176
     19  O8       -10.4970  -28.9950   24.5570 O.3   482  SIA482     -0.2175
     20  O9       -11.2580  -26.2710   24.2990 O.3   482  SIA482     -0.2175
     21  O10      -14.1210  -27.6780   20.9250 O.2   482  SIA482     -0.2733
@<TRIPOS>BOND
     1    16     4    1
     2     3     4    1
     3     3     2    1
     4    13     1   ar
     5     4     5    1
     6    15     2    1
     7     5    12    1
     8     5     6    1
     9     2     1    1
    10     2    17    1
    11    12    10   am
    12     1    14   ar
    13    21    10    2
    14    18     7    1
    15    10    11    1
    16    17     6    1
    17     6     7    1
    18     7     8    1
    19     8     9    1
    20     8    19    1
    21     9    20    1
