@<TRIPOS>MOLECULE
2h7i_NAD_A_1.pdb
 44 48 0 0 0
SMALL
GASTEIGER

@<TRIPOS>ATOM
      1  PA        48.1420   51.1220  -81.5970 P.3   400  NAD400      0.2189
      2  O1A       49.0520   50.0740  -81.1080 O.2   400  NAD400     -0.5170
      3  O2A       48.0800   52.4260  -80.8240 O.3   400  NAD400     -0.4371
      4  O5B       48.4990   51.3590  -83.1270 O.3   400  NAD400     -0.3112
      5  C5B       47.8540   52.3750  -83.8590 C.3   400  NAD400      0.1813
      6  C4B       48.9320   52.9280  -84.7950 C.3   400  NAD400      0.1821
      7  O4B       48.4180   54.0500  -85.5080 O.3   400  NAD400     -0.3135
      8  C3B       50.1820   53.4120  -84.0240 C.3   400  NAD400      0.2184
      9  O3B       51.3330   52.6550  -84.3620 O.3   400  NAD400     -0.2174
     10  C2B       50.2640   54.8650  -84.4050 C.3   400  NAD400      0.2570
     11  O2B       51.5600   55.4330  -84.4140 O.3   400  NAD400     -0.2130
     12  C1B       49.5880   54.8090  -85.7470 C.3   400  NAD400      0.3186
     13  N9A       49.3120   56.1240  -86.3540 N.pl3 400  NAD400     -0.1439
     14  C8A       48.5390   57.1560  -85.8780 C.3   400  NAD400      0.3377
     15  N7A       48.6030   58.1760  -86.7500 N.2   400  NAD400     -0.2095
     16  C5A       49.4050   57.8210  -87.7760 C.2   400  NAD400      0.2526
     17  C6A       49.8400   58.4560  -88.9380 C.2   400  NAD400      0.4393
     18  N6A       49.4640   59.6950  -89.2190 N.pl3 400  NAD400      0.2180
     19  N1A       50.6910   57.7840  -89.8150 N.2   400  NAD400      0.0021
     20  C2A       51.1060   56.4820  -89.5390 C.3   400  NAD400      0.5254
     21  N3A       50.6860   55.8430  -88.3840 N.2   400  NAD400     -0.0055
     22  C4A       49.8480   56.5140  -87.5310 C.2   400  NAD400      0.3518
     23  O3        46.6350   50.5460  -81.6800 O.3   400  NAD400     -0.2703
     24  PN        46.1680   49.0230  -81.9090 P.3   400  NAD400      0.2189
     25  O1N       47.3250   48.1130  -82.0140 O.2   400  NAD400     -0.5170
     26  O2N       45.1660   48.7350  -80.8540 O.3   400  NAD400     -0.4371
     27  O5D       45.3610   49.0100  -83.2630 O.3   400  NAD400     -0.3112
     28  C5D       45.9470   49.2130  -84.5050 C.3   400  NAD400      0.1813
     29  C4D       44.8480   49.0290  -85.5460 C.3   400  NAD400      0.1799
     30  O4D       43.9860   47.9340  -85.1310 O.3   400  NAD400     -0.3327
     31  C3D       43.9220   50.2250  -85.7170 C.3   400  NAD400      0.2158
     32  O3D       43.5150   50.3270  -87.0740 O.3   400  NAD400     -0.2175
     33  C2D       42.7820   49.9040  -84.8060 C.3   400  NAD400      0.2309
     34  O2D       41.6510   50.6890  -85.0800 O.3   400  NAD400     -0.2158
     35  C1D       42.6480   48.4090  -85.0750 C.3   400  NAD400      0.2263
     36  N1N       41.8360   47.6310  -84.0800 N.pl3 400  NAD400     -0.2787
     37  C2N       42.1730   47.6900  -82.7250 C.3   400  NAD400      0.1244
     38  C3N       41.3970   46.9850  -81.7900 C.2   400  NAD400      0.0544
     39  C7N       41.7400   47.0480  -80.3340 C.2   400  NAD400      0.2818
     40  O7N       40.9280   46.3680  -79.4820 O.2   400  NAD400     -0.2670
     41  N7N       42.7690   47.7190  -79.8380 N.am  400  NAD400     -0.0839
     42  C4N       40.2810   46.2240  -82.2480 C.2   400  NAD400      0.0033
     43  C5N       39.9670   46.1710  -83.6240 C.2   400  NAD400      0.0157
     44  C6N       40.7560   46.8870  -84.5270 C.2   400  NAD400      0.0633
@<TRIPOS>BOND
     1    19    20    1
     2    19    17    2
     3    20    21    1
     4    18    17    1
     5    17    16    1
     6    21    22    2
     7    16    22    1
     8    16    15    2
     9    22    13    1
    10    32    31    1
    11    15    14    1
    12    13    14    1
    13    13    12    1
    14    12     7    1
    15    12    10    1
    16    31    29    1
    17    31    33    1
    18    29    30    1
    19    29    28    1
    20     7     6    1
    21    30    35    1
    22    34    33    1
    23    35    33    1
    24    35    36    1
    25     6     8    1
    26     6     5    1
    27    44    36    1
    28    44    43    2
    29    28    27    1
    30    11    10    1
    31    10     8    1
    32     9     8    1
    33    36    37    1
    34     5     4    1
    35    43    42    1
    36    27    24    1
    37     4     1    1
    38    37    38    1
    39    42    38    2
    40    25    24    2
    41    24    23    1
    42    24    26    1
    43    38    39    1
    44    23     1    1
    45     1     2    2
    46     1     3    1
    47    39    41   am
    48    39    40    2
