@<TRIPOS>MOLECULE
2h7i_566_A_1.pdb
 21 23 0 0 0
SMALL
GASTEIGER

@<TRIPOS>ATOM
      1  C1        44.1920   53.6380  -82.0640 C.3   401  566401      0.0017
      2  C2        43.4600   52.3480  -81.6320 C.3   401  566401      0.0198
      3  C3        41.9390   52.3930  -81.9000 C.3   401  566401      0.0753
      4  C4        41.2750   53.6480  -81.2930 C.3   401  566401      0.0198
      5  C5        41.9630   54.9420  -81.7860 C.3   401  566401      0.0017
      6  C6        43.5000   54.9330  -81.5760 C.3   401  566401      0.0001
      7  C15       40.2220   50.6950  -82.0960 C.2   401  566401      0.2261
      8  C16       39.2160   50.1280  -81.1230 C.3   401  566401      0.0961
      9  C17       39.7830   50.2600  -79.7740 C.3   401  566401      0.1074
     10  C18       41.2600   50.9350  -79.8150 C.3   401  566401      0.1029
     11  N19       41.3220   51.1150  -81.4570 N.am  401  566401     -0.2806
     12  C24       36.3870   52.1870  -77.5570 C.ar  401  566401      0.0166
     13  C25       35.1840   52.6100  -76.9600 C.ar  401  566401      0.0013
     14  C26       34.0650   51.7510  -76.9400 C.ar  401  566401      0.0001
     15  C27       34.1470   50.4670  -77.5170 C.ar  401  566401      0.0013
     16  C28       35.3470   50.0380  -78.1170 C.ar  401  566401      0.0166
     17  C29       36.4750   50.8910  -78.1410 C.ar  401  566401      0.0734
     18  C33       38.7790   51.1170  -79.0110 C.2   401  566401      0.2473
     19  N35       37.6290   50.4100  -78.7680 N.am  401  566401     -0.1792
     20  O37       39.0100   52.2930  -78.7240 O.2   401  566401     -0.2729
     21  O38       40.0340   50.7380  -83.2950 O.2   401  566401     -0.2749
@<TRIPOS>BOND
     1    21     7    2
     2     7    11   am
     3     7     8    1
     4     1     2    1
     5     1     6    1
     6     3     2    1
     7     3    11    1
     8     3     4    1
     9     5     6    1
    10     5     4    1
    11    11    10    1
    12     8     9    1
    13    10     9    1
    14     9    18    1
    15    18    19   am
    16    18    20    2
    17    19    17    1
    18    17    16   ar
    19    17    12   ar
    20    16    15   ar
    21    12    13   ar
    22    15    14   ar
    23    13    14   ar
