@<TRIPOS>MOLECULE
2h7j_H7J_A_1.pdb
 27 28 0 0 0
SMALL
GASTEIGER

@<TRIPOS>ATOM
      1  O25       24.5310   36.3290   11.8470 O.2   300  H7J300     -0.2684
      2  C18       24.2840   35.9960   13.0060 C.2   300  H7J300      0.2650
      3  C19       24.9140   36.7470   14.1100 C.ar  300  H7J300      0.0550
      4  C24       25.4460   37.8820   13.8800 C.ar  300  H7J300      0.0046
      5  C23       26.0160   38.5670   14.8800 C.ar  300  H7J300      0.0001
      6  C22       26.0240   38.0790   16.0490 C.ar  300  H7J300      0.0000
      7  C21       25.4560   36.9600   16.2560 C.ar  300  H7J300      0.0001
      8  C20       24.9400   36.2890   15.3020 C.ar  300  H7J300      0.0046
      9  N17       23.1910   35.2720   13.3030 N.am  300  H7J300     -0.1996
     10  C14       22.1670   34.8440   12.3470 C.3   300  H7J300      0.1129
     11  C16       22.7690   34.0180   11.2050 C.3   300  H7J300      0.0276
     12  C15       21.0910   34.0240   13.0930 C.3   300  H7J300      0.0236
     13  C27       21.6810   32.8010   13.8140 C.3   300  H7J300      0.0021
     14  C26       19.8950   33.6070   12.2310 C.3   300  H7J300      0.0021
     15  C12       21.5360   36.1200   11.8600 C.2   300  H7J300      0.0927
     16  N11       21.0780   36.9440   12.8050 N.2   300  H7J300     -0.1523
     17  N10       20.5450   38.0200   12.0790 N.pl3 300  H7J300     -0.0627
     18  C13       21.3960   36.4820   10.4320 C.3   300  H7J300      0.1402
     19  N         20.7460   37.7500   10.7220 N.3   300  H7J300     -0.1573
     20  C4        20.3020   38.6330    9.7890 C.3   300  H7J300      0.1409
     21  C2        19.0550   38.4980    9.3210 C.2   300  H7J300      0.1674
     22  C         18.7270   37.2570    8.5740 C.3   300  H7J300      0.0738
     23  O         18.2180   39.3980    9.4020 O.2   300  H7J300     -0.2946
     24  C5        21.1390   39.8130    9.3860 C.3   300  H7J300      0.0510
     25  C7        22.6320   39.6020    9.4450 C.2   300  H7J300     -0.0288
     26  C8        23.3950   40.6400    9.1110 C.2   300  H7J300     -0.0303
     27  C9        24.8990   40.5160    9.1410 C.3   300  H7J300      0.0303
@<TRIPOS>BOND
     1    22    21    1
     2    26    27    1
     3    26    25    2
     4    21    23    2
     5    21    20    1
     6    24    25    1
     7    24    20    1
     8    20    19    1
     9    18    19    1
    10    18    15    1
    11    19    17    1
    12    11    10    1
    13     1     2    2
    14    15    10    1
    15    15    16    2
    16    17    16    1
    17    14    12    1
    18    10    12    1
    19    10     9    1
    20     2     9   am
    21     2     3    1
    22    12    13    1
    23     4     3   ar
    24     4     5   ar
    25     3     8   ar
    26     5     6   ar
    27     8     7   ar
    28     6     7   ar
