@<TRIPOS>MOLECULE
2h7l_NAD_A_1.pdb
 44 48 0 0 0
SMALL
GASTEIGER

@<TRIPOS>ATOM
      1  PA         0.6540   33.3310   58.8420 P.3   400  NAD400      0.2189
      2  O1A       -0.2470   34.3820   59.3330 O.2   400  NAD400     -0.5170
      3  O2A        0.7200   32.0330   59.6330 O.3   400  NAD400     -0.4371
      4  O5B        0.2820   33.0850   57.3130 O.3   400  NAD400     -0.3112
      5  C5B        0.9240   32.0620   56.5960 C.3   400  NAD400      0.1813
      6  C4B       -0.1680   31.5070   55.6070 C.3   400  NAD400      0.1821
      7  O4B        0.3610   30.3730   54.9360 O.3   400  NAD400     -0.3135
      8  C3B       -1.4340   31.0490   56.3520 C.3   400  NAD400      0.2184
      9  O3B       -2.5640   31.8230   55.9900 O.3   400  NAD400     -0.2174
     10  C2B       -1.5200   29.5850   55.9910 C.3   400  NAD400      0.2570
     11  O2B       -2.8170   29.0250   55.9400 O.3   400  NAD400     -0.2130
     12  C1B       -0.7910   29.5990   54.6750 C.3   400  NAD400      0.3186
     13  N9A       -0.4610   28.2630   54.1310 N.pl3 400  NAD400     -0.1439
     14  C8A        0.3120   27.2390   54.5910 C.3   400  NAD400      0.3377
     15  N7A        0.2230   26.2300   53.6990 N.2   400  NAD400     -0.2095
     16  C5A       -0.5980   26.6100   52.6840 C.2   400  NAD400      0.2526
     17  C6A       -1.0630   25.9860   51.5100 C.2   400  NAD400      0.4393
     18  N6A       -0.7020   24.7480   51.2040 N.pl3 400  NAD400      0.2180
     19  N1A       -1.9230   26.6790   50.6570 N.2   400  NAD400      0.0021
     20  C2A       -2.3250   27.9820   50.9620 C.3   400  NAD400      0.5254
     21  N3A       -1.8810   28.6040   52.1190 N.2   400  NAD400     -0.0055
     22  C4A       -1.0340   27.9180   52.9530 C.2   400  NAD400      0.3518
     23  O3         2.1590   33.9110   58.7180 O.3   400  NAD400     -0.2703
     24  PN         2.6310   35.4370   58.5190 P.3   400  NAD400      0.2189
     25  O1N        1.4890   36.3470   58.3680 O.2   400  NAD400     -0.5170
     26  O2N        3.6050   35.7180   59.6100 O.3   400  NAD400     -0.4371
     27  O5D        3.4700   35.4560   57.1810 O.3   400  NAD400     -0.3112
     28  C5D        2.8840   35.2610   55.9290 C.3   400  NAD400      0.1813
     29  C4D        3.9790   35.4380   54.8790 C.3   400  NAD400      0.1799
     30  O4D        4.8470   36.5240   55.2930 O.3   400  NAD400     -0.3327
     31  C3D        4.8910   34.2360   54.7080 C.3   400  NAD400      0.2158
     32  O3D        5.2790   34.1310   53.3500 O.3   400  NAD400     -0.2175
     33  C2D        6.0450   34.5490   55.6200 C.3   400  NAD400      0.2309
     34  O2D        7.1720   33.7590   55.3350 O.3   400  NAD400     -0.2158
     35  C1D        6.1800   36.0500   55.3560 C.3   400  NAD400      0.2263
     36  N1N        6.9780   36.8450   56.3510 N.pl3 400  NAD400     -0.2787
     37  C2N        6.6330   36.8040   57.7050 C.3   400  NAD400      0.1244
     38  C3N        7.4020   37.5330   58.6390 C.2   400  NAD400      0.0544
     39  C7N        7.0450   37.4850   60.0900 C.2   400  NAD400      0.2818
     40  O7N        7.8370   38.1810   60.9600 O.2   400  NAD400     -0.2670
     41  N7N        6.0180   36.8060   60.5660 N.am  400  NAD400     -0.0839
     42  C4N        8.5090   38.2970   58.1820 C.2   400  NAD400      0.0033
     43  C5N        8.8310   38.3320   56.8120 C.2   400  NAD400      0.0157
     44  C6N        8.0560   37.5960   55.9080 C.2   400  NAD400      0.0633
@<TRIPOS>BOND
     1    19    20    1
     2    19    17    2
     3    20    21    1
     4    18    17    1
     5    17    16    1
     6    21    22    2
     7    16    22    1
     8    16    15    2
     9    22    13    1
    10    32    31    1
    11    15    14    1
    12    13    14    1
    13    13    12    1
    14    12     7    1
    15    12    10    1
    16    31    29    1
    17    31    33    1
    18    29    30    1
    19    29    28    1
    20     7     6    1
    21    30    35    1
    22    34    33    1
    23    35    33    1
    24    35    36    1
    25     6     8    1
    26     6     5    1
    27    44    36    1
    28    44    43    2
    29    28    27    1
    30    11    10    1
    31     9     8    1
    32    10     8    1
    33    36    37    1
    34     5     4    1
    35    43    42    1
    36    27    24    1
    37     4     1    1
    38    37    38    1
    39    42    38    2
    40    25    24    2
    41    24    23    1
    42    24    26    1
    43    38    39    1
    44    23     1    1
    45     1     2    2
    46     1     3    1
    47    39    41   am
    48    39    40    2
