@<TRIPOS>MOLECULE
2h7l_665_A_1.pdb
 22 24 0 0 0
SMALL
GASTEIGER

@<TRIPOS>ATOM
      1  C1         4.5050   30.9890   58.3890 C.3   401  665401      0.0017
      2  C2         5.3290   32.2090   58.7070 C.3   401  665401      0.0198
      3  C3         6.9000   32.1060   58.5910 C.3   401  665401      0.0753
      4  C4         7.4920   30.8950   59.2870 C.3   401  665401      0.0198
      5  C5         6.8090   29.6420   58.6100 C.3   401  665401      0.0017
      6  C6         5.2130   29.6220   58.6460 C.3   401  665401      0.0001
      7  C7         8.5640   33.6690   58.3550 C.2   401  665401      0.2261
      8  C8         9.5830   34.1380   59.2030 C.3   401  665401      0.0961
      9  C9         9.1150   34.3540   60.5390 C.3   401  665401      0.1074
     10  C10        7.5810   33.9810   60.5610 C.3   401  665401      0.1029
     11  N11        7.3350   33.5400   58.9960 N.am  401  665401     -0.2806
     12  C12        9.7270   33.4530   61.5390 C.2   401  665401      0.2473
     13  N13       10.9850   34.0740   62.0520 N.am  401  665401     -0.1791
     14  O14        9.2590   32.3990   61.8130 O.2   401  665401     -0.2729
     15  O15        8.8200   33.4300   57.1690 O.2   401  665401     -0.2749
     16 BR1        12.7930   29.6530   64.1410 Br    401  665401     -0.0490
     17  C17       11.9490   31.8060   62.7390 C.ar  401  665401      0.0233
     18  C18       13.0250   31.3890   63.5000 C.ar  401  665401      0.0359
     19  C19       14.1640   32.2170   63.7490 C.ar  401  665401      0.0068
     20  C20       14.1870   33.5570   63.1830 C.ar  401  665401      0.0018
     21  C21       13.0550   33.9950   62.3870 C.ar  401  665401      0.0166
     22  C22       11.9060   33.0810   62.1550 C.ar  401  665401      0.0739
@<TRIPOS>BOND
     1    15     7    2
     2     7    11   am
     3     7     8    1
     4     1     6    1
     5     1     2    1
     6     3     2    1
     7     3    11    1
     8     3     4    1
     9     5     6    1
    10     5     4    1
    11    11    10    1
    12     8     9    1
    13     9    10    1
    14     9    12    1
    15    12    14    2
    16    12    13   am
    17    13    22    1
    18    22    21   ar
    19    22    17   ar
    20    21    20   ar
    21    17    18   ar
    22    20    19   ar
    23    18    19   ar
    24    18    16    1
