@<TRIPOS>MOLECULE
2h7m_641_A_1.pdb
 23 25 0 0 0
SMALL
GASTEIGER

@<TRIPOS>ATOM
      1  C1         4.4120   31.1940   58.6100 C.3   501  641501      0.0017
      2  C2         5.3060   32.3810   58.9270 C.3   501  641501      0.0198
      3  C3         6.8670   32.2150   58.6840 C.3   501  641501      0.0753
      4  C4         7.4530   30.9460   59.3080 C.3   501  641501      0.0198
      5  C5         6.6790   29.7380   58.6230 C.3   501  641501      0.0017
      6  C6         5.0800   29.7800   58.7870 C.3   501  641501      0.0001
      7  C7         8.6060   33.8010   58.4930 C.2   501  641501      0.2261
      8  C8         9.6270   34.2050   59.3570 C.3   501  641501      0.0961
      9  C9         9.1800   34.3370   60.7040 C.3   501  641501      0.1074
     10  C10        7.6400   33.9780   60.7160 C.3   501  641501      0.1029
     11  N11        7.3700   33.6280   59.1310 N.am  501  641501     -0.2806
     12  C12        9.7990   33.3500   61.6090 C.2   501  641501      0.2473
     13  N13       11.0920   33.9120   62.1760 N.am  501  641501     -0.1791
     14  O14        9.3090   32.2760   61.8080 O.2   501  641501     -0.2729
     15  O15        8.8710   33.6450   57.2990 O.2   501  641501     -0.2749
     16  C15       11.8440   33.4640   62.5360 C.ar  501  641501      0.0750
     17  C20       13.0400   34.2460   62.5820 C.ar  501  641501      0.0280
     18  C19       14.2700   33.6480   63.1220 C.ar  501  641501      0.0598
     19 CL2        15.7300   34.5850   63.1860 Cl    501  641501     -0.0822
     20  C18       14.2640   32.2560   63.6080 C.ar  501  641501      0.0229
     21  C17       13.0240   31.5040   63.5390 C.ar  501  641501      0.0598
     22  C16       11.8660   32.1140   63.0160 C.ar  501  641501      0.0280
     23 CL1        12.8760   29.8620   64.0740 Cl    501  641501     -0.0822
@<TRIPOS>BOND
     1    15     7    2
     2     7    11   am
     3     7     8    1
     4     1     6    1
     5     1     2    1
     6     5     6    1
     7     5     4    1
     8     3     2    1
     9     3    11    1
    10     3     4    1
    11    11    10    1
    12     8     9    1
    13     9    10    1
    14     9    12    1
    15    12    14    2
    16    12    13   am
    17    13    16    1
    18    16    17   ar
    19    16    22   ar
    20    17    18   ar
    21    22    21   ar
    22    18    19    1
    23    18    20   ar
    24    21    20   ar
    25    21    23    1
