@<TRIPOS>MOLECULE
2h7m_NAD_A_1.pdb
 44 48 0 0 0
SMALL
GASTEIGER

@<TRIPOS>ATOM
      1  PA         0.6280   33.4430   58.9480 P.3   500  NAD500      0.2189
      2  O1A       -0.2930   34.4800   59.4340 O.2   500  NAD500     -0.5170
      3  O2A        0.6820   32.1140   59.6720 O.3   500  NAD500     -0.4371
      4  O5B        0.3190   33.2460   57.3980 O.3   500  NAD500     -0.3112
      5  C5B        0.9770   32.2380   56.6670 C.3   500  NAD500      0.1813
      6  C4B       -0.1500   31.6370   55.7240 C.3   500  NAD500      0.1821
      7  O4B        0.3630   30.5130   55.0140 O.3   500  NAD500     -0.3135
      8  C3B       -1.3740   31.1510   56.5270 C.3   500  NAD500      0.2184
      9  O3B       -2.5410   31.8960   56.2190 O.3   500  NAD500     -0.2174
     10  C2B       -1.4520   29.6960   56.1640 C.3   500  NAD500      0.2570
     11  O2B       -2.7460   29.1180   56.1720 O.3   500  NAD500     -0.2130
     12  C1B       -0.7980   29.7390   54.8160 C.3   500  NAD500      0.3186
     13  N9A       -0.5260   28.3980   54.2190 N.pl3 500  NAD500     -0.1439
     14  C8A        0.2300   27.3660   54.7170 C.3   500  NAD500      0.3377
     15  N7A        0.1620   26.3350   53.8630 N.2   500  NAD500     -0.2095
     16  C5A       -0.6230   26.6820   52.8240 C.2   500  NAD500      0.2526
     17  C6A       -1.0580   26.0220   51.6620 C.2   500  NAD500      0.4393
     18  N6A       -0.6960   24.7700   51.4010 N.pl3 500  NAD500      0.2180
     19  N1A       -1.8900   26.6930   50.7710 N.2   500  NAD500      0.0021
     20  C2A       -2.2910   28.0030   51.0270 C.3   500  NAD500      0.5254
     21  N3A       -1.8730   28.6570   52.1740 N.2   500  NAD500     -0.0055
     22  C4A       -1.0540   27.9950   53.0450 C.2   500  NAD500      0.3518
     23  O3         2.1330   34.0210   58.9160 O.3   500  NAD500     -0.2703
     24  PN         2.6380   35.5290   58.6850 P.3   500  NAD500      0.2189
     25  O1N        1.5160   36.4780   58.5760 O.2   500  NAD500     -0.5170
     26  O2N        3.6450   35.7760   59.7430 O.3   500  NAD500     -0.4371
     27  O5D        3.4550   35.5400   57.3300 O.3   500  NAD500     -0.3112
     28  C5D        2.8670   35.3750   56.0790 C.3   500  NAD500      0.1813
     29  C4D        3.9670   35.5640   55.0420 C.3   500  NAD500      0.1799
     30  O4D        4.8230   36.6570   55.4640 O.3   500  NAD500     -0.3327
     31  C3D        4.8990   34.3750   54.8570 C.3   500  NAD500      0.2158
     32  O3D        5.2990   34.2990   53.4940 O.3   500  NAD500     -0.2175
     33  C2D        6.0450   34.6920   55.7600 C.3   500  NAD500      0.2309
     34  O2D        7.1810   33.9210   55.4630 O.3   500  NAD500     -0.2158
     35  C1D        6.1610   36.1910   55.5080 C.3   500  NAD500      0.2263
     36  N1N        6.9680   36.9600   56.5040 N.pl3 500  NAD500     -0.2787
     37  C2N        6.6250   36.9030   57.8580 C.3   500  NAD500      0.1244
     38  C3N        7.4060   37.6020   58.7960 C.2   500  NAD500      0.0544
     39  C7N        7.0640   37.5450   60.2510 C.2   500  NAD500      0.2818
     40  O7N        7.8840   38.2160   61.1010 O.2   500  NAD500     -0.2670
     41  N7N        6.0330   36.8860   60.7510 N.am  500  NAD500     -0.0839
     42  C4N        8.5270   38.3560   58.3400 C.2   500  NAD500      0.0033
     43  C5N        8.8410   38.4080   56.9660 C.2   500  NAD500      0.0157
     44  C6N        8.0520   37.6990   56.0600 C.2   500  NAD500      0.0633
@<TRIPOS>BOND
     1    19    20    1
     2    19    17    2
     3    20    21    1
     4    18    17    1
     5    17    16    1
     6    21    22    2
     7    16    22    1
     8    16    15    2
     9    22    13    1
    10    32    31    1
    11    15    14    1
    12    13    14    1
    13    13    12    1
    14    12     7    1
    15    12    10    1
    16    31    29    1
    17    31    33    1
    18     7     6    1
    19    29    30    1
    20    29    28    1
    21    34    33    1
    22    30    35    1
    23    35    33    1
    24    35    36    1
    25     6     8    1
    26     6     5    1
    27    44    36    1
    28    44    43    2
    29    28    27    1
    30    10    11    1
    31    10     8    1
    32     9     8    1
    33    36    37    1
    34     5     4    1
    35    43    42    1
    36    27    24    1
    37     4     1    1
    38    37    38    1
    39    42    38    2
    40    25    24    2
    41    24    23    1
    42    24    26    1
    43    38    39    1
    44    23     1    1
    45     1     2    2
    46     1     3    1
    47    39    41   am
    48    39    40    2
