@<TRIPOS>MOLECULE
2h7n_NAD_A_1.pdb
 44 48 0 0 0
SMALL
GASTEIGER

@<TRIPOS>ATOM
      1  PA        48.0470   51.0190   58.7920 P.3   500  NAD500      0.2189
      2  O1A       48.9590   49.9900   59.3210 O.2   500  NAD500     -0.5170
      3  O2A       47.9580   52.3410   59.5300 O.3   500  NAD500     -0.4371
      4  O5B       48.4160   51.2230   57.2550 O.3   500  NAD500     -0.3112
      5  C5B       47.7710   52.2220   56.5070 C.3   500  NAD500      0.1813
      6  C4B       48.9110   52.7900   55.5490 C.3   500  NAD500      0.1821
      7  O4B       48.3990   53.9030   54.8360 O.3   500  NAD500     -0.3135
      8  C3B       50.1410   53.2760   56.3490 C.3   500  NAD500      0.2184
      9  O3B       51.3030   52.5300   56.0300 O.3   500  NAD500     -0.2174
     10  C2B       50.2180   54.7310   55.9890 C.3   500  NAD500      0.2570
     11  O2B       51.5170   55.3010   55.9900 O.3   500  NAD500     -0.2130
     12  C1B       49.5590   54.6830   54.6450 C.3   500  NAD500      0.3186
     13  N9A       49.2760   55.9960   54.0570 N.pl3 500  NAD500     -0.1439
     14  C8A       48.5040   57.0160   54.5550 C.3   500  NAD500      0.3377
     15  N7A       48.5530   58.0530   53.7040 N.2   500  NAD500     -0.2095
     16  C5A       49.3470   57.7160   52.6680 C.2   500  NAD500      0.2526
     17  C6A       49.7740   58.3700   51.5030 C.2   500  NAD500      0.4393
     18  N6A       49.3920   59.6120   51.2410 N.pl3 500  NAD500      0.2180
     19  N1A       50.6190   57.7100   50.6150 N.2   500  NAD500      0.0021
     20  C2A       51.0400   56.4090   50.8730 C.3   500  NAD500      0.5254
     21  N3A       50.6310   55.7530   52.0210 N.2   500  NAD500     -0.0055
     22  C4A       49.8010   56.4070   52.8900 C.2   500  NAD500      0.3518
     23  O3        46.5530   50.4220   58.6940 O.3   500  NAD500     -0.2703
     24  PN        46.0980   48.9000   58.4430 P.3   500  NAD500      0.2189
     25  O1N       47.2590   47.9960   58.2990 O.2   500  NAD500     -0.5170
     26  O2N       45.1130   48.5970   59.5040 O.3   500  NAD500     -0.4371
     27  O5D       45.2670   48.8730   57.1080 O.3   500  NAD500     -0.3112
     28  C5D       45.8330   49.0770   55.8580 C.3   500  NAD500      0.1813
     29  C4D       44.7230   48.8670   54.8380 C.3   500  NAD500      0.1799
     30  O4D       43.8910   47.7620   55.2780 O.3   500  NAD500     -0.3327
     31  C3D       43.7730   50.0430   54.6670 C.3   500  NAD500      0.2158
     32  O3D       43.3650   50.1300   53.3090 O.3   500  NAD500     -0.2175
     33  C2D       42.6410   49.7040   55.5890 C.3   500  NAD500      0.2309
     34  O2D       41.4840   50.4560   55.3200 O.3   500  NAD500     -0.2158
     35  C1D       42.5470   48.2020   55.3440 C.3   500  NAD500      0.2263
     36  N1N       41.7690   47.4130   56.3610 N.pl3 500  NAD500     -0.2787
     37  C2N       42.1000   47.5270   57.7100 C.3   500  NAD500      0.1244
     38  C3N       41.3510   46.8140   58.6640 C.2   500  NAD500      0.0544
     39  C7N       41.6860   46.9350   60.1130 C.2   500  NAD500      0.2818
     40  O7N       40.9050   46.2480   60.9880 O.2   500  NAD500     -0.2670
     41  N7N       42.6780   47.6690   60.5870 N.am  500  NAD500     -0.0839
     42  C4N       40.2730   45.9890   58.2260 C.2   500  NAD500      0.0033
     43  C5N       39.9670   45.8840   56.8550 C.2   500  NAD500      0.0157
     44  C6N       40.7250   46.6080   55.9340 C.2   500  NAD500      0.0633
@<TRIPOS>BOND
     1    19    20    1
     2    19    17    2
     3    20    21    1
     4    18    17    1
     5    17    16    1
     6    21    22    2
     7    16    22    1
     8    16    15    2
     9    22    13    1
    10    32    31    1
    11    15    14    1
    12    13    14    1
    13    13    12    1
    14    12     7    1
    15    12    10    1
    16    31    29    1
    17    31    33    1
    18     7     6    1
    19    29    30    1
    20    29    28    1
    21    30    35    1
    22    34    33    1
    23    35    33    1
    24    35    36    1
    25     6     8    1
    26     6     5    1
    27    28    27    1
    28    44    36    1
    29    44    43    2
    30    10    11    1
    31    10     8    1
    32     9     8    1
    33    36    37    1
    34     5     4    1
    35    43    42    1
    36    27    24    1
    37     4     1    1
    38    37    38    1
    39    42    38    2
    40    25    24    2
    41    24    23    1
    42    24    26    1
    43    38    39    1
    44    23     1    1
    45     1     2    2
    46     1     3    1
    47    39    41   am
    48    39    40    2
