@<TRIPOS>MOLECULE
2h7n_744_A_1.pdb
 23 25 0 0 0
SMALL
GASTEIGER

@<TRIPOS>ATOM
      1  C1        44.2660   53.3180   58.1860 C.3   501  744501      0.0017
      2  C2        43.3510   52.1530   58.5230 C.3   501  744501      0.0198
      3  C3        41.7890   52.3370   58.3140 C.3   501  744501      0.0753
      4  C4        41.2500   53.6150   58.9660 C.3   501  744501      0.0198
      5  C5        42.0100   54.8150   58.2430 C.3   501  744501      0.0017
      6  C6        43.6240   54.7530   58.3020 C.3   501  744501      0.0001
      7  C7        40.0350   50.7410   58.1780 C.2   501  744501      0.2261
      8  C8        39.0370   50.3400   59.0660 C.3   501  744501      0.0961
      9  C9        39.4890   50.2170   60.4010 C.3   501  744501      0.1074
     10  C10       41.0490   50.5720   60.3760 C.3   501  744501      0.1029
     11  N11       41.2880   50.9170   58.7820 N.am  501  744501     -0.2806
     12  C12       38.8630   51.2600   61.2420 C.2   501  744501      0.2472
     13  N13       37.6390   50.7230   61.9350 N.am  501  744501     -0.1795
     14  O14       39.2990   52.3800   61.2630 O.2   501  744501     -0.2729
     15  O15       39.7320   50.8910   56.9900 O.2   501  744501     -0.2749
     16  C15       36.7510   51.1100   62.3660 C.ar  501  744501      0.0702
     17  C20       35.4580   50.4790   62.4000 C.ar  501  744501     -0.0065
     18  C23       35.2450   49.1210   61.7880 C.3   501  744501      0.0324
     19  C19       34.3380   51.1610   63.0350 C.ar  501  744501     -0.0021
     20  C18       34.5220   52.4790   63.6340 C.ar  501  744501      0.0112
     21  C17       35.8170   53.1120   63.6060 C.ar  501  744501      0.0589
     22 CL1        36.0880   54.6980   64.3250 Cl    501  744501     -0.0822
     23  C16       36.9040   52.4370   62.9840 C.ar  501  744501      0.0277
@<TRIPOS>BOND
     1    15     7    2
     2     7    11   am
     3     7     8    1
     4     1     6    1
     5     1     2    1
     6     5     6    1
     7     5     4    1
     8     3     2    1
     9     3    11    1
    10     3     4    1
    11    11    10    1
    12     8     9    1
    13    10     9    1
    14     9    12    1
    15    12    14    2
    16    12    13   am
    17    18    17    1
    18    13    16    1
    19    16    17   ar
    20    16    23   ar
    21    17    19   ar
    22    23    21   ar
    23    19    20   ar
    24    21    20   ar
    25    21    22    1
