@<TRIPOS>MOLECULE
2h7p_NAD_A_1.pdb
 44 48 0 0 0
SMALL
GASTEIGER

@<TRIPOS>ATOM
      1  PA        48.3110   51.3420   59.0420 P.3   500  NAD500      0.2189
      2  O1A       49.2030   50.2990   59.5650 O.2   500  NAD500     -0.5170
      3  O2A       48.2490   52.6640   59.7700 O.3   500  NAD500     -0.4371
      4  O5B       48.6760   51.5390   57.4940 O.3   500  NAD500     -0.3112
      5  C5B       48.0460   52.5610   56.7600 C.3   500  NAD500      0.1813
      6  C4B       49.1910   53.1550   55.8250 C.3   500  NAD500      0.1821
      7  O4B       48.6860   54.2840   55.1190 O.3   500  NAD500     -0.3135
      8  C3B       50.4200   53.6350   56.6210 C.3   500  NAD500      0.2184
      9  O3B       51.5910   52.8910   56.2780 O.3   500  NAD500     -0.2174
     10  C2B       50.5070   55.0900   56.2590 C.3   500  NAD500      0.2570
     11  O2B       51.7890   55.6520   56.2650 O.3   500  NAD500     -0.2130
     12  C1B       49.8430   55.0490   54.9140 C.3   500  NAD500      0.3186
     13  N9A       49.5650   56.3670   54.3210 N.pl3 500  NAD500     -0.1439
     14  C8A       48.8100   57.4020   54.8100 C.3   500  NAD500      0.3377
     15  N7A       48.8650   58.4340   53.9440 N.2   500  NAD500     -0.2095
     16  C5A       49.6490   58.0760   52.9060 C.2   500  NAD500      0.2526
     17  C6A       50.0790   58.7130   51.7390 C.2   500  NAD500      0.4393
     18  N6A       49.7100   59.9550   51.4660 N.pl3 500  NAD500      0.2180
     19  N1A       50.9160   58.0310   50.8520 N.2   500  NAD500      0.0021
     20  C2A       51.3220   56.7250   51.1150 C.3   500  NAD500      0.5254
     21  N3A       50.9040   56.0920   52.2690 N.2   500  NAD500     -0.0055
     22  C4A       50.0870   56.7630   53.1360 C.2   500  NAD500      0.3518
     23  O3        46.8050   50.7590   58.9760 O.3   500  NAD500     -0.2703
     24  PN        46.3440   49.2270   58.7870 P.3   500  NAD500      0.2189
     25  O1N       47.5090   48.3240   58.6640 O.2   500  NAD500     -0.5170
     26  O2N       45.3750   48.9500   59.8720 O.3   500  NAD500     -0.4371
     27  O5D       45.5060   49.1750   57.4520 O.3   500  NAD500     -0.3112
     28  C5D       46.0720   49.3570   56.1910 C.3   500  NAD500      0.1813
     29  C4D       44.9710   49.1430   55.1540 C.3   500  NAD500      0.1799
     30  O4D       44.1250   48.0460   55.5790 O.3   500  NAD500     -0.3327
     31  C3D       44.0320   50.3270   54.9600 C.3   500  NAD500      0.2158
     32  O3D       43.6610   50.4080   53.5890 O.3   500  NAD500     -0.2175
     33  C2D       42.8730   50.0010   55.8570 C.3   500  NAD500      0.2309
     34  O2D       41.7220   50.7590   55.5520 O.3   500  NAD500     -0.2158
     35  C1D       42.7820   48.4880   55.6270 C.3   500  NAD500      0.2263
     36  N1N       42.0040   47.6980   56.6430 N.pl3 500  NAD500     -0.2787
     37  C2N       42.3470   47.7960   57.9940 C.3   500  NAD500      0.1244
     38  C3N       41.6050   47.0770   58.9490 C.2   500  NAD500      0.0544
     39  C7N       41.9550   47.1800   60.4030 C.2   500  NAD500      0.2818
     40  O7N       41.1790   46.4810   61.2770 O.2   500  NAD500     -0.2670
     41  N7N       42.9540   47.9060   60.8790 N.am  500  NAD500     -0.0839
     42  C4N       40.5210   46.2630   58.5140 C.2   500  NAD500      0.0033
     43  C5N       40.1980   46.1730   57.1420 C.2   500  NAD500      0.0157
     44  C6N       40.9490   46.9000   56.2190 C.2   500  NAD500      0.0633
@<TRIPOS>BOND
     1    19    20    1
     2    19    17    2
     3    20    21    1
     4    18    17    1
     5    17    16    1
     6    21    22    2
     7    16    22    1
     8    16    15    2
     9    22    13    1
    10    32    31    1
    11    15    14    1
    12    13    14    1
    13    13    12    1
    14    12     7    1
    15    12    10    1
    16    31    29    1
    17    31    33    1
    18     7     6    1
    19    29    30    1
    20    29    28    1
    21    34    33    1
    22    30    35    1
    23    35    33    1
    24    35    36    1
    25     6     8    1
    26     6     5    1
    27    28    27    1
    28    44    36    1
    29    44    43    2
    30    10    11    1
    31    10     8    1
    32     9     8    1
    33    36    37    1
    34     5     4    1
    35    43    42    1
    36    27    24    1
    37     4     1    1
    38    37    38    1
    39    42    38    2
    40    25    24    2
    41    24    23    1
    42    24    26    1
    43    38    39    1
    44    23     1    1
    45     1     2    2
    46     1     3    1
    47    39    41   am
    48    39    40    2
