@<TRIPOS>MOLECULE
2h7p_468_A_1.pdb
 23 25 0 0 0
SMALL
GASTEIGER

@<TRIPOS>ATOM
      1  C1        44.5680   53.5240   58.7020 C.3   501  468501      0.0017
      2  C2        43.6170   52.3640   59.0080 C.3   501  468501      0.0198
      3  C3        42.0550   52.5660   58.7520 C.3   501  468501      0.0753
      4  C4        41.5320   53.8470   59.4110 C.3   501  468501      0.0198
      5  C5        42.3210   55.0490   58.7100 C.3   501  468501      0.0017
      6  C6        43.9390   54.9730   58.7890 C.3   501  468501      0.0001
      7  C7        40.2950   50.9190   58.5750 C.2   501  468501      0.2261
      8  C8        39.2980   50.4780   59.4560 C.3   501  468501      0.0961
      9  C9        39.7380   50.3890   60.8070 C.3   501  468501      0.1074
     10  C10       41.2780   50.8040   60.8030 C.3   501  468501      0.1029
     11  N11       41.5350   51.1480   59.2060 N.am  501  468501     -0.2806
     12  C12       39.0400   51.4430   61.5890 C.2   501  468501      0.2472
     13  N13       38.0180   50.8250   62.4830 N.am  501  468501     -0.1795
     14  O14       39.2690   52.5920   61.3930 O.2   501  468501     -0.2729
     15  O15       40.0080   51.0560   57.3830 O.2   501  468501     -0.2749
     16  C15       37.2360   51.4270   62.9640 C.ar  501  468501      0.0702
     17  C20       37.2890   52.7310   63.5630 C.ar  501  468501      0.0163
     18  C19       36.0570   53.3800   64.1820 C.ar  501  468501      0.0022
     19  C18       34.7730   52.6950   64.1920 C.ar  501  468501      0.0112
     20  C17       34.6390   51.3920   63.6210 C.ar  501  468501      0.0549
     21  C16       35.9270   50.6900   62.9570 C.ar  501  468501      0.0041
     22  C23       35.7830   49.3140   62.3470 C.3   501  468501      0.0333
     23 CL1        33.0360   50.6430   63.6860 Cl    501  468501     -0.0825
@<TRIPOS>BOND
     1    15     7    2
     2     7    11   am
     3     7     8    1
     4     1     6    1
     5     1     2    1
     6     5     6    1
     7     5     4    1
     8     3     2    1
     9     3    11    1
    10     3     4    1
    11    11    10    1
    12     8     9    1
    13    10     9    1
    14     9    12    1
    15    14    12    2
    16    12    13   am
    17    22    21    1
    18    13    16    1
    19    21    16   ar
    20    21    20   ar
    21    16    17   ar
    22    17    18   ar
    23    20    23    1
    24    20    19   ar
    25    18    19   ar
