@<TRIPOS>MOLECULE
2h7q_HEM_A_1.pdb
 43 50 0 0 0
SMALL
GASTEIGER

@<TRIPOS>ATOM
      1 FE          0.4270  -20.2920   73.8250 Fe    415  HEM415      0.0000
      2  CHA        0.1030  -18.9760   70.6800 C.2   415  HEM415      0.0000
      3  CHB        0.3530  -17.1100   75.1410 C.2   415  HEM415      0.0000
      4  CHC        0.6120  -21.5910   77.0170 C.2   415  HEM415      0.0000
      5  CHD        0.4540  -23.4590   72.5410 C.2   415  HEM415      0.0000
      6  NA         0.2680  -18.3870   73.0590 N.2   415  HEM415      0.0000
      7  C1A        0.1530  -18.0550   71.7190 C.2   415  HEM415      0.0000
      8  C2A        0.0910  -16.5990   71.5850 C.2   415  HEM415      0.0000
      9  C3A        0.1740  -16.0820   72.8500 C.2   415  HEM415      0.0000
     10  C4A        0.2750  -17.2100   73.7570 C.2   415  HEM415      0.0000
     11  CMA        0.1590  -14.6340   73.2730 C.3   415  HEM415      0.0000
     12  CAA       -0.0440  -15.8270   70.2920 C.3   415  HEM415      0.0000
     13  CBA        1.2730  -15.3200   69.7210 C.3   415  HEM415      0.0000
     14  CGA        1.1420  -14.5210   68.4250 C.2   415  HEM415      0.0000
     15  O1A        0.0330  -13.9690   68.1660 O.co2 415  HEM415      0.0000
     16  O2A        2.1460  -14.4410   67.6750 O.co2 415  HEM415      0.0000
     17  NB         0.4700  -19.4880   75.7350 N.ar  415  HEM415      0.0000
     18  C1B        0.4350  -18.1480   76.0580 C.ar  415  HEM415      0.0000
     19  C2B        0.4890  -17.9790   77.5000 C.ar  415  HEM415      0.0000
     20  C3B        0.5580  -19.2490   78.0290 C.ar  415  HEM415      0.0000
     21  C4B        0.5470  -20.1840   76.9140 C.ar  415  HEM415      0.0000
     22  CMB        0.4680  -16.6470   78.2090 C.3   415  HEM415      0.0000
     23  CAB        0.6330  -19.6870   79.4500 C.2   415  HEM415      0.0000
     24  CBB        0.1250  -19.1080   80.5360 C.2   415  HEM415      0.0000
     25  NC         0.5270  -22.2030   74.6490 N.2   415  HEM415      0.0000
     26  C1C        0.6060  -22.5190   75.9790 C.2   415  HEM415      0.0000
     27  C2C        0.6920  -23.9710   76.1320 C.2   415  HEM415      0.0000
     28  C3C        0.6590  -24.5060   74.8660 C.2   415  HEM415      0.0000
     29  C4C        0.5430  -23.3650   73.9340 C.2   415  HEM415      0.0000
     30  CMC        0.7920  -24.6740   77.4750 C.3   415  HEM415      0.0000
     31  CAC        0.7130  -25.9390   74.4530 C.2   415  HEM415      0.0000
     32  CBC        1.6240  -26.8540   74.8070 C.2   415  HEM415      0.0000
     33  ND         0.2920  -21.0670   71.9390 N.ar  415  HEM415      0.0000
     34  C1D        0.3260  -22.4140   71.6200 C.ar  415  HEM415      0.0000
     35  C2D        0.2170  -22.5820   70.1860 C.ar  415  HEM415      0.0000
     36  C3D        0.1130  -21.3110   69.6540 C.ar  415  HEM415      0.0000
     37  C4D        0.1660  -20.3710   70.7690 C.ar  415  HEM415      0.0000
     38  CMD        0.2190  -23.9040   69.4540 C.3   415  HEM415      0.0000
     39  CAD       -0.0210  -20.9440   68.1930 C.3   415  HEM415      0.0000
     40  CBD       -1.4750  -20.6490   67.7610 C.3   415  HEM415      0.0000
     41  CGD       -1.5230  -20.2610   66.2770 C.2   415  HEM415      0.0000
     42  O1D       -2.5870  -20.4440   65.6380 O.co2 415  HEM415      0.0000
     43  O2D       -0.4720  -19.7490   65.7700 O.co2 415  HEM415      0.0000
@<TRIPOS>BOND
     1    42    41   ar
     2    43    41   ar
     3    41    40    1
     4    16    14   ar
     5    40    39    1
     6    15    14   ar
     7    39    36    1
     8    14    13    1
     9    38    35    1
    10    36    35   ar
    11    36    37   ar
    12    13    12    1
    13    35    34   ar
    14    12     8    1
    15     2    37    2
    16     2     7    1
    17    37    33   ar
    18     8     7    1
    19     8     9    2
    20    34    33   ar
    21    34     5    2
    22     7     6    2
    23    33     1    1
    24     5    29    1
    25     9    11    1
    26     9    10    1
    27     6    10    1
    28     6     1    1
    29    10     3    2
    30     1    25    1
    31     1    17    1
    32    29    25    2
    33    29    28    1
    34    31    32    2
    35    31    28    1
    36    25    26    1
    37    28    27    2
    38     3    18    1
    39    17    18   ar
    40    17    21   ar
    41    26    27    1
    42    26     4    2
    43    18    19   ar
    44    27    30    1
    45    21     4    1
    46    21    20   ar
    47    19    20   ar
    48    19    22    1
    49    20    23    1
    50    23    24    2
