@<TRIPOS>MOLECULE
2h7r_HEM_A_1.pdb
 43 50 0 0 0
SMALL
GASTEIGER

@<TRIPOS>ATOM
      1 FE        -38.6450  -22.1940   64.9250 Fe    415  HEM415      0.0000
      2  CHA      -36.7220  -21.6200   62.1330 C.2   415  HEM415      0.0000
      3  CHB      -35.9340  -21.3020   66.9140 C.2   415  HEM415      0.0000
      4  CHC      -40.5180  -22.6850   67.7600 C.2   415  HEM415      0.0000
      5  CHD      -41.2770  -23.0780   62.9940 C.2   415  HEM415      0.0000
      6  NA       -36.6940  -21.5800   64.5910 N.2   415  HEM415      0.0000
      7  C1A      -36.0960  -21.4140   63.3470 C.2   415  HEM415      0.0000
      8  C2A      -34.6900  -20.9940   63.5360 C.2   415  HEM415      0.0000
      9  C3A      -34.4780  -20.9190   64.8750 C.2   415  HEM415      0.0000
     10  C4A      -35.7370  -21.2760   65.5300 C.2   415  HEM415      0.0000
     11  CMA      -33.2030  -20.5360   65.5770 C.3   415  HEM415      0.0000
     12  CAA      -33.6870  -20.6980   62.4470 C.3   415  HEM415      0.0000
     13  CBA      -33.1670  -21.9180   61.7400 C.3   415  HEM415      0.0000
     14  CGA      -32.1460  -21.6540   60.6430 C.2   415  HEM415      0.0000
     15  O1A      -31.8310  -20.4740   60.3750 O.co2 415  HEM415      0.0000
     16  O2A      -31.6580  -22.6470   60.0490 O.co2 415  HEM415      0.0000
     17  NB       -38.2850  -22.0110   66.9650 N.ar  415  HEM415      0.0000
     18  C1B      -37.0990  -21.6340   67.5800 C.ar  415  HEM415      0.0000
     19  C2B      -37.2610  -21.6480   69.0290 C.ar  415  HEM415      0.0000
     20  C3B      -38.5570  -22.0400   69.2630 C.ar  415  HEM415      0.0000
     21  C4B      -39.1870  -22.2590   67.9620 C.ar  415  HEM415      0.0000
     22  CMB      -36.1900  -21.2970   70.0340 C.3   415  HEM415      0.0000
     23  CAB      -39.2770  -22.2350   70.5480 C.2   415  HEM415      0.0000
     24  CBB      -39.3730  -21.4150   71.5780 C.2   415  HEM415      0.0000
     25  NC       -40.5810  -22.7900   65.3280 N.2   415  HEM415      0.0000
     26  C1C      -41.1610  -22.9280   66.5510 C.2   415  HEM415      0.0000
     27  C2C      -42.5370  -23.3750   66.3890 C.2   415  HEM415      0.0000
     28  C3C      -42.7540  -23.4950   65.0420 C.2   415  HEM415      0.0000
     29  C4C      -41.5000  -23.1150   64.3790 C.2   415  HEM415      0.0000
     30  CMC      -43.5000  -23.6340   67.5270 C.3   415  HEM415      0.0000
     31  CAC      -43.9910  -23.9100   64.3330 C.2   415  HEM415      0.0000
     32  CBC      -44.4830  -25.1390   64.2270 C.2   415  HEM415      0.0000
     33  ND       -38.9370  -22.3150   62.9080 N.ar  415  HEM415      0.0000
     34  C1D      -40.1090  -22.7080   62.3070 C.ar  415  HEM415      0.0000
     35  C2D      -39.9480  -22.6770   60.8750 C.ar  415  HEM415      0.0000
     36  C3D      -38.6570  -22.2530   60.6390 C.ar  415  HEM415      0.0000
     37  C4D      -38.0370  -22.0390   61.9190 C.ar  415  HEM415      0.0000
     38  CMD      -41.0060  -23.0380   59.8680 C.3   415  HEM415      0.0000
     39  CAD      -38.0170  -22.0520   59.2980 C.3   415  HEM415      0.0000
     40  CBD      -38.1770  -20.5910   58.7850 C.3   415  HEM415      0.0000
     41  CGD      -37.5160  -20.4180   57.4060 C.2   415  HEM415      0.0000
     42  O1D      -37.8640  -19.4260   56.6840 O.co2 415  HEM415      0.0000
     43  O2D      -36.6470  -21.2810   57.0590 O.co2 415  HEM415      0.0000
@<TRIPOS>BOND
     1    42    41   ar
     2    43    41   ar
     3    41    40    1
     4    40    39    1
     5    39    36    1
     6    38    35    1
     7    16    14   ar
     8    15    14   ar
     9    36    35   ar
    10    36    37   ar
    11    14    13    1
    12    35    34   ar
    13    13    12    1
    14    37     2    2
    15    37    33   ar
    16     2     7    1
    17    34    33   ar
    18    34     5    2
    19    12     8    1
    20    33     1    1
    21     5    29    1
    22     7     8    1
    23     7     6    2
    24     8     9    2
    25    32    31    2
    26    31    28    1
    27    29    28    1
    28    29    25    2
    29     6     1    1
    30     6    10    1
    31     9    10    1
    32     9    11    1
    33     1    25    1
    34     1    17    1
    35    28    27    2
    36    25    26    1
    37    10     3    2
    38    27    26    1
    39    27    30    1
    40    26     4    2
    41     3    18    1
    42    17    18   ar
    43    17    21   ar
    44    18    19   ar
    45     4    21    1
    46    21    20   ar
    47    19    20   ar
    48    19    22    1
    49    20    23    1
    50    23    24    2
