@<TRIPOS>MOLECULE
2h7s_HEM_A_1.pdb
 43 50 0 0 0
SMALL
GASTEIGER

@<TRIPOS>ATOM
      1 FE          7.9950   -2.4800    6.9990 Fe    415  HEM415      0.0000
      2  CHA        4.7540   -3.1060    7.9100 C.2   415  HEM415      0.0000
      3  CHB        9.2200   -3.2250   10.1380 C.2   415  HEM415      0.0000
      4  CHC       11.3210   -1.8910    5.8310 C.2   415  HEM415      0.0000
      5  CHD        6.8210   -1.5340    3.9420 C.2   415  HEM415      0.0000
      6  NA         7.1130   -2.9640    8.6970 N.2   415  HEM415      0.0000
      7  C1A        5.7160   -3.1520    8.8800 C.2   415  HEM415      0.0000
      8  C2A        5.6020   -3.6270   10.2850 C.2   415  HEM415      0.0000
      9  C3A        6.8330   -3.5530   10.8660 C.2   415  HEM415      0.0000
     10  C4A        7.8060   -3.2490    9.8870 C.2   415  HEM415      0.0000
     11  CMA        7.3430   -3.8130   12.2230 C.3   415  HEM415      0.0000
     12  CAA        4.1610   -3.8630   10.9810 C.3   415  HEM415      0.0000
     13  CBA        4.0140   -3.2360   12.3820 C.3   415  HEM415      0.0000
     14  CGA        2.5720   -3.0010   12.7240 C.2   415  HEM415      0.0000
     15  O1A        2.1390   -3.9890   12.9100 O.co2 415  HEM415      0.0000
     16  O2A        1.8190   -1.9430   12.7000 O.co2 415  HEM415      0.0000
     17  NB         9.7740   -2.4860    7.7470 N.ar  415  HEM415      0.0000
     18  C1B       10.0350   -2.8310    9.0440 C.ar  415  HEM415      0.0000
     19  C2B       11.4260   -2.8970    9.2270 C.ar  415  HEM415      0.0000
     20  C3B       12.0080   -2.5500    8.1360 C.ar  415  HEM415      0.0000
     21  C4B       10.9720   -2.2370    7.0920 C.ar  415  HEM415      0.0000
     22  CMB       12.2190   -3.3070   10.3990 C.3   415  HEM415      0.0000
     23  CAB       13.4870   -2.3630    8.1200 C.2   415  HEM415      0.0000
     24  CBB       14.4870   -3.2150    8.0760 C.2   415  HEM415      0.0000
     25  NC         8.9140   -1.8670    5.2220 N.2   415  HEM415      0.0000
     26  C1C       10.2840   -1.7590    4.8870 C.2   415  HEM415      0.0000
     27  C2C       10.3650   -1.4970    3.3830 C.2   415  HEM415      0.0000
     28  C3C        9.0640   -1.3610    2.9880 C.2   415  HEM415      0.0000
     29  C4C        8.2170   -1.5250    4.1670 C.2   415  HEM415      0.0000
     30  CMC       11.7290   -1.2840    2.6490 C.3   415  HEM415      0.0000
     31  CAC        8.2120   -1.1870    1.6270 C.2   415  HEM415      0.0000
     32  CBC        8.8780   -1.1260    0.4500 C.2   415  HEM415      0.0000
     33  ND         6.1040   -2.3520    6.0360 N.ar  415  HEM415      0.0000
     34  C1D        5.8700   -1.9910    4.7390 C.ar  415  HEM415      0.0000
     35  C2D        4.4600   -2.0130    4.4460 C.ar  415  HEM415      0.0000
     36  C3D        3.7530   -2.4840    5.6730 C.ar  415  HEM415      0.0000
     37  C4D        4.8530   -2.6250    6.5900 C.ar  415  HEM415      0.0000
     38  CMD        3.6570   -1.6870    3.1150 C.3   415  HEM415      0.0000
     39  CAD        2.1640   -2.7460    5.8060 C.3   415  HEM415      0.0000
     40  CBD        1.7990   -4.2170    5.2710 C.3   415  HEM415      0.0000
     41  CGD        0.4410   -4.7790    5.7930 C.2   415  HEM415      0.0000
     42  O1D        0.1460   -6.0200    5.8930 O.co2 415  HEM415      0.0000
     43  O2D       -0.4130   -4.0070    6.1490 O.co2 415  HEM415      0.0000
@<TRIPOS>BOND
     1    32    31    2
     2    31    28    1
     3    30    27    1
     4    28    27    2
     5    28    29    1
     6    38    35    1
     7    27    26    1
     8     5    29    1
     9     5    34    2
    10    29    25    2
    11    35    34   ar
    12    35    36   ar
    13    34    33   ar
    14    26    25    1
    15    26     4    2
    16    25     1    1
    17    40    41    1
    18    40    39    1
    19    36    39    1
    20    36    37   ar
    21    41    42   ar
    22    41    43   ar
    23     4    21    1
    24    33    37   ar
    25    33     1    1
    26    37     2    2
    27     1    17    1
    28     1     6    1
    29    21    17   ar
    30    21    20   ar
    31    17    18   ar
    32     2     7    1
    33    24    23    2
    34    23    20    1
    35    20    19   ar
    36     6     7    2
    37     6    10    1
    38     7     8    1
    39    18    19   ar
    40    18     3    1
    41    19    22    1
    42    10     3    2
    43    10     9    1
    44     8     9    2
    45     8    12    1
    46     9    11    1
    47    12    13    1
    48    13    14    1
    49    16    14   ar
    50    14    15   ar
