@<TRIPOS>MOLECULE
2h7v_GDP_A_1.pdb
 28 30 0 0 0
SMALL
GASTEIGER

@<TRIPOS>ATOM
      1  PB         5.4310  -16.0230  -43.4510 P.3   200  GDP200      0.5373
      2  O1B        4.7100  -16.6770  -44.5950 O.2   200  GDP200     -0.2221
      3  O2B        4.2860  -15.3660  -42.7540 O.3   200  GDP200     -0.1143
      4  O3B        6.1240  -16.9240  -42.4570 O.3   200  GDP200     -0.1143
      5  O3A        6.5010  -14.9530  -43.9670 O.3   200  GDP200     -0.2261
      6  PA         8.0300  -15.1810  -43.6080 P.3   200  GDP200      0.2231
      7  O1A        8.4670  -15.1670  -42.1560 O.3   200  GDP200     -0.4370
      8  O2A        8.3550  -16.4680  -44.2960 O.2   200  GDP200     -0.5169
      9  O5'        8.7210  -13.8930  -44.2500 O.3   200  GDP200     -0.3111
     10  C5'        8.0710  -13.2950  -45.3790 C.3   200  GDP200      0.1813
     11  C4'        8.9570  -12.2180  -45.9450 C.3   200  GDP200      0.1799
     12  O4'        8.9660  -11.1870  -44.9750 O.3   200  GDP200     -0.3326
     13  C3'       10.4030  -12.6300  -46.1070 C.3   200  GDP200      0.2158
     14  O3'       10.9340  -12.0200  -47.2770 O.3   200  GDP200     -0.2175
     15  C2'       11.0980  -12.0750  -44.8810 C.3   200  GDP200      0.2310
     16  O2'       12.4790  -11.7430  -45.0810 O.3   200  GDP200     -0.2158
     17  C1'       10.2800  -10.8460  -44.6000 C.3   200  GDP200      0.2293
     18  N9        10.3100  -10.5080  -43.1810 N.pl3 200  GDP200     -0.2354
     19  C8         9.8890  -11.2620  -42.1580 C.3   200  GDP200      0.2246
     20  N7        10.0620  -10.6030  -40.9720 N.2   200  GDP200     -0.2322
     21  C5        10.5930   -9.4090  -41.2530 C.2   200  GDP200      0.2182
     22  C6        11.0370   -8.2340  -40.4880 C.1   200  GDP200      0.2372
     23  O6        10.9650   -8.1740  -39.2470 O.2   200  GDP200     -0.2069
     24  N1        11.5330   -7.2190  -41.1840 N.2   200  GDP200     -0.2485
     25  C2        11.6350   -7.2510  -42.5280 C.1   200  GDP200      0.2531
     26  N2        12.1500   -6.1840  -43.1710 N.pl3 200  GDP200     -0.0226
     27  N3        11.2560   -8.2860  -43.2950 N.2   200  GDP200     -0.3074
     28  C4        10.7510   -9.3700  -42.7090 C.2   200  GDP200      0.2300
@<TRIPOS>BOND
     1    14    13    1
     2    13    11    1
     3    13    15    1
     4    11    10    1
     5    11    12    1
     6    10     9    1
     7    16    15    1
     8    12    17    1
     9    15    17    1
    10    17    18    1
    11     2     1    2
    12     8     6    2
    13     9     6    1
    14     5     6    1
    15     5     1    1
    16     6     7    1
    17     1     3    1
    18     1     4    1
    19    27    28    2
    20    27    25    2
    21    18    28    1
    22    18    19    1
    23    26    25    1
    24    28    21    1
    25    25    24    2
    26    19    20    1
    27    21    20    2
    28    21    22    1
    29    24    22    2
    30    22    23    2
