@<TRIPOS>MOLECULE
2h7x_PSX_A_1.pdb
 12 11 0 0 0
SMALL
GASTEIGER

@<TRIPOS>ATOM
      1  CAA       45.5740   51.1410   15.6970 C.3   548  PSX548      0.0027
      2  C6        45.1950   52.0370   14.5170 C.3   548  PSX548      0.0330
      3  C5        43.6760   52.0040   14.2680 C.3   548  PSX548      0.1544
      4  OC5       43.0260   51.4370   15.4260 O.3   548  PSX548     -0.2231
      5  C4        43.2180   51.2040   13.0120 C.3   548  PSX548      0.0614
      6  CAB       42.2000   51.9450   12.1240 C.3   548  PSX548      0.0052
      7  C3        44.3420   50.5330   12.1960 C.3   548  PSX548      0.1635
      8  OC3       44.8950   51.4850   11.2870 O.3   548  PSX548     -0.2225
      9  C2        43.6900   49.4530   11.3710 C.3   548  PSX548      0.1164
     10  P1        44.8420   48.3310   10.5400 P.3   548  PSX548      0.2578
     11  O2P       45.5970   47.7640   11.8730 O.3   548  PSX548     -0.1744
     12  O1P       44.1690   47.2570    9.7810 O.3   548  PSX548     -0.1744
@<TRIPOS>BOND
     1    12    10    1
     2    10     9    1
     3    10    11    1
     4     8     7    1
     5     9     7    1
     6     6     5    1
     7     7     5    1
     8     5     3    1
     9     3     2    1
    10     3     4    1
    11     2     1    1
