@<TRIPOS>MOLECULE
2h7y_PSK_A_1.pdb
 12 11 0 0 0
SMALL
GASTEIGER

@<TRIPOS>ATOM
      1  CAA       45.5550   51.8200   15.2860 C.3   548  PSK548      0.0027
      2  CAJ       44.8510   50.9080   14.2810 C.3   548  PSK548      0.0333
      3  CAQ       43.4280   51.3940   13.9950 C.3   548  PSK548      0.1588
      4  OAG       42.6250   51.0550   15.1440 O.3   548  PSK548     -0.2227
      5  CAP       42.8040   50.7300   12.7460 C.3   548  PSK548      0.0885
      6  CAB       41.4260   51.3510   12.3870 C.3   548  PSK548      0.0104
      7  CAN       43.7080   50.7230   11.4900 C.2   548  PSK548      0.1619
      8  OAE       44.5710   51.5700   11.2680 O.2   548  PSK548     -0.2954
      9  CAL       43.4680   49.6130   10.4970 C.3   548  PSK548      0.1478
     10  P1        44.8460   48.4510   10.3960 P.3   548  PSK548      0.2627
     11  OAH       45.2890   47.9900   11.8660 O.3   548  PSK548     -0.1740
     12  OAF       44.4230   47.3070    9.5350 O.3   548  PSK548     -0.1740
@<TRIPOS>BOND
     1    12    10    1
     2    10     9    1
     3    10    11    1
     4     9     7    1
     5     8     7    2
     6     7     5    1
     7     6     5    1
     8     5     3    1
     9     3     2    1
    10     3     4    1
    11     2     1    1
