@<TRIPOS>MOLECULE
2h88_HEM_C_1.pdb
 41 48 0 0 0
SMALL
GASTEIGER

@<TRIPOS>ATOM
      1  CHA        8.3880    6.2250   14.0630 C.2   142  HEM142      0.0000
      2  CHB        7.6360    2.3090   11.3410 C.2   142  HEM142      0.0000
      3  CHC        9.0120   -0.2980   15.1990 C.2   142  HEM142      0.0000
      4  CHD        9.4710    3.5900   17.9570 C.2   142  HEM142      0.0000
      5  C1A        8.0890    5.3780   13.0100 C.ar  142  HEM142      0.0000
      6  C2A        7.7270    5.8500   11.7010 C.ar  142  HEM142      0.0000
      7  C3A        7.4410    4.7570   10.9790 C.ar  142  HEM142      0.0000
      8  C4A        7.6400    3.6080   11.8260 C.ar  142  HEM142      0.0000
      9  CMA        7.0430    4.8080    9.5070 C.3   142  HEM142      0.0000
     10  CAA        7.6030    7.3280   11.2120 C.3   142  HEM142      0.0000
     11  CBA        8.9670    7.9620   11.0810 C.3   142  HEM142      0.0000
     12  CGA        8.9750    9.4760   11.3230 C.2   142  HEM142      0.0000
     13  O1A       10.0760   10.0800   11.2470 O.co2 142  HEM142      0.0000
     14  O2A        7.9020   10.0630   11.5940 O.co2 142  HEM142      0.0000
     15  C1B        8.0340    1.2570   12.1310 C.2   142  HEM142      0.0000
     16  C2B        7.9030   -0.1830   11.7690 C.2   142  HEM142      0.0000
     17  C3B        8.3970   -0.8820   12.8210 C.2   142  HEM142      0.0000
     18  C4B        8.6620    0.0570   13.9190 C.2   142  HEM142      0.0000
     19  CMB        7.1560   -0.7470   10.5490 C.3   142  HEM142      0.0000
     20  CAB        8.5080   -2.2920   12.9050 C.3   142  HEM142      0.0000
     21  C1C        9.2150    0.4910   16.3240 C.ar  142  HEM142      0.0000
     22  C2C        9.6310    0.0270   17.6400 C.ar  142  HEM142      0.0000
     23  C3C        9.7150    1.1350   18.4370 C.ar  142  HEM142      0.0000
     24  C4C        9.4400    2.2640   17.5450 C.ar  142  HEM142      0.0000
     25  CMC       10.0330   -1.4280   17.9940 C.3   142  HEM142      0.0000
     26  CAC       10.1270    1.2770   19.8360 C.3   142  HEM142      0.0000
     27  C1D        9.1500    4.6660   17.1700 C.2   142  HEM142      0.0000
     28  C2D        9.0220    6.0430   17.6350 C.2   142  HEM142      0.0000
     29  C3D        8.6550    6.7980   16.5150 C.2   142  HEM142      0.0000
     30  C4D        8.6710    5.8910   15.3610 C.2   142  HEM142      0.0000
     31  CMD        9.2080    6.4290   19.0730 C.3   142  HEM142      0.0000
     32  CAD        8.2710    8.2890   16.5960 C.3   142  HEM142      0.0000
     33  CBD        9.4870    9.1530   16.3330 C.3   142  HEM142      0.0000
     34  CGD        9.2180   10.6350   16.6520 C.2   142  HEM142      0.0000
     35  O1D        9.0180   10.9520   17.8400 O.co2 142  HEM142      0.0000
     36  O2D        9.1990   11.4610   15.7230 O.co2 142  HEM142      0.0000
     37  NA         8.0930    3.9290   13.0960 N.ar  142  HEM142      0.0000
     38  NB         8.4660    1.3850   13.4310 N.2   142  HEM142      0.0000
     39  NC         9.1370    1.9050   16.2450 N.ar  142  HEM142      0.0000
     40  ND         8.7630    4.5850   15.8500 N.2   142  HEM142      0.0000
     41 FE          8.5890    2.9730   14.6120 Fe    142  HEM142      0.0000
@<TRIPOS>BOND
     1     9     7    1
     2    19    16    1
     3     7     6   ar
     4     7     8   ar
     5    11    10    1
     6    11    12    1
     7    10     6    1
     8    13    12   ar
     9    12    14   ar
    10     2     8    2
    11     2    15    1
    12     6     5   ar
    13    16    15    1
    14    16    17    2
    15     8    37   ar
    16    15    38    2
    17    17    20    1
    18    17    18    1
    19     5    37   ar
    20     5     1    2
    21    37    41    1
    22    38    18    1
    23    38    41    1
    24    18     3    2
    25     1    30    1
    26    41    40    1
    27    41    39    1
    28     3    21    1
    29    30    40    2
    30    30    29    1
    31    36    34   ar
    32    40    27    1
    33    39    21   ar
    34    39    24   ar
    35    21    22   ar
    36    33    32    1
    37    33    34    1
    38    29    32    1
    39    29    28    2
    40    34    35   ar
    41    27    28    1
    42    27     4    2
    43    24     4    1
    44    24    23   ar
    45    28    31    1
    46    22    25    1
    47    22    23   ar
    48    23    26    1
