@<TRIPOS>MOLECULE
2h89_HEM_C_1.pdb
 41 48 0 0 0
SMALL
GASTEIGER

@<TRIPOS>ATOM
      1 FE          0.3850   31.0780   79.3750 Fe    142  HEM142      0.0000
      2  CHA        2.6420   31.4490   81.8450 C.2   142  HEM142      0.0000
      3  CHB        2.0750   33.4710   77.4920 C.2   142  HEM142      0.0000
      4  CHC       -1.7800   30.6610   76.9150 C.2   142  HEM142      0.0000
      5  CHD       -1.2380   28.7650   81.2800 C.2   142  HEM142      0.0000
      6  NA         1.9680   32.2860   79.6310 N.ar  142  HEM142      0.0000
      7  C1A        2.8080   32.2510   80.7250 C.ar  142  HEM142      0.0000
      8  C2A        3.8550   33.2010   80.6010 C.ar  142  HEM142      0.0000
      9  C3A        3.7540   33.7320   79.3500 C.ar  142  HEM142      0.0000
     10  C4A        2.5560   33.1790   78.7620 C.ar  142  HEM142      0.0000
     11  CMA        4.7210   34.7580   78.7390 C.3   142  HEM142      0.0000
     12  CAA        4.8600   33.4860   81.7040 C.3   142  HEM142      0.0000
     13  CBA        6.0700   32.5540   81.6650 C.3   142  HEM142      0.0000
     14  CGA        6.6330   32.2680   83.0440 C.2   142  HEM142      0.0000
     15  O1A        7.6140   31.4920   83.1460 O.co2 142  HEM142      0.0000
     16  O2A        6.0870   32.8180   84.0280 O.co2 142  HEM142      0.0000
     17  NB         0.2170   31.8750   77.5510 N.2   142  HEM142      0.0000
     18  C1B        0.9610   32.8880   76.9140 C.2   142  HEM142      0.0000
     19  C2B        0.3590   33.2690   75.6390 C.2   142  HEM142      0.0000
     20  C3B       -0.5390   32.2710   75.3780 C.2   142  HEM142      0.0000
     21  C4B       -0.7810   31.5860   76.6510 C.2   142  HEM142      0.0000
     22  CMB        0.6490   34.4790   74.7240 C.3   142  HEM142      0.0000
     23  CAB       -0.9500   31.8930   74.0980 C.3   142  HEM142      0.0000
     24  NC        -1.0930   29.8430   79.0830 N.ar  142  HEM142      0.0000
     25  C1C       -1.9640   29.8440   78.0250 C.ar  142  HEM142      0.0000
     26  C2C       -3.0820   28.9070   78.2320 C.ar  142  HEM142      0.0000
     27  C3C       -2.9580   28.4640   79.5000 C.ar  142  HEM142      0.0000
     28  C4C       -1.7040   29.0060   80.0010 C.ar  142  HEM142      0.0000
     29  CMC       -4.2260   28.4610   77.2850 C.3   142  HEM142      0.0000
     30  CAC       -3.8470   27.6020   80.1250 C.3   142  HEM142      0.0000
     31  ND         0.5740   30.3440   81.2170 N.2   142  HEM142      0.0000
     32  C1D       -0.1800   29.3810   81.8820 C.2   142  HEM142      0.0000
     33  C2D        0.2120   29.2450   83.2890 C.2   142  HEM142      0.0000
     34  C3D        1.3330   30.0170   83.4470 C.2   142  HEM142      0.0000
     35  C4D        1.5950   30.6120   82.1290 C.2   142  HEM142      0.0000
     36  CMD       -0.5010   28.5640   84.4320 C.3   142  HEM142      0.0000
     37  CAD        2.1020   30.2670   84.7590 C.3   142  HEM142      0.0000
     38  CBD        3.0770   29.1700   85.1390 C.3   142  HEM142      0.0000
     39  CGD        3.9130   29.5170   86.3700 C.2   142  HEM142      0.0000
     40  O1D        3.3120   29.8520   87.4160 O.co2 142  HEM142      0.0000
     41  O2D        5.1660   29.4520   86.2860 O.co2 142  HEM142      0.0000
@<TRIPOS>BOND
     1    23    20    1
     2    22    19    1
     3    20    19    2
     4    20    21    1
     5    19    18    1
     6    21     4    2
     7    21    17    1
     8    18     3    1
     9    18    17    2
    10     4    25    1
    11    29    26    1
    12     3    10    2
    13    17     1    1
    14    25    26   ar
    15    25    24   ar
    16    26    27   ar
    17    11     9    1
    18    10     9   ar
    19    10     6   ar
    20    24     1    1
    21    24    28   ar
    22     9     8   ar
    23     1     6    1
    24     1    31    1
    25    27    28   ar
    26    27    30    1
    27     6     7   ar
    28    28     5    1
    29     8     7   ar
    30     8    12    1
    31     7     2    2
    32    31    32    1
    33    31    35    2
    34     5    32    2
    35    13    12    1
    36    13    14    1
    37     2    35    1
    38    32    33    1
    39    35    34    1
    40    14    15   ar
    41    14    16   ar
    42    33    34    2
    43    33    36    1
    44    34    37    1
    45    37    38    1
    46    38    39    1
    47    41    39   ar
    48    39    40   ar
