@<TRIPOS>MOLECULE
2h8a_GSH_A_1.pdb
 20 19 0 0 0
SMALL
GASTEIGER

@<TRIPOS>ATOM
      1  N1       -49.2560   18.2720   19.4000 N.3   218  GSH218     -0.1208
      2  CA1      -50.2180   19.2340   19.9420 C.3   218  GSH218      0.1948
      3  C1       -49.5630   20.0410   21.0460 C.2   218  GSH218      0.3819
      4  O11      -48.3120   20.1200   21.1410 O.co2 218  GSH218     -0.2441
      5  O12      -50.2550   20.6450   21.9030 O.co2 218  GSH218     -0.2441
      6  CB1      -50.8530   20.1150   18.8520 C.3   218  GSH218      0.0402
      7  CG1      -50.0910   20.3220   17.5380 C.3   218  GSH218      0.0889
      8  CD1      -50.9950   21.0170   16.5180 C.2   218  GSH218      0.2418
      9  OE1      -52.4020   20.7920   16.4570 O.2   218  GSH218     -0.2733
     10  N2       -50.4190   21.8480   15.6500 N.am  218  GSH218     -0.1968
     11  CA2      -50.6310   21.6630   14.2250 C.3   218  GSH218      0.1843
     12  C2       -49.4680   20.9570   13.6380 C.2   218  GSH218      0.2627
     13  O2       -48.1910   21.1780   14.2000 O.2   218  GSH218     -0.2714
     14  CB2      -50.6640   22.9860   13.4860 C.3   218  GSH218      0.0997
     15  SG2      -52.0790   24.0270   13.9270 S.3   218  GSH218     -0.0797
     16  N3       -49.6930   20.1850   12.5820 N.am  218  GSH218     -0.1917
     17  CA3      -48.5850   19.9140   11.6790 C.3   218  GSH218      0.2285
     18  C3       -48.6060   18.4470   11.3660 C.2   218  GSH218      0.3865
     19  O31      -49.7070   17.8710   11.1940 O.co2 218  GSH218     -0.2437
     20  O32      -47.5270   17.8170   11.2790 O.co2 218  GSH218     -0.2437
@<TRIPOS>BOND
     1    19    18   ar
     2    20    18   ar
     3    18    17    1
     4    17    16    1
     5    16    12   am
     6    14    15    1
     7    14    11    1
     8    12    13    2
     9    12    11    1
    10    11    10    1
    11    10     8   am
    12     9     8    2
    13     8     7    1
    14     7     6    1
    15     6     2    1
    16     1     2    1
    17     2     3    1
    18     3     4   ar
    19     3     5   ar
