@<TRIPOS>MOLECULE
2h8d_HEM_A_1.pdb
 43 50 0 0 0
SMALL
GASTEIGER

@<TRIPOS>ATOM
      1 FE          5.5480  -16.5320   11.8120 Fe    200  HEM200      0.0000
      2  CHA        6.4450  -19.8370   11.6220 C.2   200  HEM200      0.0000
      3  CHB        8.7960  -15.6470   11.3250 C.2   200  HEM200      0.0000
      4  CHC        4.8740  -13.2830   12.8470 C.2   200  HEM200      0.0000
      5  CHD        2.5270  -17.4720   13.2080 C.2   200  HEM200      0.0000
      6  NA         7.3090  -17.5520   11.6040 N.ar  200  HEM200      0.0000
      7  C1A        7.4770  -18.9150   11.5160 C.ar  200  HEM200      0.0000
      8  C2A        8.8330  -19.1960   11.0880 C.ar  200  HEM200      0.0000
      9  C3A        9.5160  -18.0450   11.1330 C.ar  200  HEM200      0.0000
     10  C4A        8.5690  -16.9930   11.4260 C.ar  200  HEM200      0.0000
     11  CMA       10.9990  -17.7870   10.7850 C.3   200  HEM200      0.0000
     12  CAA        9.3690  -20.6110   10.8090 C.3   200  HEM200      0.0000
     13  CBA        9.0930  -21.2240    9.4350 C.3   200  HEM200      0.0000
     14  CGA        9.6390  -22.6230    9.2500 C.2   200  HEM200      0.0000
     15  O1A       10.7870  -22.7130    8.7400 O.co2 200  HEM200      0.0000
     16  O2A        8.9270  -23.5800    9.6280 O.co2 200  HEM200      0.0000
     17  NB         6.5550  -14.8220   11.9040 N.2   200  HEM200      0.0000
     18  C1B        7.8850  -14.6340   11.5140 C.2   200  HEM200      0.0000
     19  C2B        8.2460  -13.2420   11.6650 C.2   200  HEM200      0.0000
     20  C3B        7.1310  -12.5750   11.9840 C.2   200  HEM200      0.0000
     21  C4B        6.1250  -13.5730   12.3140 C.2   200  HEM200      0.0000
     22  CMB        9.5430  -12.6410   11.0480 C.3   200  HEM200      0.0000
     23  CAB        6.8800  -11.0710   12.0400 C.2   200  HEM200      0.0000
     24  CBB        7.5650  -10.2670   12.8490 C.2   200  HEM200      0.0000
     25  NC         3.9000  -15.5330   12.6310 N.ar  200  HEM200      0.0000
     26  C1C        3.9310  -14.2540   13.1660 C.ar  200  HEM200      0.0000
     27  C2C        2.5820  -13.9390   13.6550 C.ar  200  HEM200      0.0000
     28  C3C        1.9260  -15.0900   13.7590 C.ar  200  HEM200      0.0000
     29  C4C        2.7480  -16.1190   13.1210 C.ar  200  HEM200      0.0000
     30  CMC        2.1420  -12.4900   13.9170 C.3   200  HEM200      0.0000
     31  CAC        0.4640  -15.3570   14.1820 C.2   200  HEM200      0.0000
     32  CBC       -0.0880  -14.6250   15.1690 C.2   200  HEM200      0.0000
     33  ND         4.6900  -18.2790   12.3840 N.2   200  HEM200      0.0000
     34  C1D        3.4000  -18.4810   12.8770 C.2   200  HEM200      0.0000
     35  C2D        3.1480  -19.8970   13.0040 C.2   200  HEM200      0.0000
     36  C3D        4.2150  -20.5470   12.5320 C.2   200  HEM200      0.0000
     37  C4D        5.1670  -19.5530   12.0850 C.2   200  HEM200      0.0000
     38  CMD        1.8470  -20.5030   13.5890 C.3   200  HEM200      0.0000
     39  CAD        4.5990  -22.0340   12.7970 C.3   200  HEM200      0.0000
     40  CBD        5.0140  -22.3480   14.2510 C.3   200  HEM200      0.0000
     41  CGD        4.7390  -23.7540   14.7050 C.2   200  HEM200      0.0000
     42  O1D        5.1680  -24.0780   15.8440 O.co2 200  HEM200      0.0000
     43  O2D        4.1140  -24.5010   13.9230 O.co2 200  HEM200      0.0000
@<TRIPOS>BOND
     1    15    14   ar
     2    14    13    1
     3    14    16   ar
     4    13    12    1
     5    11     9    1
     6    12     8    1
     7    22    19    1
     8     8     9   ar
     9     8     7   ar
    10     9    10   ar
    11     3    10    2
    12     3    18    1
    13    10     6   ar
    14    18    19    1
    15    18    17    2
    16     7     6   ar
    17     7     2    2
    18     6     1    1
    19     2    37    1
    20    19    20    2
    21     1    17    1
    22     1    33    1
    23     1    25    1
    24    17    21    1
    25    20    23    1
    26    20    21    1
    27    23    24    2
    28    37    33    2
    29    37    36    1
    30    21     4    2
    31    33    34    1
    32    36    39    1
    33    36    35    2
    34    25    29   ar
    35    25    26   ar
    36    39    40    1
    37     4    26    1
    38    34    35    1
    39    34     5    2
    40    35    38    1
    41    29     5    1
    42    29    28   ar
    43    26    27   ar
    44    27    28   ar
    45    27    30    1
    46    28    31    1
    47    43    41   ar
    48    31    32    2
    49    40    41    1
    50    41    42   ar
