@<TRIPOS>MOLECULE
2h8f_HEM_A_1.pdb
 43 50 0 0 0
SMALL
GASTEIGER

@<TRIPOS>ATOM
      1 FE          5.5320  -16.5770   11.8170 Fe    200  HEM200      0.0000
      2  CHA        6.4790  -19.8380   11.6410 C.2   200  HEM200      0.0000
      3  CHB        8.7410  -15.5970   11.0550 C.2   200  HEM200      0.0000
      4  CHC        4.8140  -13.2720   12.5610 C.2   200  HEM200      0.0000
      5  CHD        2.5210  -17.5220   13.1240 C.2   200  HEM200      0.0000
      6  NA         7.3040  -17.5160   11.5450 N.ar  200  HEM200      0.0000
      7  C1A        7.4550  -18.8700   11.4700 C.ar  200  HEM200      0.0000
      8  C2A        8.8210  -19.1590   11.0330 C.ar  200  HEM200      0.0000
      9  C3A        9.5010  -17.9960   11.0650 C.ar  200  HEM200      0.0000
     10  C4A        8.5320  -16.9420   11.1850 C.ar  200  HEM200      0.0000
     11  CMA       10.9760  -17.7620   10.6680 C.3   200  HEM200      0.0000
     12  CAA        9.3800  -20.5750   10.8590 C.2   200  HEM200      0.0000
     13  CBA        8.9410  -21.4020    9.6660 C.2   200  HEM200      0.0000
     14  CGA        9.5880  -22.7650    9.5370 C.2   200  HEM200      0.0000
     15  O1A        9.9630  -23.0860    8.3820 O.co2 200  HEM200      0.0000
     16  O2A        9.6960  -23.4500   10.5800 O.co2 200  HEM200      0.0000
     17  NB         6.5680  -14.7800   11.8370 N.2   200  HEM200      0.0000
     18  C1B        7.8910  -14.5900   11.4520 C.2   200  HEM200      0.0000
     19  C2B        8.2340  -13.2090   11.5990 C.2   200  HEM200      0.0000
     20  C3B        7.0970  -12.5140   11.7740 C.2   200  HEM200      0.0000
     21  C4B        6.0380  -13.5160   11.9470 C.2   200  HEM200      0.0000
     22  CMB        9.5460  -12.6330   10.9230 C.3   200  HEM200      0.0000
     23  CAB        6.8710  -11.0170   11.7860 C.2   200  HEM200      0.0000
     24  CBB        7.5820  -10.2140   12.6040 C.2   200  HEM200      0.0000
     25  NC         3.9620  -15.6160   12.6100 N.ar  200  HEM200      0.0000
     26  C1C        3.8840  -14.2940   12.8930 C.ar  200  HEM200      0.0000
     27  C2C        2.5350  -13.9760   13.3270 C.ar  200  HEM200      0.0000
     28  C3C        1.9020  -15.1540   13.5520 C.ar  200  HEM200      0.0000
     29  C4C        2.7620  -16.1910   13.0520 C.ar  200  HEM200      0.0000
     30  CMC        2.1090  -12.5900   13.7850 C.3   200  HEM200      0.0000
     31  CAC        0.4850  -15.3980   14.0400 C.2   200  HEM200      0.0000
     32  CBC       -0.1030  -14.6970   15.0180 C.2   200  HEM200      0.0000
     33  ND         4.6710  -18.3320   12.2550 N.2   200  HEM200      0.0000
     34  C1D        3.4040  -18.5270   12.7910 C.2   200  HEM200      0.0000
     35  C2D        3.1710  -19.9400   13.0490 C.2   200  HEM200      0.0000
     36  C3D        4.2370  -20.5830   12.5830 C.2   200  HEM200      0.0000
     37  C4D        5.1690  -19.6180   12.0610 C.2   200  HEM200      0.0000
     38  CMD        1.7640  -20.4930   13.4110 C.3   200  HEM200      0.0000
     39  CAD        4.4800  -22.1210   12.5510 C.3   200  HEM200      0.0000
     40  CBD        5.3420  -22.6430   13.7350 C.3   200  HEM200      0.0000
     41  CGD        4.9600  -24.0240   14.1990 C.2   200  HEM200      0.0000
     42  O1D        4.9640  -24.2190   15.4320 O.co2 200  HEM200      0.0000
     43  O2D        4.6690  -24.8550   13.2980 O.co2 200  HEM200      0.0000
@<TRIPOS>BOND
     1    15    14   ar
     2    14    13    1
     3    14    16   ar
     4    13    12    2
     5    11     9    1
     6    12     8    1
     7    22    19    1
     8     8     9   ar
     9     8     7   ar
    10     3    10    2
    11     3    18    1
    12     9    10   ar
    13    10     6   ar
    14    18    19    1
    15    18    17    2
    16     7     6   ar
    17     7     2    2
    18     6     1    1
    19    19    20    2
    20     2    37    1
    21    20    23    1
    22    20    21    1
    23    23    24    2
    24     1    17    1
    25     1    33    1
    26     1    25    1
    27    17    21    1
    28    21     4    2
    29    37    33    2
    30    37    36    1
    31    33    34    1
    32    39    36    1
    33    39    40    1
    34     4    26    1
    35    36    35    2
    36    25    26   ar
    37    25    29   ar
    38    34    35    1
    39    34     5    2
    40    26    27   ar
    41    35    38    1
    42    29     5    1
    43    29    28   ar
    44    43    41   ar
    45    27    28   ar
    46    27    30    1
    47    28    31    1
    48    40    41    1
    49    31    32    2
    50    41    42   ar
