@<TRIPOS>MOLECULE
2h8g_ADE_A_1.pdb
 10 11 0 0 0
SMALL
GASTEIGER

@<TRIPOS>ATOM
      1  N9        17.8660   16.8610   46.5470 N.2   701  ADE701     -0.1914
      2  C8        16.9950   17.5880   47.2820 C.3   701  ADE701      0.2618
      3  N7        17.2670   17.5890   48.6090 N.2   701  ADE701     -0.2267
      4  C5        18.3860   16.8070   48.7130 C.2   701  ADE701      0.2303
      5  C6        19.2120   16.3840   49.8180 C.2   701  ADE701      0.4393
      6  N6        18.9410   16.7580   51.0630 N.pl3 701  ADE701      0.2185
      7  N1        20.3210   15.5510   49.5360 N.2   701  ADE701     -0.0265
      8  C2        20.5860   15.1720   48.2420 C.3   701  ADE701      0.4008
      9  N3        19.8470   15.5330   47.1240 N.2   701  ADE701     -0.1640
     10  C4        18.7740   16.3470   47.4420 C.1   701  ADE701      0.0579
@<TRIPOS>BOND
     1     1     2    1
     2     1    10    2
     3     9    10    2
     4     9     8    1
     5     2     3    1
     6    10     4    1
     7     8     7    1
     8     3     4    2
     9     4     5    1
    10     7     5    2
    11     5     6    1
