@<TRIPOS>MOLECULE
2h8h_H8H_A_1.pdb
 38 43 0 0 0
SMALL
GASTEIGER

@<TRIPOS>ATOM
      1  C1        27.1610   14.9190   60.1170 C.3   534  H8H534      0.0897
      2  N2        27.1230   16.3700   59.8410 N.3   534  H8H534     -0.2691
      3  C3        26.4230   16.5910   58.5480 C.3   534  H8H534      0.0897
      4  C4        26.3740   18.1100   58.2720 C.3   534  H8H534      0.0898
      5  N5        25.7090   18.8430   59.3760 N.3   534  H8H534     -0.2672
      6  C6        26.0190   20.2400   59.1190 C.3   534  H8H534      0.1201
      7  C7        24.7550   21.0440   58.8870 C.3   534  H8H534      0.2222
      8  O8        23.6390   20.2030   59.0860 O.2   534  H8H534     -0.4777
      9  C9        22.5160   20.8860   58.7490 C.2   534  H8H534      0.1251
     10  C10       21.3050   20.1870   58.7360 C.2   534  H8H534      0.0699
     11  C11       20.1260   20.8250   58.3890 C.2   534  H8H534      0.1494
     12  O12       18.9230   20.1760   58.3460 O.2   534  H8H534     -0.4786
     13  C13       18.8930   18.9970   59.1450 C.3   534  H8H534      0.1709
     14  C14       17.6710   19.1530   60.0500 C.3   534  H8H534      0.0756
     15  C15       17.2150   17.8250   60.6710 C.3   534  H8H534      0.1459
     16  O16       17.1820   16.7620   59.7110 O.3   534  H8H534     -0.3535
     17  C17       18.3720   16.5510   58.9550 C.3   534  H8H534      0.1459
     18  C18       18.7040   17.8370   58.1730 C.3   534  H8H534      0.0756
     19  C19       20.1480   22.2020   58.0760 C.2   534  H8H534      0.1335
     20  C20       18.9680   22.9450   57.7350 C.2   534  H8H534      0.3673
     21  N21       17.7110   22.3300   57.6890 N.pl3 534  H8H534     -0.0017
     22  C22       16.5270   23.0070   57.2880 C.ar  534  H8H534      0.2305
     23  C23       16.4740   23.7090   56.0740 C.ar  534  H8H534      0.2178
     24  O24       17.3970   23.9430   55.0710 O.3   534  H8H534     -0.4309
     25  C25       16.9720   25.1470   54.4240 C.3   534  H8H534      0.4295
     26  O26       15.5540   24.9650   54.4830 O.3   534  H8H534     -0.4345
     27  C27       15.2960   24.3470   55.6850 C.ar  534  H8H534      0.1801
     28  C28       14.1760   24.3080   56.4990 C.ar  534  H8H534      0.0413
     29  C29       14.2070   23.6040   57.6940 C.ar  534  H8H534      0.0183
     30  C30       15.3640   22.9490   58.0830 C.ar  534  H8H534      0.1018
     31 CL3        15.3560   22.0940   59.6070 Cl    534  H8H534     -0.0784
     32  N32       19.1010   24.2560   57.4940 N.2   534  H8H534     -0.0326
     33  C33       20.2600   24.8470   57.5280 C.3   534  H8H534      0.3917
     34  N34       21.3810   24.2100   57.8210 N.2   534  H8H534     -0.2222
     35  C35       21.3850   22.9060   58.1070 C.2   534  H8H534      0.0760
     36  C36       22.5640   22.2410   58.4410 C.3   534  H8H534      0.1097
     37  C37       26.3440   18.5430   60.6840 C.3   534  H8H534      0.0898
     38  C38       26.3870   17.0280   60.9570 C.3   534  H8H534      0.0897
@<TRIPOS>BOND
     1    25    26    1
     2    25    24    1
     3    26    27    1
     4    24    23    1
     5    27    23   ar
     6    27    28   ar
     7    23    22   ar
     8    28    29   ar
     9    22    21    1
    10    22    30   ar
    11    32    33    1
    12    32    20    2
    13    33    34    1
    14    21    20    1
    15    29    30   ar
    16    20    19    1
    17    34    35    2
    18    19    35    1
    19    19    11    2
    20    30    31    1
    21    35    36    1
    22    18    17    1
    23    18    13    1
    24     4     3    1
    25     4     5    1
    26    12    11    1
    27    12    13    1
    28    11    10    1
    29    36     9    1
    30     3     2    1
    31    10     9    2
    32     9     8    1
    33     7     8    1
    34     7     6    1
    35    17    16    1
    36     6     5    1
    37    13    14    1
    38     5    37    1
    39    16    15    1
    40     2     1    1
    41     2    38    1
    42    14    15    1
    43    37    38    1
