@<TRIPOS>MOLECULE
2h8k_A3P_A_1.pdb
 27 29 0 0 0
SMALL
GASTEIGER

@<TRIPOS>ATOM
      1  P1        24.7440    3.8340   14.3250 P.3   401  A3P401      0.5327
      2  O1P       24.7780    2.7570   15.3740 O.3   401  A3P401     -0.1145
      3  O2P       23.4290    3.9250   13.6050 O.3   401  A3P401     -0.1145
      4  O3P       25.9530    3.9270   13.3770 O.2   401  A3P401     -0.2224
      5  P2        27.6670   10.5800   16.2030 P.3   401  A3P401      0.5327
      6  O4P       28.4150   10.5630   17.4850 O.3   401  A3P401     -0.1145
      7  O5P       26.5250   11.5610   16.1810 O.3   401  A3P401     -0.1145
      8  O6P       28.5170   10.5240   14.9550 O.2   401  A3P401     -0.2224
      9  O5'       26.9810    9.1480   16.2580 O.3   401  A3P401     -0.2675
     10  C5'       26.4960    8.4410   15.1060 C.3   401  A3P401      0.1859
     11  C4'       25.4850    7.4480   15.6600 C.3   401  A3P401      0.1796
     12  O4'       24.4250    8.1990   16.2730 O.3   401  A3P401     -0.3136
     13  C3'       24.8470    6.5290   14.6360 C.3   401  A3P401      0.1928
     14  O3'       24.8320    5.1940   15.2070 O.3   401  A3P401     -0.2673
     15  C2'       23.4470    7.0880   14.5410 C.3   401  A3P401      0.2543
     16  O2'       22.4950    6.1200   14.1140 O.3   401  A3P401     -0.2131
     17  C1'       23.2150    7.5620   15.9660 C.3   401  A3P401      0.3185
     18  N9        22.1180    8.5130   16.0680 N.pl3 401  A3P401     -0.1439
     19  C8        22.0120    9.6640   15.4100 C.3   401  A3P401      0.3377
     20  N7        20.8570   10.2880   15.7370 N.2   401  A3P401     -0.2095
     21  C5        20.2330    9.5310   16.6060 C.2   401  A3P401      0.2526
     22  C6        18.9740    9.6310   17.3220 C.2   401  A3P401      0.4393
     23  N6        18.1750   10.7160   17.1320 N.pl3 401  A3P401      0.2180
     24  N1        18.6450    8.6210   18.1750 N.2   401  A3P401      0.0021
     25  C2        19.4630    7.5530   18.3420 C.3   401  A3P401      0.5254
     26  N3        20.6480    7.4290   17.6870 N.2   401  A3P401     -0.0055
     27  C4        21.0620    8.3720   16.8250 C.2   401  A3P401      0.3518
@<TRIPOS>BOND
     1     4     1    2
     2     3     1    1
     3    16    15    1
     4     1    14    1
     5     1     2    1
     6    15    13    1
     7    15    17    1
     8    13    14    1
     9    13    11    1
    10     8     5    2
    11    10    11    1
    12    10     9    1
    13    19    20    1
    14    19    18    1
    15    11    12    1
    16    20    21    2
    17    17    18    1
    18    17    12    1
    19    18    27    1
    20     7     5    1
    21     5     9    1
    22     5     6    1
    23    21    27    1
    24    21    22    1
    25    27    26    2
    26    23    22    1
    27    22    24    2
    28    26    25    1
    29    24    25    1
