@<TRIPOS>MOLECULE
2h8m_NEI_A_1.pdb
 23 25 0 0 0
SMALL
GASTEIGER

@<TRIPOS>ATOM
      1  C52     -121.1490  -36.1110   59.1330 C.3   401  NEI401      0.0253
      2  C51     -119.7120  -36.4120   59.5600 C.3   401  NEI401      0.1153
      3  N5'     -119.2510  -37.5360   58.7370 N.am  401  NEI401     -0.2033
      4  C5'     -119.1660  -37.4280   57.4170 C.2   401  NEI401      0.2713
      5  O5'     -119.4390  -36.4020   56.7900 O.2   401  NEI401     -0.2706
      6  C4'     -118.6970  -38.6470   56.6290 C.3   401  NEI401      0.2271
      7  O4'     -119.7610  -39.1710   55.8180 O.3   401  NEI401     -0.3257
      8  C3'     -117.5750  -38.2590   55.6690 C.3   401  NEI401      0.2223
      9  O3'     -116.3340  -38.2960   56.3790 O.3   401  NEI401     -0.2171
     10  C2'     -117.6790  -39.4670   54.7430 C.3   401  NEI401      0.2315
     11  O2'     -117.2600  -40.6460   55.4350 O.3   401  NEI401     -0.2157
     12  C1'     -119.1960  -39.5080   54.5410 C.3   401  NEI401      0.2297
     13  N9      -119.5890  -38.4890   53.5420 N.pl3 401  NEI401     -0.2359
     14  C8      -120.1100  -37.2770   53.7330 C.3   401  NEI401      0.2238
     15  N7      -120.3360  -36.7030   52.5520 N.2   401  NEI401     -0.2401
     16  C5      -119.9590  -37.5480   51.5950 C.2   401  NEI401      0.1706
     17  C4      -119.4800  -38.6810   52.2350 C.2   401  NEI401      0.2207
     18  N3      -119.0190  -39.7160   51.5210 N.2   401  NEI401     -0.3184
     19  C2      -119.0190  -39.6590   50.1850 C.1   401  NEI401      0.1703
     20  I2      -118.1900  -41.2860   49.1630 I     401  NEI401      0.0722
     21  N1      -119.4790  -38.5810   49.5320 N.2   401  NEI401     -0.3154
     22  C6      -119.9500  -37.5210   50.2060 C.2   401  NEI401      0.2528
     23  N6      -120.3980  -36.4540   49.5500 N.pl3 401  NEI401     -0.0904
@<TRIPOS>BOND
     1    20    19    1
     2    21    19    2
     3    21    22    2
     4    23    22    1
     5    19    18    2
     6    22    16    1
     7    18    17    2
     8    16    17    1
     9    16    15    2
    10    17    13    1
    11    15    14    1
    12    13    14    1
    13    13    12    1
    14    12    10    1
    15    12     7    1
    16    10    11    1
    17    10     8    1
    18     8     9    1
    19     8     6    1
    20     7     6    1
    21     6     4    1
    22     5     4    2
    23     4     3   am
    24     3     2    1
    25     1     2    1
