@<TRIPOS>MOLECULE
2h8x_FMN_A_1.pdb
 31 33 0 0 0
SMALL
GASTEIGER

@<TRIPOS>ATOM
      1  N1        19.2800   23.7470   59.2140 N.2   1401  FMN1401    -0.2890
      2  C2        19.4710   22.9870   58.0860 C.1   1401  FMN1401     0.3669
      3  O2        19.7750   21.9310   58.1330 O.2   1401  FMN1401    -0.1744
      4  N3        19.2550   23.6580   56.7810 N.2   1401  FMN1401    -0.2300
      5  C4        18.8600   25.0250   56.6130 C.1   1401  FMN1401     0.2513
      6  O4        18.7060   25.5400   55.4940 O.2   1401  FMN1401    -0.2057
      7  C4A       18.6530   25.8270   57.8150 C.2   1401  FMN1401     0.2700
      8  N5        18.2850   27.1540   57.7630 N.2   1401  FMN1401    -0.3878
      9  C5A       18.1120   27.9410   58.9270 C.2   1401  FMN1401     0.1320
     10  C6        17.7380   29.3950   58.7080 C.2   1401  FMN1401     0.0250
     11  C7        17.5890   30.2190   59.8710 C.2   1401  FMN1401    -0.0238
     12  C7M       17.2610   31.5460   59.5230 C.3   1401  FMN1401     0.0308
     13  C8        17.7930   29.6780   61.3800 C.2   1401  FMN1401    -0.0280
     14  C8M       17.6780   30.3910   62.5800 C.3   1401  FMN1401     0.0304
     15  C9        18.1310   28.3280   61.4870 C.2   1401  FMN1401    -0.0041
     16  C9A       18.3280   27.3690   60.3250 C.3   1401  FMN1401     0.1497
     17  N10       18.7270   25.8660   60.3300 N.pl3 1401  FMN1401    -0.2691
     18  C10       18.9090   25.0560   59.1480 C.2   1401  FMN1401     0.2416
     19  C1'       18.9450   25.3290   61.6850 C.3   1401  FMN1401     0.1294
     20  C2'       20.5260   25.8610   61.9550 C.3   1401  FMN1401     0.2044
     21  O2'       21.4820   25.2750   61.0250 O.3   1401  FMN1401    -0.2185
     22  C3'       21.0780   25.5160   63.3430 C.3   1401  FMN1401     0.2164
     23  O3'       21.1790   24.0630   63.5220 O.3   1401  FMN1401    -0.2175
     24  C4'       20.1260   26.1380   64.4040 C.3   1401  FMN1401     0.2147
     25  O4'       20.0060   27.5730   64.2160 O.3   1401  FMN1401    -0.2176
     26  C5'       20.6010   25.8930   65.8190 C.3   1401  FMN1401     0.1892
     27  O5'       21.9250   26.5910   66.0850 O.3   1401  FMN1401    -0.2674
     28  P         22.0280   28.0270   66.7680 P.3   1401  FMN1401     0.5327
     29  O1P       21.3230   29.0400   65.9760 O.2   1401  FMN1401    -0.2224
     30  O2P       21.4670   27.8980   68.1840 O.3   1401  FMN1401    -0.1145
     31  O3P       23.5290   28.2820   66.8100 O.3   1401  FMN1401    -0.1145
@<TRIPOS>BOND
     1     6     5    2
     2     5     4    2
     3     5     7    1
     4     4     2    2
     5     8     7    2
     6     8     9    2
     7     7    18    1
     8     2     3    2
     9     2     1    2
    10    10     9    1
    11    10    11    2
    12     9    16    1
    13    18     1    2
    14    18    17    1
    15    12    11    1
    16    11    13    1
    17    16    17    1
    18    16    15    1
    19    17    19    1
    20    21    20    1
    21    13    15    2
    22    13    14    1
    23    19    20    1
    24    20    22    1
    25    22    23    1
    26    22    24    1
    27    25    24    1
    28    24    26    1
    29    26    27    1
    30    29    28    2
    31    27    28    1
    32    28    31    1
    33    28    30    1
