@<TRIPOS>MOLECULE
2h8z_FMN_A_1.pdb
 31 33 0 0 0
SMALL
GASTEIGER

@<TRIPOS>ATOM
      1  N1        19.0560   23.8190   59.3310 N.2   1401  FMN1401    -0.2890
      2  C2        19.2580   23.0600   58.1860 C.1   1401  FMN1401     0.3669
      3  O2        19.5620   21.9740   58.2510 O.2   1401  FMN1401    -0.1744
      4  N3        19.0540   23.7800   56.8670 N.2   1401  FMN1401    -0.2300
      5  C4        18.6720   25.1330   56.7060 C.1   1401  FMN1401     0.2513
      6  O4        18.5140   25.6840   55.6430 O.2   1401  FMN1401    -0.2057
      7  C4A       18.4590   25.8910   57.9330 C.2   1401  FMN1401     0.2700
      8  N5        18.0850   27.1920   57.9110 N.2   1401  FMN1401    -0.3878
      9  C5A       17.8840   27.9450   59.0810 C.2   1401  FMN1401     0.1320
     10  C6        17.4960   29.3680   58.8880 C.2   1401  FMN1401     0.0250
     11  C7        17.3100   30.1800   60.0540 C.2   1401  FMN1401    -0.0238
     12  C7M       16.9590   31.5080   59.7090 C.3   1401  FMN1401     0.0308
     13  C8        17.4910   29.6160   61.5640 C.2   1401  FMN1401    -0.0280
     14  C8M       17.3270   30.3130   62.7990 C.3   1401  FMN1401     0.0304
     15  C9        17.8520   28.2700   61.6220 C.2   1401  FMN1401    -0.0041
     16  C9A       18.0810   27.3580   60.4480 C.3   1401  FMN1401     0.1497
     17  N10       18.5030   25.8700   60.4100 N.pl3 1401  FMN1401    -0.2691
     18  C10       18.6960   25.1000   59.2750 C.2   1401  FMN1401     0.2416
     19  C1'       18.7150   25.3300   61.7530 C.3   1401  FMN1401     0.1294
     20  C2'       20.2190   25.9330   62.0800 C.3   1401  FMN1401     0.2044
     21  O2'       21.1570   25.3450   61.1530 O.3   1401  FMN1401    -0.2185
     22  C3'       20.7350   25.6080   63.4560 C.3   1401  FMN1401     0.2164
     23  O3'       20.8200   24.1550   63.6630 O.3   1401  FMN1401    -0.2175
     24  C4'       19.7830   26.2430   64.5070 C.3   1401  FMN1401     0.2147
     25  O4'       19.6430   27.6620   64.3280 O.3   1401  FMN1401    -0.2176
     26  C5'       20.2640   25.9840   65.9560 C.3   1401  FMN1401     0.1892
     27  O5'       21.6310   26.6600   66.1710 O.3   1401  FMN1401    -0.2674
     28  P         21.7170   28.1020   66.8620 P.3   1401  FMN1401     0.5327
     29  O1P       20.9980   29.0890   66.0410 O.2   1401  FMN1401    -0.2224
     30  O2P       21.1330   27.9770   68.2580 O.3   1401  FMN1401    -0.1145
     31  O3P       23.2200   28.3690   66.8670 O.3   1401  FMN1401    -0.1145
@<TRIPOS>BOND
     1     6     5    2
     2     5     4    2
     3     5     7    1
     4     4     2    2
     5     8     7    2
     6     8     9    2
     7     7    18    1
     8     2     3    2
     9     2     1    2
    10    10     9    1
    11    10    11    2
    12     9    16    1
    13    18     1    2
    14    18    17    1
    15    12    11    1
    16    11    13    1
    17    17    16    1
    18    17    19    1
    19    16    15    1
    20    21    20    1
    21    13    15    2
    22    13    14    1
    23    19    20    1
    24    20    22    1
    25    22    23    1
    26    22    24    1
    27    25    24    1
    28    24    26    1
    29    26    27    1
    30    29    28    2
    31    27    28    1
    32    28    31    1
    33    28    30    1
