@<TRIPOS>MOLECULE
2h8z_8CM_A_1.pdb
 12 13 0 0 0
SMALL
GASTEIGER

@<TRIPOS>ATOM
      1  C5        14.4510   26.4070   58.3120 C.ar  801  8CM801      0.0032
      2  C6        14.6810   25.8220   57.0610 C.ar  801  8CM801      0.0035
      3  C7        15.2370   24.5160   56.9630 C.ar  801  8CM801      0.0452
      4  C8        15.5670   23.7950   58.1300 C.ar  801  8CM801      0.2300
      5  C1A       15.3290   24.3940   59.4070 C.ar  801  8CM801      0.1873
      6  C4A       14.7730   25.7020   59.5040 C.ar  801  8CM801      0.0381
      7  C4        14.5630   26.2470   60.8770 C.ar  801  8CM801      0.0098
      8  C3        14.8920   25.5290   61.9540 C.ar  801  8CM801      0.0824
      9  C2        15.4860   24.1370   61.8310 C.ar  801  8CM801      0.3460
     10  O1        15.6890   23.6100   60.5160 O.2   801  8CM801     -0.4177
     11  O2        15.8110   23.4270   62.7670 O.2   801  8CM801     -0.2445
     12  O8        16.1170   22.5300   58.0390 O.3   801  8CM801     -0.2833
@<TRIPOS>BOND
     1     3     2   ar
     2     3     4   ar
     3     2     1   ar
     4    12     4    1
     5     4     5   ar
     6     1     6   ar
     7     5     6   ar
     8     5    10   ar
     9     6     7   ar
    10    10     9   ar
    11     7     8   ar
    12     9     8   ar
    13     9    11    2
