@<TRIPOS>MOLECULE
2h90_COU_A_1.pdb
 11 12 0 0 0
SMALL
GASTEIGER

@<TRIPOS>ATOM
      1  C1        15.6410   23.7000   58.1460 C.ar  801  COU801      0.3459
      2  C2        15.1820   24.7550   57.1480 C.ar  801  COU801      0.0824
      3  C3        14.7080   25.9400   57.5580 C.ar  801  COU801      0.0097
      4  C4        14.6150   26.2610   59.0090 C.ar  801  COU801      0.0349
      5  C5        14.1270   27.4980   59.5240 C.ar  801  COU801      0.0030
      6  C6        14.0720   27.7230   60.9040 C.ar  801  COU801      0.0002
      7  C7        14.5030   26.7120   61.8140 C.ar  801  COU801      0.0031
      8  C8        14.9880   25.4880   61.3390 C.ar  801  COU801      0.0376
      9  C9        15.0480   25.2540   59.9380 C.ar  801  COU801      0.1487
     10  O1        16.0920   22.6090   57.8620 O.2   801  COU801     -0.2445
     11  O2        15.5510   24.0060   59.5330 O.2   801  COU801     -0.4210
@<TRIPOS>BOND
     1     2     3   ar
     2     2     1   ar
     3     3     4   ar
     4    10     1    2
     5     1    11   ar
     6     4     5   ar
     7     4     9   ar
     8     5     6   ar
     9    11     9   ar
    10     9     8   ar
    11     6     7   ar
    12     8     7   ar
