@<TRIPOS>MOLECULE
2h90_FMN_A_1.pdb
 31 33 0 0 0
SMALL
GASTEIGER

@<TRIPOS>ATOM
      1  N1        19.0450   23.7910   59.3080 N.2   1401  FMN1401    -0.2890
      2  C2        19.2520   23.0320   58.1780 C.1   1401  FMN1401     0.3669
      3  O2        19.5460   21.9260   58.2410 O.2   1401  FMN1401    -0.1744
      4  N3        19.0730   23.7570   56.8620 N.2   1401  FMN1401    -0.2300
      5  C4        18.7040   25.1270   56.7020 C.1   1401  FMN1401     0.2513
      6  O4        18.5810   25.6690   55.6120 O.2   1401  FMN1401    -0.2057
      7  C4A       18.4800   25.9030   57.9390 C.2   1401  FMN1401     0.2700
      8  N5        18.1170   27.2310   57.9040 N.2   1401  FMN1401    -0.3878
      9  C5A       17.9200   28.0030   59.0640 C.2   1401  FMN1401     0.1320
     10  C6        17.5490   29.4390   58.8530 C.2   1401  FMN1401     0.0250
     11  C7        17.3680   30.2390   60.0150 C.2   1401  FMN1401    -0.0238
     12  C7M       17.0390   31.5820   59.6880 C.3   1401  FMN1401     0.0308
     13  C8        17.5310   29.6740   61.5380 C.2   1401  FMN1401    -0.0280
     14  C8M       17.3850   30.3440   62.7410 C.3   1401  FMN1401     0.0304
     15  C9        17.8690   28.3390   61.6150 C.2   1401  FMN1401    -0.0041
     16  C9A       18.0910   27.4090   60.4520 C.3   1401  FMN1401     0.1497
     17  N10       18.4910   25.9010   60.4380 N.pl3 1401  FMN1401    -0.2691
     18  C10       18.6870   25.1090   59.2570 C.2   1401  FMN1401     0.2416
     19  C1'       18.6680   25.3420   61.7770 C.3   1401  FMN1401     0.1294
     20  C2'       20.2400   25.8470   62.0390 C.3   1401  FMN1401     0.2044
     21  O2'       21.2090   25.2580   61.1110 O.3   1401  FMN1401    -0.2185
     22  C3'       20.7990   25.5050   63.3900 C.3   1401  FMN1401     0.2164
     23  O3'       20.9170   24.0750   63.5660 O.3   1401  FMN1401    -0.2175
     24  C4'       19.8700   26.1030   64.4910 C.3   1401  FMN1401     0.2147
     25  O4'       19.6860   27.5350   64.3510 O.3   1401  FMN1401    -0.2176
     26  C5'       20.4100   25.8280   65.8840 C.3   1401  FMN1401     0.1892
     27  O5'       21.7390   26.5810   66.1130 O.3   1401  FMN1401    -0.2674
     28  P         21.8230   28.0160   66.8140 P.3   1401  FMN1401     0.5327
     29  O1P       21.0940   29.0030   66.0070 O.2   1401  FMN1401    -0.2224
     30  O2P       21.2360   27.9090   68.2090 O.3   1401  FMN1401    -0.1145
     31  O3P       23.3260   28.3200   66.8120 O.3   1401  FMN1401    -0.1145
@<TRIPOS>BOND
     1     6     5    2
     2     5     4    2
     3     5     7    1
     4     4     2    2
     5     8     7    2
     6     8     9    2
     7     7    18    1
     8     2     3    2
     9     2     1    2
    10    10     9    1
    11    10    11    2
    12     9    16    1
    13    18     1    2
    14    18    17    1
    15    12    11    1
    16    11    13    1
    17    17    16    1
    18    17    19    1
    19    16    15    1
    20    21    20    1
    21    13    15    2
    22    13    14    1
    23    19    20    1
    24    20    22    1
    25    22    23    1
    26    22    24    1
    27    25    24    1
    28    24    26    1
    29    26    27    1
    30    29    28    2
    31    27    28    1
    32    31    28    1
    33    28    30    1
