@<TRIPOS>MOLECULE
2h92_C5P_A_1.pdb
 21 22 0 0 0
SMALL
GASTEIGER

@<TRIPOS>ATOM
      1  O3P      -26.9940  145.2580   46.9650 O.3   1300  C5P1300    -0.1145
      2  P        -26.3990  144.3330   45.8570 P.3   1300  C5P1300     0.5327
      3  O1P      -27.4940  143.7660   45.0190 O.2   1300  C5P1300    -0.2224
      4  O2P      -25.5550  143.3560   46.5950 O.3   1300  C5P1300    -0.1145
      5  O5'      -25.5310  145.2830   44.9300 O.3   1300  C5P1300    -0.2675
      6  C5'      -24.3910  146.0000   45.4360 C.3   1300  C5P1300     0.1859
      7  C4'      -23.9950  147.0900   44.4810 C.3   1300  C5P1300     0.1801
      8  O4'      -23.3240  146.5130   43.3370 O.3   1300  C5P1300    -0.3320
      9  C3'      -25.1530  147.8990   43.8350 C.3   1300  C5P1300     0.2158
     10  O3'      -25.6220  148.8990   44.7230 O.3   1300  C5P1300    -0.2175
     11  C2'      -24.4970  148.4040   42.5820 C.3   1300  C5P1300     0.2319
     12  O2'      -23.7410  149.5860   42.8180 O.3   1300  C5P1300    -0.2157
     13  C1'      -23.6090  147.2810   42.1670 C.3   1300  C5P1300     0.2400
     14  N1       -24.1410  146.3220   41.1300 N.am  1300  C5P1300    -0.1778
     15  C2       -24.1540  146.7050   39.7310 C.1   1300  C5P1300     0.2756
     16  N3       -24.6280  145.7710   38.8150 N.2   1300  C5P1300    -0.3024
     17  C4       -25.0720  144.5370   39.2180 C.2   1300  C5P1300     0.2346
     18  C5       -25.0840  144.1260   40.6020 C.2   1300  C5P1300     0.0687
     19  C6       -24.6190  145.0300   41.5030 C.2   1300  C5P1300     0.0836
     20  O2       -23.7490  147.8270   39.3690 O.2   1300  C5P1300    -0.1925
     21  N4       -25.5050  143.6850   38.2890 N.pl3 1300  C5P1300    -0.0921
@<TRIPOS>BOND
     1    21    17    1
     2    16    17    2
     3    16    15    2
     4    17    18    1
     5    20    15    2
     6    15    14   am
     7    18    19    2
     8    14    19    1
     9    14    13    1
    10    13    11    1
    11    13     8    1
    12    11    12    1
    13    11     9    1
    14     8     7    1
    15     9     7    1
    16     9    10    1
    17     7     6    1
    18     5     6    1
    19     5     2    1
    20     3     2    2
    21     2     4    1
    22     2     1    1
