@<TRIPOS>MOLECULE
2h96_893_A_1.pdb
 25 26 0 0 0
SMALL
GASTEIGER

@<TRIPOS>ATOM
      1  C1        20.0930  109.2770   55.8360 C.ar  901  893901      0.0397
      2  C2        19.4820  107.9870   55.2500 C.ar  901  893901      0.1366
      3  C3        18.0470  108.1480   54.7120 C.ar  901  893901      0.0365
      4  C4        17.4070  109.3920   54.7830 C.ar  901  893901      0.0374
      5  C5        18.0260  110.5350   55.3340 C.ar  901  893901      0.1387
      6  C6        19.3510  110.4740   55.8530 C.ar  901  893901      0.0400
      7  C9        17.3070  107.0040   54.1090 C.3   901  893901      0.1450
      8  N1        17.8210  106.6710   52.7820 N.am  901  893901     -0.1945
      9  C8        17.0080  106.5050   51.7150 C.2   901  893901      0.2949
     10  C14       17.7150  106.1700   50.4610 C.2   901  893901      0.1890
     11  N16       19.0790  106.0510   50.4560 N.2   901  893901     -0.3655
     12  C17       19.7280  105.7350   49.2910 C.2   901  893901      0.2709
     13  C18       19.0120  105.5300   48.0950 C.3   901  893901      0.2018
     14  C19       17.6070  105.6540   48.1010 C.2   901  893901      0.0018
     15  C20       16.9420  105.9770   49.2940 C.2   901  893901      0.0339
     16  O22       17.2690  111.7060   55.3400 O.3   901  893901     -0.4714
     17  C23       17.5380  112.6010   54.2620 C.3   901  893901      0.2525
     18  O27       20.1270  106.7490   55.1850 O.3   901  893901     -0.4717
     19  C28       21.1780  106.6430   54.2530 C.3   901  893901      0.2525
     20  C34       19.6810  105.1990   46.8790 C.1   901  893901      0.0873
     21  N35       20.1900  104.9430   45.8750 N.1   901  893901     -0.1950
     22  O36       21.1280  105.6140   49.3010 O.2   901  893901     -0.4539
     23  C37       21.7770  105.9140   50.5270 C.3   901  893901      0.2080
     24  C7        22.0220  104.6000   51.2780 C.3   901  893901      0.0513
     25  O1        15.7810  106.6240   51.7950 O.2   901  893901     -0.2655
@<TRIPOS>BOND
     1    21    20    3
     2    20    13    1
     3    13    14    1
     4    13    12    1
     5    14    15    2
     6    12    22    1
     7    12    11    2
     8    15    10    1
     9    22    23    1
    10    11    10    2
    11    10     9    1
    12    23    24    1
    13     9    25    2
    14     9     8   am
    15     8     7    1
    16     7     3    1
    17    19    18    1
    18    17    16    1
    19     3     4   ar
    20     3     2   ar
    21     4     5   ar
    22    18     2    1
    23     2     1   ar
    24     5    16    1
    25     5     6   ar
    26     1     6   ar
