@<TRIPOS>MOLECULE
2h9e_III_S_1.pdb
 47 48 0 0 0
SMALL
GASTEIGER

@<TRIPOS>ATOM
      1  N         32.1810   -8.5210   63.4140 N.3     1  DTY1       -0.1227
      2  CA        32.8740   -8.7500   64.6840 C.3     1  DTY1        0.1736
      3  C         34.3920   -8.7180   64.8930 C.2     1  DTY1        0.2595
      4  O         34.9690   -7.6610   64.6510 O.2     1  DTY1       -0.2718
      5  CB        32.0970   -9.3460   65.8460 C.3     1  DTY1        0.0548
      6  CG        32.1240   -8.1840   66.8520 C.ar    1  DTY1       -0.0200
      7  CD1       31.3610   -7.0150   66.6150 C.ar    1  DTY1       -0.0009
      8  CD2       32.9780   -8.1890   67.9210 C.ar    1  DTY1       -0.0009
      9  CE1       31.4200   -5.9340   67.4500 C.ar    1  DTY1        0.0417
     10  CE2       33.0410   -7.0870   68.8130 C.ar    1  DTY1        0.0417
     11  CZ        32.2720   -5.9450   68.5380 C.ar    1  DTY1        0.1957
     12  OH        32.3590   -4.8180   69.3690 O.3     1  DTY1       -0.2866
     13  N         34.9610   -9.7990   65.4170 N.am    2  ILE2       -0.1966
     14  CA        36.3500   -9.8040   65.9020 C.3     2  ILE2        0.1727
     15  C         37.3230   -9.5490   64.7940 C.2     2  ILE2        0.2616
     16  O         37.3530  -10.2890   63.8400 O.2     2  ILE2       -0.2715
     17  CB        36.6900  -11.0900   66.5950 C.3     2  ILE2        0.0290
     18  CG1       35.9060  -11.1050   67.8760 C.3     2  ILE2        0.0022
     19  CG2       38.2420  -11.1600   66.8900 C.3     2  ILE2        0.0023
     20  CD1       36.0240  -12.3700   68.7400 C.3     2  ILE2        0.0001
     21  N         38.0070   -8.4170   64.8530 N.am    3  ARG3       -0.1963
     22  CA        39.0190   -8.0490   63.8740 C.3     3  ARG3        0.1729
     23  C         40.3190   -7.8540   64.6420 C.2     3  ARG3        0.2616
     24  O         40.4350   -6.8890   65.4310 O.2     3  ARG3       -0.2715
     25  CB        38.6590   -6.7640   63.1500 C.3     3  ARG3        0.0348
     26  CG        37.5980   -6.8970   62.0260 C.3     3  ARG3        0.0492
     27  CD        38.1310   -6.1960   60.7590 C.3     3  ARG3        0.2205
     28  NE        38.2610   -4.8010   61.0800 N.pl3   3  ARG3       -0.0865
     29  CZ        38.7680   -3.8130   60.3830 C.cat   3  ARG3        0.5346
     30  NH1       39.2910   -3.9410   59.1690 N.pl3   3  ARG3        0.1354
     31  NH2       38.7010   -2.6110   60.9670 N.pl3   3  ARG3        0.1354
     32  N         41.2690   -8.7810   64.4550 N.am    4  LEU4       -0.1964
     33  CA        42.5730   -8.7290   65.1740 C.3     4  LEU4        0.1713
     34  C         43.7170   -8.4870   64.2230 C.2     4  LEU4        0.2458
     35  O         43.7840   -9.1130   63.1560 O.2     4  LEU4       -0.2730
     36  CB        42.8490   -9.9490   66.0680 C.3     4  LEU4        0.0310
     37  CG        41.9580   -9.9750   67.2910 C.3     4  LEU4        0.0022
     38  CD1       41.7660  -11.3900   67.7970 C.3     4  LEU4        0.0001
     39  CD2       42.4940   -9.0320   68.3840 C.3     4  LEU4        0.0001
     40  O         46.6540   -9.2640   64.7950 O.2     5  PRO5       -0.2699
     41  C         46.5970   -8.5290   63.7940 C.2     5  PRO5        0.2788
     42  N2        47.1750   -8.8510   62.6560 N.am    5  PRO5       -0.0863
     43  CA        45.7660   -7.2430   63.7880 C.3     5  PRO5        0.1552
     44  N         44.5690   -7.5130   64.5710 N.am    5  PRO5       -0.2715
     45  CD        44.7110   -6.9440   65.9000 C.3     5  PRO5        0.0939
     46  CG        45.9640   -6.0640   65.8870 C.3     5  PRO5        0.0237
     47  CB        46.4650   -6.0630   64.4620 C.3     5  PRO5        0.0311
@<TRIPOS>BOND
     1    30    29    1
     2    29    31    1
     3    29    28    2
     4    27    28    1
     5    27    26    1
     6    26    25    1
     7    42    41   am
     8    25    22    1
     9    35    34    2
    10     1     2    1
    11    43    41    1
    12    43    47    1
    13    43    44    1
    14    41    40    2
    15    16    15    2
    16    22    23    1
    17    22    21    1
    18    34    44   am
    19    34    33    1
    20    32    23   am
    21    32    33    1
    22    47    46    1
    23    44    45    1
    24    23    24    2
    25     4     3    2
    26     2     3    1
    27     2     5    1
    28    15    21   am
    29    15    14    1
    30     3    13   am
    31    33    36    1
    32    13    14    1
    33     5     6    1
    34    46    45    1
    35    14    17    1
    36    36    37    1
    37    17    19    1
    38    17    18    1
    39     7     6   ar
    40     7     9   ar
    41     6     8   ar
    42    37    38    1
    43    37    39    1
    44     9    11   ar
    45    18    20    1
    46     8    10   ar
    47    11    10   ar
    48    11    12    1
