@<TRIPOS>MOLECULE
2h9h_III_I_1.pdb
 33 32 0 0 0
SMALL
GASTEIGER

@<TRIPOS>ATOM
      1  C         -7.1720  -11.1160   41.4100 C.2     1  ACE1        0.2423
      2  O         -7.9060  -10.1430   41.6290 O.2     1  ACE1       -0.2733
      3  CH3       -7.5180  -12.4880   41.9580 C.3     1  ACE1        0.0964
      4  N         -6.0530  -11.0430   40.6930 N.am    2  LEU2       -0.1978
      5  CA        -5.5950   -9.7940   40.0840 C.3     2  LEU2        0.1727
      6  C         -6.2070   -9.6220   38.7060 C.2     2  LEU2        0.2616
      7  O         -6.3130  -10.5870   37.9430 O.2     2  LEU2       -0.2715
      8  CB        -4.0710   -9.7780   39.9580 C.3     2  LEU2        0.0311
      9  CG        -3.2120   -9.9270   41.2100 C.3     2  LEU2        0.0022
     10  CD1       -1.7930  -10.3200   40.8230 C.3     2  LEU2        0.0001
     11  CD2       -3.2330   -8.6260   41.9980 C.3     2  LEU2        0.0001
     12  N         -6.6100   -8.3900   38.4020 N.am    3  ALA3       -0.1963
     13  CA        -7.1130   -8.0290   37.0820 C.3     3  ALA3        0.1728
     14  C         -6.2600   -6.9150   36.4920 C.2     3  ALA3        0.2616
     15  O         -5.8490   -5.9940   37.2060 O.2     3  ALA3       -0.2715
     16  CB        -8.5620   -7.5870   37.1610 C.3     3  ALA3        0.0334
     17  N         -5.9980   -7.0030   35.1890 N.am    4  ALA4       -0.1963
     18  CA        -5.3370   -5.9230   34.4690 C.3     4  ALA4        0.1728
     19  C         -6.0960   -4.6360   34.7420 C.2     4  ALA4        0.2612
     20  O         -7.3230   -4.5670   34.5720 O.2     4  ALA4       -0.2715
     21  CB        -5.3010   -6.2150   32.9680 C.3     4  ALA4        0.0334
     22  C         -5.2910   -1.2810   34.7030 C.3     5  GLN5        0.1719
     23  CD        -6.5410   -2.0270   39.2870 C.2     5  GLN5        0.2258
     24  CG        -6.9050   -2.1250   37.8340 C.3     5  GLN5        0.0871
     25  N         -5.3610   -3.6310   35.2070 N.am    5  GLN5       -0.2031
     26  OE1       -5.4640   -1.5610   39.6490 O.2     5  GLN5       -0.2749
     27  NE2       -7.4620   -2.4800   40.1420 N.am    5  GLN5       -0.2760
     28  CH1       -8.7480   -3.0380   39.7240 C.3     5  GLN5        0.1149
     29  CH2       -7.2680   -2.4600   41.5850 C.3     5  GLN5        0.1149
     30  CA        -5.9350   -2.3430   35.5590 C.3     5  GLN5        0.1261
     31  CB        -5.6550   -2.0320   37.0230 C.3     5  GLN5        0.0338
     32  O         -5.8340    0.0720   34.5760 O.3     5  GLN5       -0.2213
     33  C1        -4.8440   -1.6300   33.2470 C.3     6  CF06        0.0373
@<TRIPOS>BOND
     1    21    18    1
     2    33    22    1
     3    18    19    1
     4    18    17    1
     5    20    19    2
     6    32    22    1
     7    22    30    1
     8    19    25   am
     9    17    14   am
    10    25    30    1
    11    30    31    1
    12    14    13    1
    13    14    15    2
    14    31    24    1
    15    13    16    1
    16    13    12    1
    17    24    23    1
    18     7     6    2
    19    12     6   am
    20     6     5    1
    21    23    26    2
    22    23    27   am
    23    28    27    1
    24     8     5    1
    25     8     9    1
    26     5     4    1
    27    27    29    1
    28     4     1   am
    29    10     9    1
    30     9    11    1
    31     1     2    2
    32     1     3    1
