@<TRIPOS>MOLECULE
2h9h_BBL_A_1.pdb
 16 16 0 0 0
SMALL
GASTEIGER

@<TRIPOS>ATOM
      1  OG2       15.8310   16.1500   35.3060 O.co2 901  BBL901     -0.2437
      2  CB2       16.8400   15.6940   35.8960 C.2   901  BBL901      0.3843
      3  OG1       17.9310   16.3330   35.9400 O.co2 901  BBL901     -0.2437
      4  CA        16.7330   14.3240   36.5310 C.3   901  BBL901      0.2012
      5  CBZ       15.4920   14.1310   37.4210 C.3   901  BBL901      0.0358
      6  N         17.9260   13.9770   37.2760 N.am  901  BBL901     -0.1589
      7  C         18.9430   13.3270   36.7220 C.2   901  BBL901      0.4219
      8  O         18.9760   12.9510   35.5500 O.2   901  BBL901     -0.2245
      9  OEZ       20.0640   13.0690   37.5990 O.3   901  BBL901     -0.4285
     10  CB        21.3760   12.8590   37.0790 C.3   901  BBL901      0.2368
     11  CG        22.3950   13.3270   38.0850 C.ar  901  BBL901      0.0213
     12  CD1       23.6740   12.7700   38.0720 C.ar  901  BBL901     -0.0007
     13  CE1       24.6250   13.1950   38.9960 C.ar  901  BBL901     -0.0002
     14  CZ        24.2900   14.1780   39.9240 C.ar  901  BBL901     -0.0000
     15  CE2       23.0130   14.7400   39.9420 C.ar  901  BBL901     -0.0002
     16  CD2       22.0610   14.3120   39.0190 C.ar  901  BBL901     -0.0007
@<TRIPOS>BOND
     1     1     2   ar
     2     8     7    2
     3     2     3   ar
     4     2     4    1
     5     4     6    1
     6     4     5    1
     7     7     6   am
     8     7     9    1
     9    10     9    1
    10    10    11    1
    11    12    11   ar
    12    12    13   ar
    13    11    16   ar
    14    13    14   ar
    15    16    15   ar
    16    14    15   ar
