@<TRIPOS>MOLECULE
2h9j_MM5_A_1.pdb
 15 18 0 0 0
SMALL
GASTEIGER

@<TRIPOS>ATOM
      1  C13        0.3400   28.2420   34.0410 C.2   201  MM5201      0.0000
      2  N14        1.2140   27.1450   33.6170 N.pl3 201  MM5201      0.0000
      3  C1         2.2890   27.3350   32.6500 C.3   201  MM5201      0.0000
      4 NI1         0.8640   25.3400   34.4250 Ni    201  MM5201      0.0000
      5  C12       -0.5680   27.8210   35.2210 C.2   201  MM5201      0.0000
      6  N11       -0.5110   26.3750   35.4580 N.pl3 201  MM5201      0.0000
      7  C10       -1.4080   25.6940   36.3880 C.3   201  MM5201      0.0000
      8  C9        -0.5570   24.6300   37.0810 C.3   201  MM5201      0.0000
      9  C8        -0.4780   23.3260   36.2870 C.3   201  MM5201      0.0000
     10  N7         0.5170   23.5300   35.2360 N.3   201  MM5201      0.0000
     11  C6         1.3250   22.4230   34.7180 C.3   201  MM5201      0.0000
     12  C5         2.0360   22.8310   33.4090 C.3   201  MM5201      0.0000
     13  N4         2.1660   24.2850   33.3190 N.3   201  MM5201      0.0000
     14  C3         3.1570   24.9320   32.4680 C.3   201  MM5201      0.0000
     15  C2         3.3740   26.3320   33.0440 C.3   201  MM5201      0.0000
@<TRIPOS>BOND
     1    14    15    1
     2    14    13    1
     3     3    15    1
     4     3     2    1
     5    13    12    1
     6    13     4    1
     7    12    11    1
     8     2     1    1
     9     2     4    1
    10     1     5    2
    11     4    10    1
    12     4     6    1
    13    11    10    1
    14     5     6    1
    15    10     9    1
    16     6     7    1
    17     9     8    1
    18     7     8    1
