@<TRIPOS>MOLECULE
2h9k_MM6_A_1.pdb
 15 18 0 0 0
SMALL
GASTEIGER

@<TRIPOS>ATOM
      1  C13        2.1260   23.4520   32.6060 C.3   201  MM6201      0.0000
      2  N14        1.6040   23.3260   33.9670 N.3   201  MM6201      0.0000
      3  C1         0.8670   22.1660   34.4430 C.3   201  MM6201      0.0000
      4 NI1         1.9860   24.8220   35.2470 Ni    201  MM6201      0.0000
      5  C12        3.1800   24.5790   32.5820 C.3   201  MM6201      0.0000
      6  N11        2.7670   25.5760   33.5630 N.3   201  MM6201      0.0000
      7  C10        2.8300   27.0140   33.3190 C.3   201  MM6201      0.0000
      8  C9         1.7070   27.6850   34.1260 C.3   201  MM6201      0.0000
      9  C8         0.3280   27.0280   34.0200 C.3   201  MM6201      0.0000
     10  N7         0.3470   25.9660   35.0220 N.3   201  MM6201      0.0000
     11  C6        -0.7770   25.7050   35.9250 C.3   201  MM6201      0.0000
     12  C5        -0.2720   24.8720   37.1220 C.3   201  MM6201      0.0000
     13  N4         0.7800   23.9970   36.6190 N.3   201  MM6201      0.0000
     14  C3         0.9080   22.6000   37.0060 C.3   201  MM6201      0.0000
     15  C2         1.4990   21.8540   35.8040 C.3   201  MM6201      0.0000
@<TRIPOS>BOND
     1     5     1    1
     2     5     6    1
     3     1     2    1
     4     7     6    1
     5     7     8    1
     6     6     4    1
     7     2     3    1
     8     2     4    1
     9     9     8    1
    10     9    10    1
    11     3    15    1
    12    10     4    1
    13    10    11    1
    14     4    13    1
    15    15    14    1
    16    11    12    1
    17    13    14    1
    18    13    12    1
