@<TRIPOS>MOLECULE
2h9m_III_B_1.pdb
 45 44 0 0 0
SMALL
GASTEIGER

@<TRIPOS>ATOM
      1  N         -4.4370  -10.1860    9.9610 N.3     1  ALA1       -0.1231
      2  CA        -4.1930   -9.3120    8.7830 C.3     1  ALA1        0.1694
      3  C         -4.1600   -7.8300    9.1600 C.2     1  ALA1        0.2592
      4  O         -4.4280   -7.4560   10.3060 O.2     1  ALA1       -0.2718
      5  CB        -5.2360   -9.5810    7.6880 C.3     1  ALA1        0.0304
      6  N         -3.8030   -7.0040    8.1780 N.am    2  ARG2       -0.1966
      7  CA        -3.7030   -5.5540    8.3150 C.3     2  ARG2        0.1729
      8  C         -4.9560   -4.9380    8.9420 C.2     2  ARG2        0.2617
      9  O         -4.8790   -3.9100    9.6110 O.2     2  ARG2       -0.2715
     10  CB        -3.4520   -4.9550    6.9260 C.3     2  ARG2        0.0348
     11  CG        -3.2680   -3.4520    6.8650 C.3     2  ARG2        0.0492
     12  CD        -3.0840   -2.9990    5.4080 C.3     2  ARG2        0.2205
     13  NE        -1.9270   -3.6300    4.7650 N.pl3   2  ARG2       -0.0865
     14  CZ        -0.7050   -3.0980    4.7130 C.cat   2  ARG2        0.5346
     15  NH1        0.2780   -3.7530    4.1000 N.pl3   2  ARG2        0.1354
     16  NH2       -0.4560   -1.9100    5.2560 N.pl3   2  ARG2        0.1354
     17  N         -6.0940   -5.5980    8.7370 N.am    3  THR3       -0.1937
     18  CA        -7.4090   -5.1100    9.1830 C.3     3  THR3        0.2028
     19  C         -7.6660   -5.2570   10.6950 C.2     3  THR3        0.2642
     20  O         -8.6950   -4.7910   11.2070 O.2     3  THR3       -0.2714
     21  CB        -8.5290   -5.8270    8.4130 C.3     3  THR3        0.1808
     22  OG1       -8.3990   -7.2420    8.6020 O.3     3  THR3       -0.2208
     23  CG2       -8.4320   -5.5130    6.9290 C.3     3  THR3        0.0379
     24  N         -6.7350   -5.9100   11.3920 N.am    4  LYS4       -0.1963
     25  CA        -6.8010   -6.0720   12.8480 C.3     4  LYS4        0.1728
     26  C         -5.5640   -5.4740   13.4920 C.2     4  LYS4        0.2616
     27  O         -4.4420   -5.6540   12.9960 O.2     4  LYS4       -0.2715
     28  CB        -6.8760   -7.5440   13.2380 C.3     4  LYS4        0.0311
     29  CG        -8.1730   -8.2450   12.9180 C.3     4  LYS4        0.0038
     30  CD        -8.1280   -9.6490   13.5050 C.3     4  LYS4        0.0206
     31  CE        -9.0090  -10.6070   12.7450 C.3     4  LYS4        0.1093
     32  NZ        -8.8290  -12.0080   13.2110 N.3     4  LYS4       -0.1314
     33  N         -5.7660   -4.7950   14.6160 N.am    5  GLN5       -0.1963
     34  CA        -4.6740   -4.1320   15.3200 C.3     5  GLN5        0.1733
     35  C         -3.6750   -5.1410   15.8850 C.2     5  GLN5        0.2616
     36  O         -4.0600   -6.2040   16.3770 O.2     5  GLN5       -0.2715
     37  CB        -5.2270   -3.2420   16.4260 C.3     5  GLN5        0.0408
     38  CG        -4.2320   -2.2250   16.9510 C.3     5  GLN5        0.0908
     39  CD        -4.6660   -1.6140   18.2630 C.2     5  GLN5        0.2608
     40  OE1       -3.8360   -1.3310   19.1270 O.2     5  GLN5       -0.2717
     41  NE2       -5.9710   -1.4010   18.4210 N.am    5  GLN5       -0.0878
     42  N         -2.3930   -4.8020   15.7860 N.am    6  THR6       -0.1955
     43  CA        -1.3060   -5.6750   16.2310 C.3     6  THR6        0.1869
     44  C         -0.0610   -4.8520   16.5570 C.2     6  THR6        0.2309
     45  O          1.0670   -5.3400   16.4410 O.2     6  THR6       -0.2863
@<TRIPOS>BOND
     1    15    14    1
     2    14    13    2
     3    14    16    1
     4    13    12    1
     5    12    11    1
     6    11    10    1
     7    10     7    1
     8    23    21    1
     9     5     2    1
    10     6     7    1
    11     6     3   am
    12     7     8    1
    13    21    22    1
    14    21    18    1
    15    17     8   am
    16    17    18    1
    17     2     3    1
    18     2     1    1
    19     8     9    2
    20     3     4    2
    21    18    19    1
    22    19    20    2
    23    19    24   am
    24    24    25    1
    25    31    32    1
    26    31    30    1
    27    25    28    1
    28    25    26    1
    29    29    28    1
    30    29    30    1
    31    27    26    2
    32    26    33   am
    33    33    34    1
    34    34    35    1
    35    34    37    1
    36    42    35   am
    37    42    43    1
    38    35    36    2
    39    43    44    1
    40    37    38    1
    41    45    44    2
    42    38    39    1
    43    39    41   am
    44    39    40    2
