@<TRIPOS>MOLECULE
2h9n_III_B_1.pdb
 38 37 0 0 0
SMALL
GASTEIGER

@<TRIPOS>ATOM
      1  N          4.6750    8.9560    8.5310 N.3     1  ALA1       -0.1231
      2  CA         4.2180    8.3430    9.7870 C.3     1  ALA1        0.1694
      3  C          4.3670    6.8480    9.6850 C.2     1  ALA1        0.2592
      4  O          4.6750    6.2110   10.6790 O.2     1  ALA1       -0.2718
      5  CB         2.7290    8.7210   10.0910 C.3     1  ALA1        0.0304
      6  N          4.1510    6.2910    8.4860 N.am    2  ARG2       -0.1966
      7  CA         4.1060    4.8280    8.2890 C.3     2  ARG2        0.1729
      8  C          5.3610    4.1590    8.8070 C.2     2  ARG2        0.2617
      9  O          5.2960    3.0870    9.3970 O.2     2  ARG2       -0.2715
     10  CB         3.9000    4.4560    6.8030 C.3     2  ARG2        0.0348
     11  CG         3.6480    2.9600    6.5740 C.3     2  ARG2        0.0492
     12  CD         3.4550    2.5660    5.0950 C.3     2  ARG2        0.2205
     13  NE         2.2580    3.1470    4.4810 N.pl3   2  ARG2       -0.0865
     14  CZ         1.0440    2.6080    4.5460 C.cat   2  ARG2        0.5346
     15  NH1        0.0160    3.1940    3.9560 N.pl3   2  ARG2        0.1354
     16  NH2        0.8590    1.4640    5.1830 N.pl3   2  ARG2        0.1354
     17  N          6.5000    4.8170    8.6000 N.am    3  THR3       -0.1937
     18  CA         7.8100    4.2530    8.9510 C.3     3  THR3        0.2028
     19  C          8.1540    4.3110   10.4410 C.2     3  THR3        0.2642
     20  O          9.2620    3.9130   10.8460 O.2     3  THR3       -0.2714
     21  CB         8.9230    4.9720    8.1880 C.3     3  THR3        0.1808
     22  OG1        9.0870    6.2810    8.7320 O.3     3  THR3       -0.2208
     23  CG2        8.5940    5.0640    6.6920 C.3     3  THR3        0.0379
     24  N          7.2100    4.8370   11.2350 N.am    4  LYS4       -0.1963
     25  CA         7.2900    4.8990   12.6940 C.3     4  LYS4        0.1728
     26  CB         7.5380    6.3390   13.1310 C.3     4  LYS4        0.0311
     27  CG         8.9680    6.7760   12.8300 C.3     4  LYS4        0.0023
     28  C          5.9920    4.3860   13.2680 C.2     4  LYS4        0.2616
     29  O          4.9330    4.5780   12.6570 O.2     4  LYS4       -0.2715
     30  N          6.0560    3.7210   14.4280 N.am    5  GLN5       -0.1977
     31  CA         4.8690    3.1140   15.0700 C.3     5  GLN5        0.1601
     32  C          4.0730    4.0490   15.9930 C.2     5  GLN5        0.2287
     33  O          4.2950    5.2700   16.0340 O.2     5  GLN5       -0.2864
     34  CB         5.2440    1.8220   15.8210 C.3     5  GLN5        0.0394
     35  CG         5.9870    2.0200   17.1340 C.3     5  GLN5        0.0908
     36  CD         5.9370    0.7970   18.0530 C.2     5  GLN5        0.2608
     37  OE1        6.9780    0.3210   18.5100 O.2     5  GLN5       -0.2717
     38  NE2        4.7270    0.2920   18.3380 N.am    5  GLN5       -0.0878
@<TRIPOS>BOND
     1    15    14    1
     2    13    14    2
     3    13    12    1
     4    14    16    1
     5    12    11    1
     6    11    10    1
     7    23    21    1
     8    10     7    1
     9    21    22    1
    10    21    18    1
    11     7     6    1
    12     7     8    1
    13     6     3   am
    14     1     2    1
    15    17     8   am
    16    17    18    1
    17     8     9    2
    18    18    19    1
    19     3     2    1
    20     3     4    2
    21     2     5    1
    22    19    20    2
    23    19    24   am
    24    24    25    1
    25    29    28    2
    26    25    26    1
    27    25    28    1
    28    27    26    1
    29    28    30   am
    30    30    31    1
    31    31    34    1
    32    31    32    1
    33    34    35    1
    34    32    33    2
    35    35    36    1
    36    36    38   am
    37    36    37    2
