@<TRIPOS>MOLECULE
2h9p_III_B_1.pdb
 28 27 0 0 0
SMALL
GASTEIGER

@<TRIPOS>ATOM
      1  N        -28.0880   21.6430    8.6720 N.3     1  ALA1       -0.1231
      2  CA       -27.4940   20.6720    7.6830 C.3     1  ALA1        0.1694
      3  C        -26.0110   20.9460    7.4560 C.2     1  ALA1        0.2592
      4  O        -25.2100   19.9990    7.3840 O.2     1  ALA1       -0.2718
      5  CB       -28.2380   20.6970    6.3350 C.3     1  ALA1        0.0304
      6  N        -25.6540   22.2320    7.3380 N.am    2  ARG2       -0.1966
      7  CA       -24.2510   22.6780    7.2060 C.3     2  ARG2        0.1729
      8  C        -23.3270   21.9530    8.1870 C.2     2  ARG2        0.2617
      9  O        -22.1840   21.5890    7.8750 O.2     2  ARG2       -0.2715
     10  CB       -24.1560   24.1940    7.4520 C.3     2  ARG2        0.0348
     11  CG       -22.8120   24.7880    7.1120 C.3     2  ARG2        0.0492
     12  CD       -22.7810   26.2760    7.3220 C.3     2  ARG2        0.2205
     13  NE       -23.6150   27.0360    6.3730 N.pl3   2  ARG2       -0.0865
     14  CZ       -23.1740   27.5350    5.2230 C.cat   2  ARG2        0.5346
     15  NH1      -23.9970   28.2350    4.4300 N.pl3   2  ARG2        0.1354
     16  NH2      -21.9020   27.3270    4.8540 N.pl3   2  ARG2        0.1354
     17  N        -23.8560   21.7390    9.3810 N.am    3  THR3       -0.1937
     18  CA       -23.1180   21.1690   10.4940 C.3     3  THR3        0.2028
     19  C        -22.9960   19.6360   10.4010 C.2     3  THR3        0.2642
     20  O        -22.4570   18.9860   11.3190 O.2     3  THR3       -0.2714
     21  CB       -23.7970   21.5750   11.8150 C.3     3  THR3        0.1808
     22  OG1      -25.0750   20.9350   11.9060 O.3     3  THR3       -0.2208
     23  CG2      -23.9640   23.1200   11.8870 C.3     3  THR3        0.0379
     24  N        -23.5030   19.0690    9.3030 N.am    4  LYS4       -0.1977
     25  CA       -23.3600   17.6250    9.0230 C.3     4  LYS4        0.1597
     26  CB       -24.7110   16.9270    8.8570 C.3     4  LYS4        0.0319
     27  C        -22.5100   17.3950    7.7990 C.2     4  LYS4        0.2287
     28  O        -22.5800   18.1620    6.8220 O.2     4  LYS4       -0.2864
@<TRIPOS>BOND
     1    15    14    1
     2    16    14    1
     3    14    13    2
     4     5     2    1
     5    13    12    1
     6    28    27    2
     7    11    12    1
     8    11    10    1
     9     7     6    1
    10     7    10    1
    11     7     8    1
    12     6     3   am
    13     4     3    2
    14     3     2    1
    15     2     1    1
    16    27    25    1
    17     9     8    2
    18     8    17   am
    19    26    25    1
    20    25    24    1
    21    24    19   am
    22    17    18    1
    23    19    18    1
    24    19    20    2
    25    18    21    1
    26    21    23    1
    27    21    22    1
