@<TRIPOS>MOLECULE
2h9t_III_I_1.pdb
 29 30 0 0 0
SMALL
GASTEIGER

@<TRIPOS>ATOM
      1  N          0.3290    5.4420   30.6110 N.3     1  PHE1       -0.1228
      2  CA         1.2870    5.2470   29.4820 C.3     1  PHE1        0.1721
      3  C          0.7570    6.0400   28.2760 C.2     1  PHE1        0.2437
      4  O          0.9620    7.2600   28.2490 O.2     1  PHE1       -0.2733
      5  CB         1.5560    3.7630   29.2490 C.3     1  PHE1        0.0547
      6  CG         2.4850    3.4590   28.0960 C.ar    1  PHE1       -0.0202
      7  CD1        2.3170    2.2720   27.3620 C.ar    1  PHE1       -0.0042
      8  CD2        3.5250    4.3190   27.7610 C.ar    1  PHE1       -0.0042
      9  CE1        3.1560    1.9860   26.2920 C.ar    1  PHE1       -0.0003
     10  CE2        4.3630    4.0390   26.6870 C.ar    1  PHE1       -0.0003
     11  CZ         4.1720    2.8970   25.9440 C.ar    1  PHE1       -0.0000
     12  N         -0.0250    5.4210   27.3580 N.am    2  PRO2       -0.2718
     13  CA        -0.3350    6.1790   26.1400 C.3     2  PRO2        0.1535
     14  C         -1.2290    7.3540   26.4730 C.2     2  PRO2        0.2598
     15  O         -2.2250    7.2000   27.1780 O.2     2  PRO2       -0.2715
     16  CB        -1.1340    5.1680   25.2910 C.3     2  PRO2        0.0310
     17  CG        -0.9290    3.8110   25.9770 C.3     2  PRO2        0.0237
     18  CD        -0.7480    4.1270   27.3980 C.3     2  PRO2        0.0939
     19  N         -0.9220    8.5320   25.9650 N.am    3  ARG3       -0.1978
     20  CA        -1.8360    9.6610   26.2080 C.3     3  ARG3        0.1597
     21  C         -2.8870    9.9340   25.0900 C.2     3  ARG3        0.2287
     22  O         -3.6460   10.9180   25.1460 O.2     3  ARG3       -0.2864
     23  CB        -1.0530   10.8930   26.6040 C.3     3  ARG3        0.0334
     24  CG        -0.4100   10.7240   27.9480 C.3     3  ARG3        0.0492
     25  CD         0.2500   12.0100   28.3900 C.3     3  ARG3        0.2205
     26  NE         0.6740   11.8990   29.7840 N.pl3   3  ARG3       -0.0865
     27  CZ         1.5900   12.6710   30.3460 C.cat   3  ARG3        0.5346
     28  NH1        2.2030   13.6360   29.6510 N.pl3   3  ARG3        0.1354
     29  NH2        1.8920   12.4870   31.6030 N.pl3   3  ARG3        0.1354
@<TRIPOS>BOND
     1    21    22    2
     2    21    20    1
     3    16    17    1
     4    16    13    1
     5    11     9   ar
     6    11    10   ar
     7    19    20    1
     8    19    14   am
     9    17    18    1
    10    13    14    1
    11    13    12    1
    12    20    23    1
    13     9     7   ar
    14    14    15    2
    15    23    24    1
    16    10     8   ar
    17    12    18    1
    18    12     3   am
    19     7     6   ar
    20     8     6   ar
    21    24    25    1
    22     6     5    1
    23     4     3    2
    24     3     2    1
    25    25    26    1
    26     5     2    1
    27     2     1    1
    28    28    27    1
    29    26    27    2
    30    27    29    1
