@<TRIPOS>MOLECULE
2h9v_Y27_A_1.pdb
 18 19 0 0 0
SMALL
GASTEIGER

@<TRIPOS>ATOM
      1  O23        3.7250  -16.4840  -30.0010 O.2   500  Y27500     -0.2730
      2  C22        3.4890  -16.7510  -31.1960 C.2   500  Y27500      0.2451
      3  C31        4.0700  -17.9500  -31.8670 C.3   500  Y27500      0.0786
      4  C36        5.5750  -17.9560  -31.5950 C.3   500  Y27500      0.0092
      5  C35        6.1650  -19.2350  -32.1770 C.3   500  Y27500      0.0019
      6  C34        5.6010  -20.4170  -31.3800 C.3   500  Y27500      0.0176
      7  C33        4.0870  -20.5360  -31.6540 C.3   500  Y27500      0.0019
      8  C32        3.3210  -19.1970  -31.3920 C.3   500  Y27500      0.0092
      9  C41        6.3930  -21.6930  -31.7510 C.3   500  Y27500      0.0918
     10  C42        6.5240  -21.7990  -33.2800 C.3   500  Y27500      0.0205
     11  N43        7.7500  -21.6870  -31.1020 N.3   500  Y27500     -0.1329
     12  N21        2.6660  -16.0460  -32.1290 N.am  500  Y27500     -0.1791
     13  C14        2.2060  -14.6900  -32.1410 C.ar  500  Y27500      0.0765
     14  C15        1.5460  -14.3100  -33.3220 C.ar  500  Y27500      0.0373
     15  C16        1.0760  -12.9840  -33.3700 C.ar  500  Y27500      0.1002
     16  N11        1.2460  -12.1140  -32.3470 N.ar  500  Y27500     -0.2422
     17  C12        1.8880  -12.4670  -31.2210 C.ar  500  Y27500      0.1002
     18  C13        2.3870  -13.7640  -31.0740 C.ar  500  Y27500      0.0373
@<TRIPOS>BOND
     1    15    14   ar
     2    15    16   ar
     3    14    13   ar
     4    10     9    1
     5    16    17   ar
     6     5     4    1
     7     5     6    1
     8    13    12    1
     9    13    18   ar
    10    12     2   am
    11     3     4    1
    12     3     8    1
    13     3     2    1
    14     9     6    1
    15     9    11    1
    16     7     8    1
    17     7     6    1
    18    17    18   ar
    19     2     1    2
