@<TRIPOS>MOLECULE
2h9y_NAF_A_1.pdb
 16 16 0 0 0
SMALL
GASTEIGER

@<TRIPOS>ATOM
      1  C1        28.2200   18.7180   13.7610 C.ar  951  NAF951      0.0341
      2  C2        28.3250   17.3620   13.4340 C.ar  951  NAF951      0.0117
      3  C3        29.2220   16.9320   12.4370 C.ar  951  NAF951      0.0174
      4  C4        30.0030   17.8530   11.7350 C.ar  951  NAF951     -0.0015
      5  C5        29.8880   19.2010   12.0600 C.ar  951  NAF951      0.0010
      6  C6        29.0170   19.6240   13.0600 C.ar  951  NAF951      0.0132
      7  C1'       29.2360   15.4730   12.1910 C.3   951  NAF951      0.2684
      8  O1'       29.8870   14.7990   13.2760 O.3   951  NAF951     -0.2091
      9  C2'       29.7990   14.9500   10.8780 C.3   951  NAF951      0.4293
     10  F1'       31.0350   15.3360   10.7170 F     951  NAF951     -0.1670
     11  F2'       28.9950   15.3900    9.9410 F     951  NAF951     -0.1670
     12  F3'       29.7860   13.6340   10.8230 F     951  NAF951     -0.1670
     13  N1        27.3510   19.1500   14.8020 N.pl3 951  NAF951     -0.3512
     14  CM1       27.2740   20.6150   14.9120 C.3   951  NAF951      0.0960
     15  CM2       27.9230   18.6840   16.0760 C.3   951  NAF951      0.0960
     16  CM3       26.0000   18.5770   14.6280 C.3   951  NAF951      0.0960
@<TRIPOS>BOND
     1    11     9    1
     2    10     9    1
     3    12     9    1
     4     9     7    1
     5     4     5   ar
     6     4     3   ar
     7     5     6   ar
     8     7     3    1
     9     7     8    1
    10     3     2   ar
    11     6     1   ar
    12     2     1   ar
    13     1    13    1
    14    16    13    1
    15    13    14    1
    16    13    15    1
