@<TRIPOS>MOLECULE
2h9y_FUC_A_1.pdb
 10 10 0 0 0
SMALL
GASTEIGER

@<TRIPOS>ATOM
      1  C1        28.5560   37.0860    1.5260 C.3   545  FUC545      0.1776
      2  C2        29.3020   38.3910    1.8730 C.3   545  FUC545      0.2141
      3  C3        28.3610   39.5520    1.5710 C.3   545  FUC545      0.2172
      4  C4        27.0340   39.3440    2.3110 C.3   545  FUC545      0.2116
      5  C5        26.4170   37.9670    2.0350 C.3   545  FUC545      0.1483
      6  C6        25.1930   37.7780    2.9270 C.3   545  FUC545      0.0349
      7  O2        30.5180   38.4940    1.1610 O.3   545  FUC545     -0.2176
      8  O3        28.9550   40.7790    1.9390 O.3   545  FUC545     -0.2175
      9  O4        27.2120   39.5100    3.7070 O.3   545  FUC545     -0.2177
     10  O5        27.3450   36.9070    2.2430 O.3   545  FUC545     -0.3508
@<TRIPOS>BOND
     1     7     2    1
     2     1     2    1
     3     1    10    1
     4     3     2    1
     5     3     8    1
     6     3     4    1
     7     5    10    1
     8     5     4    1
     9     5     6    1
    10     4     9    1
