@<TRIPOS>MOLECULE
2ha0_CHH_A_1.pdb
 10 9 0 0 0
SMALL
GASTEIGER

@<TRIPOS>ATOM
      1  O7        31.7470   21.4190    8.9360 O.2   1602  CHH1602    -0.2960
      2  C5        32.3120   22.3540    9.4930 C.2   1602  CHH1602     0.1510
      3  C6        31.4890   23.3030   10.3020 C.3   1602  CHH1602     0.0722
      4  C4        33.8320   22.5200    9.3700 C.3   1602  CHH1602     0.0624
      5  C3        34.2960   23.9440    9.0780 C.3   1602  CHH1602    -0.0145
      6  C2        35.8250   23.9970    8.9820 C.3   1602  CHH1602    -0.0729
      7  N1        36.3470   25.1580    8.2280 N.4   1602  CHH1602     0.3857
      8  C9        35.6470   26.3800    8.6360 C.3   1602  CHH1602    -0.0960
      9  C10       36.1850   24.9470    6.7860 C.3   1602  CHH1602    -0.0960
     10  C8        37.7780   25.3540    8.5090 C.3   1602  CHH1602    -0.0960
@<TRIPOS>BOND
     1     9     7    1
     2     7    10    1
     3     7     8    1
     4     7     6    1
     5     1     2    2
     6     6     5    1
     7     5     4    1
     8     4     2    1
     9     2     3    1
