@<TRIPOS>MOLECULE
2ha0_FUC_A_1.pdb
 10 10 0 0 0
SMALL
GASTEIGER

@<TRIPOS>ATOM
      1  C1        27.3670   37.6180    1.6270 C.3   545  FUC545      0.1776
      2  C2        27.8750   39.0590    1.6700 C.3   545  FUC545      0.2141
      3  C3        26.9010   39.7710    0.7370 C.3   545  FUC545      0.2172
      4  C4        25.5130   39.6930    1.3770 C.3   545  FUC545      0.2116
      5  C5        25.0850   38.2480    1.6890 C.3   545  FUC545      0.1483
      6  C6        23.8800   38.2380    2.6270 C.3   545  FUC545      0.0349
      7  O2        29.2120   39.1400    1.2420 O.3   545  FUC545     -0.2176
      8  O3        27.2570   41.1120    0.4930 O.3   545  FUC545     -0.2175
      9  O4        25.4980   40.4600    2.5640 O.3   545  FUC545     -0.2177
     10  O5        26.1180   37.4450    2.2640 O.3   545  FUC545     -0.3508
@<TRIPOS>BOND
     1     8     3    1
     2     3     4    1
     3     3     2    1
     4     7     2    1
     5     4     5    1
     6     4     9    1
     7     1     2    1
     8     1    10    1
     9     5    10    1
    10     5     6    1
