@<TRIPOS>MOLECULE
2ha0_NWA_A_1.pdb
 10 9 0 0 0
SMALL
GASTEIGER

@<TRIPOS>ATOM
      1  N1        26.8280   19.2820   14.8480 N.4   601  NWA601      0.3857
      2  C2        27.5840   18.6770   13.7260 C.3   601  NWA601     -0.0732
      3  C3        27.6420   17.1440   13.6630 C.3   601  NWA601     -0.0197
      4  C5        28.8620   15.2690   12.3190 C.3   601  NWA601      0.1520
      5  O7        29.5670   14.9070   13.4990 O.3   601  NWA601     -0.2232
      6  C6        29.7540   14.9890   11.1030 C.3   601  NWA601      0.0355
      7  C8        26.9340   20.7490   14.6940 C.3   601  NWA601     -0.0960
      8  C9        27.4140   18.9470   16.1360 C.3   601  NWA601     -0.0960
      9  C10       25.4030   18.8860   14.8240 C.3   601  NWA601     -0.0960
     10  C4        28.3850   16.7400   12.3830 C.3   601  NWA601      0.0308
@<TRIPOS>BOND
     1     6     4    1
     2     4    10    1
     3     4     5    1
     4    10     3    1
     5     3     2    1
     6     2     1    1
     7     7     1    1
     8     9     1    1
     9     1     8    1
