@<TRIPOS>MOLECULE
2ha2_SCK_A_1.pdb
 20 19 0 0 0
SMALL
GASTEIGER

@<TRIPOS>ATOM
      1  O13       30.8670   23.0330   11.8530 O.2   901  SCK901     -0.2501
      2  C12       29.8630   22.3520   11.7430 C.2   901  SCK901      0.3175
      3  O14       28.9800   22.2070   12.8820 O.3   901  SCK901     -0.4508
      4  C15       28.6210   20.9060   13.3250 C.3   901  SCK901      0.1864
      5  C16       27.3260   20.9930   14.1140 C.3   901  SCK901     -0.0251
      6  N17       26.8500   19.6300   14.3600 N.4   901  SCK901      0.3882
      7  C20       27.6200   19.0250   15.4500 C.3   901  SCK901     -0.0958
      8  C19       25.4310   19.6670   14.7190 C.3   901  SCK901     -0.0958
      9  C18       27.0310   18.8390   13.1410 C.3   901  SCK901     -0.0958
     10  C11       29.5360   21.6720   10.4400 C.3   901  SCK901      0.1212
     11  C6        30.4120   22.2660    9.3520 C.3   901  SCK901      0.1212
     12  C5        31.7770   21.6440    9.4390 C.2   901  SCK901      0.3175
     13  O7        31.8980   20.4420    9.5730 O.2   901  SCK901     -0.2501
     14  O4        32.9620   22.4730    9.3660 O.3   901  SCK901     -0.4508
     15  C3        34.1550   21.9430    8.8010 C.3   901  SCK901      0.1864
     16  C2        34.9900   23.0740    8.2180 C.3   901  SCK901     -0.0251
     17  N1        35.7940   23.6760    9.2800 N.4   901  SCK901      0.3882
     18  C8        36.4640   22.6120   10.0320 C.3   901  SCK901     -0.0958
     19  C9        36.7930   24.5730    8.6970 C.3   901  SCK901     -0.0958
     20  C10       34.9250   24.4430   10.1730 C.3   901  SCK901     -0.0958
@<TRIPOS>BOND
     1    16    15    1
     2    16    17    1
     3    19    17    1
     4    15    14    1
     5    17    18    1
     6    17    20    1
     7    11    12    1
     8    11    10    1
     9    14    12    1
    10    12    13    2
    11    10     2    1
    12     2     1    2
    13     2     3    1
    14     3     4    1
    15     9     6    1
    16     4     5    1
    17     5     6    1
    18     6     8    1
    19     6     7    1
