@<TRIPOS>MOLECULE
2ha2_SCU_A_1.pdb
 13 12 0 0 0
SMALL
GASTEIGER

@<TRIPOS>ATOM
      1  O13       30.7760   19.2430   11.3050 O.2   902  SCU902     -0.2501
      2  C12       29.9370   18.8500   12.1010 C.2   902  SCU902      0.3174
      3  C11       29.1120   17.6030   11.8680 C.3   902  SCU902      0.1178
      4  C6        29.8950   16.3470   11.5100 C.3   902  SCU902      0.0839
      5  C5        29.3750   15.2980   12.4610 C.2   902  SCU902      0.2080
      6  O4        30.0280   15.0770   13.4770 O.2   902  SCU902     -0.2883
      7  O14       29.6920   19.6420   13.3050 O.3   902  SCU902     -0.4508
      8  C15       28.7350   20.7000   13.2240 C.3   902  SCU902      0.1864
      9  C16       27.6490   20.7820   14.3080 C.3   902  SCU902     -0.0251
     10  N17       26.9300   19.5200   14.5640 N.4   902  SCU902      0.3882
     11  C20       27.6200   18.8250   15.6610 C.3   902  SCU902     -0.0958
     12  C19       25.5410   19.7720   14.9550 C.3   902  SCU902     -0.0958
     13  C18       26.8220   18.7100   13.3510 C.3   902  SCU902     -0.0958
@<TRIPOS>BOND
     1     1     2    2
     2     4     3    1
     3     4     5    1
     4     3     2    1
     5     2     7    1
     6     5     6    2
     7     8     7    1
     8     8     9    1
     9    13    10    1
    10     9    10    1
    11    10    12    1
    12    10    11    1
