@<TRIPOS>MOLECULE
2ha4_ACH_A_1.pdb
 10 9 0 0 0
SMALL
GASTEIGER

@<TRIPOS>ATOM
      1  N1        36.3000   24.2130    9.1880 N.4   545  ACH545      0.3882
      2  C2        35.6520   23.3870    8.1650 C.3   545  ACH545     -0.0251
      3  C3        34.8950   22.2170    8.7860 C.3   545  ACH545      0.1864
      4  O4        33.7500   22.7390    9.4640 O.3   545  ACH545     -0.4508
      5  C5        32.4630   22.0710    9.4200 C.2   545  ACH545      0.3175
      6  O7        32.4160   20.9400    8.9750 O.2   545  ACH545     -0.2501
      7  C6        31.2520   22.7840    9.9280 C.3   545  ACH545      0.1212
      8  C8        35.4320   25.3420    9.5620 C.3   545  ACH545     -0.0958
      9  C9        37.5710   24.6940    8.6300 C.3   545  ACH545     -0.0958
     10  C10       36.5760   23.4290   10.3950 C.3   545  ACH545     -0.0958
@<TRIPOS>BOND
     1     2     3    1
     2     2     1    1
     3     9     1    1
     4     3     4    1
     5     6     5    2
     6     1     8    1
     7     1    10    1
     8     5     4    1
     9     5     7    1
