@<TRIPOS>MOLECULE
2ha5_AT3_A_1.pdb
 10 9 0 0 0
SMALL
GASTEIGER

@<TRIPOS>ATOM
      1  N1        26.9090   18.5890   14.9250 N.4   1901  AT31901     0.3863
      2  C2        27.4900   19.9370   14.9680 C.3   1901  AT31901    -0.0610
      3  C3        28.0000   20.5080   13.6480 C.3   1901  AT31901     0.0428
      4  C5        29.5450   19.0820   11.8600 C.2   1901  AT31901     0.1991
      5  O7        28.4790   19.0370   11.3080 O.2   1901  AT31901    -0.2845
      6  C6        30.7480   18.3940   11.3190 C.3   1901  AT31901     0.0845
      7  C8        25.4720   18.6650   14.7640 C.3   1901  AT31901    -0.0959
      8  C9        27.4390   17.7420   13.8710 C.3   1901  AT31901    -0.0959
      9  C10       27.1920   17.9440   16.1990 C.3   1901  AT31901    -0.0959
     10  S24       29.6340   19.9520   13.2590 S.3   1901  AT31901    -0.0794
@<TRIPOS>BOND
     1     5     4    2
     2     6     4    1
     3     4    10    1
     4    10     3    1
     5     3     2    1
     6     8     1    1
     7     7     1    1
     8     1     2    1
     9     1     9    1
