@<TRIPOS>MOLECULE
2ha6_SCK_A_1.pdb
 20 19 0 0 0
SMALL
GASTEIGER

@<TRIPOS>ATOM
      1  O13       29.8800   22.7060   11.9510 O.2   901  SCK901     -0.2501
      2  C12       29.0470   21.7970   11.9270 C.2   901  SCK901      0.3175
      3  O14       28.4480   21.3820   13.1960 O.3   901  SCK901     -0.4508
      4  C15       27.1210   20.8690   13.3510 C.3   901  SCK901      0.1864
      5  C16       27.1330   19.3310   13.2960 C.3   901  SCK901     -0.0251
      6  N17       26.6560   18.7150   14.5420 N.4   901  SCK901      0.3882
      7  C20       26.7300   17.2370   14.4320 C.3   901  SCK901     -0.0958
      8  C19       27.5340   19.1400   15.6510 C.3   901  SCK901     -0.0958
      9  C18       25.2510   19.1210   14.7480 C.3   901  SCK901     -0.0958
     10  C11       28.6840   21.1190   10.6200 C.3   901  SCK901      0.1212
     11  C6        29.4930   21.6940    9.4390 C.3   901  SCK901      0.1212
     12  C5        30.9080   21.1880    9.5120 C.2   901  SCK901      0.3175
     13  O7        31.0890   20.0260    9.8600 O.2   901  SCK901     -0.2501
     14  O4        32.0310   22.0710    9.2110 O.3   901  SCK901     -0.4508
     15  C3        33.3940   21.6170    9.3760 C.3   901  SCK901      0.1864
     16  C2        34.4310   22.4140    8.5670 C.3   901  SCK901     -0.0251
     17  N1        35.2390   23.3440    9.3830 N.4   901  SCK901      0.3882
     18  C8        34.3670   24.4050    9.8950 C.3   901  SCK901     -0.0958
     19  C9        35.8800   22.6350   10.4990 C.3   901  SCK901     -0.0958
     20  C10       36.2890   23.9380    8.5470 C.3   901  SCK901     -0.0958
@<TRIPOS>BOND
     1    20    17    1
     2    16    15    1
     3    16    17    1
     4    14    15    1
     5    14    12    1
     6    17    18    1
     7    17    19    1
     8    11    12    1
     9    11    10    1
    10    12    13    2
    11    10     2    1
    12     2     1    2
    13     2     3    1
    14     3     4    1
    15     5     4    1
    16     5     6    1
    17     7     6    1
    18     6     9    1
    19     6     8    1
