@<TRIPOS>MOLECULE
2ha7_BCH_A_1.pdb
 12 11 0 0 0
SMALL
GASTEIGER

@<TRIPOS>ATOM
      1  C21       30.2480   22.1770   10.1840 C.3   910  BCH910      0.0005
      2  C20       31.6850   22.0450    9.7340 C.3   910  BCH910      0.0087
      3  C19       32.4640   23.3310    9.9890 C.3   910  BCH910      0.0759
      4  C18       33.8420   23.3260    9.3580 C.2   910  BCH910      0.1986
      5  O12       34.0920   22.6290    8.3860 O.2   910  BCH910     -0.2845
      6  S17       35.0340   24.3000   10.0000 S.3   910  BCH910     -0.0794
      7  C16       36.2660   24.5110    8.7490 C.3   910  BCH910      0.0428
      8  C15       36.5530   26.0030    8.5430 C.3   910  BCH910     -0.0610
      9  N14       37.9290   26.3160    8.0860 N.4   910  BCH910      0.3863
     10  C13       38.9220   26.0530    9.1420 C.3   910  BCH910     -0.0959
     11  C22       38.0050   27.7530    7.7600 C.3   910  BCH910     -0.0959
     12  C11       38.2700   25.5340    6.8800 C.3   910  BCH910     -0.0959
@<TRIPOS>BOND
     1    12     9    1
     2    11     9    1
     3     9     8    1
     4     9    10    1
     5     5     4    2
     6     8     7    1
     7     7     6    1
     8     4     3    1
     9     4     6    1
    10     2     3    1
    11     2     1    1
