@<TRIPOS>MOLECULE
2ha8_SAH_A_1.pdb
 26 28 0 0 0
SMALL
GASTEIGER

@<TRIPOS>ATOM
      1  N         38.3370   43.2950   20.5620 N.3   401  SAH401     -0.1208
      2  CA        37.5980   43.9100   19.4160 C.3   401  SAH401      0.1952
      3  CB        37.1440   45.3130   19.7940 C.3   401  SAH401      0.0422
      4  CG        35.9980   45.3070   20.7840 C.3   401  SAH401      0.0597
      5  SD        34.6860   44.1500   20.3220 S.3   401  SAH401     -0.1375
      6  C         38.4470   43.9570   18.1490 C.2   401  SAH401      0.3819
      7  O         39.6380   43.6420   18.1950 O.co2 401  SAH401     -0.2441
      8  OXT       37.9690   44.3140   17.0630 O.co2 401  SAH401     -0.2441
      9  C5'       33.6510   44.9180   21.5930 C.3   401  SAH401      0.0899
     10  C4'       33.3310   44.0240   22.7810 C.3   401  SAH401      0.1630
     11  O4'       32.4480   43.0010   22.3920 O.3   401  SAH401     -0.3153
     12  C3'       34.5150   43.3180   23.4190 C.3   401  SAH401      0.2168
     13  O3'       35.2810   44.1290   24.2780 O.3   401  SAH401     -0.2175
     14  C2'       33.8390   42.1840   24.1530 C.3   401  SAH401      0.2569
     15  O2'       33.2440   42.6240   25.3760 O.3   401  SAH401     -0.2130
     16  C1'       32.7430   41.8400   23.1550 C.3   401  SAH401      0.3185
     17  N9        33.0460   40.7310   22.2280 N.pl3 401  SAH401     -0.1439
     18  C8        33.0080   40.7500   20.8330 C.3   401  SAH401      0.3377
     19  N7        33.2650   39.5010   20.3950 N.2   401  SAH401     -0.2095
     20  C5        33.4620   38.6830   21.4600 C.2   401  SAH401      0.2526
     21  C6        33.7560   37.3330   21.6180 C.2   401  SAH401      0.4393
     22  N6        33.9250   36.5000   20.5830 N.pl3 401  SAH401      0.2180
     23  N1        33.8690   36.8180   22.8970 N.2   401  SAH401      0.0021
     24  C2        33.7030   37.6050   24.0130 C.3   401  SAH401      0.5254
     25  N3        33.4340   38.9380   23.8730 N.2   401  SAH401     -0.0055
     26  C4        33.3080   39.4580   22.6120 C.2   401  SAH401      0.3518
@<TRIPOS>BOND
     1     8     6   ar
     2     6     7   ar
     3     6     2    1
     4     2     3    1
     5     2     1    1
     6     3     4    1
     7     5     4    1
     8     5     9    1
     9    19    18    1
    10    19    20    2
    11    22    21    1
    12    18    17    1
    13    20    21    1
    14    20    26    1
    15     9    10    1
    16    21    23    2
    17    17    26    1
    18    17    16    1
    19    11    10    1
    20    11    16    1
    21    26    25    2
    22    10    12    1
    23    23    24    1
    24    16    14    1
    25    12    14    1
    26    12    13    1
    27    25    24    1
    28    14    15    1
