@<TRIPOS>MOLECULE
2hae_NAD_A_1.pdb
 44 48 0 0 0
SMALL
GASTEIGER

@<TRIPOS>ATOM
      1  PA       -25.7250   28.3860  -52.2320 P.3   501  NAD501      0.2189
      2  O1A      -25.1580   29.5760  -51.5890 O.3   501  NAD501     -0.4371
      3  O2A      -26.9130   28.5920  -53.1680 O.2   501  NAD501     -0.5170
      4  O5B      -24.5380   27.6490  -52.9750 O.3   501  NAD501     -0.3112
      5  C5B      -24.8080   26.4910  -53.7120 C.3   501  NAD501      0.1813
      6  C4B      -23.6460   26.2380  -54.6470 C.3   501  NAD501      0.1821
      7  O4B      -24.0230   25.1090  -55.3920 O.3   501  NAD501     -0.3135
      8  C3B      -23.4400   27.3750  -55.6560 C.3   501  NAD501      0.2184
      9  O3B      -22.1450   27.9570  -55.5650 O.3   501  NAD501     -0.2174
     10  C2B      -23.7400   26.7080  -56.9920 C.3   501  NAD501      0.2570
     11  O2B      -23.0370   27.2470  -58.1020 O.3   501  NAD501     -0.2130
     12  C1B      -23.4030   25.2680  -56.6290 C.3   501  NAD501      0.3186
     13  N9A      -23.8840   24.1680  -57.4820 N.pl3 501  NAD501     -0.1439
     14  C8A      -25.1550   23.9310  -57.9320 C.3   501  NAD501      0.3377
     15  N7A      -25.1350   22.8130  -58.6870 N.2   501  NAD501     -0.2095
     16  C5A      -23.8740   22.3150  -58.7320 C.2   501  NAD501      0.2526
     17  C6A      -23.2590   21.2080  -59.3530 C.2   501  NAD501      0.4393
     18  N6A      -23.9560   20.3520  -60.0920 N.pl3 501  NAD501      0.2180
     19  N1A      -21.8930   20.9890  -59.1880 N.2   501  NAD501      0.0021
     20  C2A      -21.1350   21.8760  -58.4140 C.3   501  NAD501      0.5254
     21  N3A      -21.7300   22.9720  -57.8010 N.2   501  NAD501     -0.0055
     22  C4A      -23.0720   23.1900  -57.9650 C.2   501  NAD501      0.3518
     23  O3       -26.1730   27.3210  -51.1160 O.3   501  NAD501     -0.2703
     24  PN       -26.1230   27.4820  -49.5030 P.3   501  NAD501      0.2189
     25  O1N      -27.3270   27.2840  -48.6690 O.3   501  NAD501     -0.4371
     26  O2N      -24.7590   27.3390  -48.9420 O.2   501  NAD501     -0.5170
     27  O5D      -25.9930   25.8990  -49.6420 O.3   501  NAD501     -0.3112
     28  C5D      -27.0280   25.1650  -50.1790 C.3   501  NAD501      0.1813
     29  C4D      -26.7160   23.7070  -50.1650 C.3   501  NAD501      0.1799
     30  O4D      -26.6180   23.2810  -48.8040 O.3   501  NAD501     -0.3327
     31  C3D      -27.8470   22.9220  -50.7240 C.3   501  NAD501      0.2158
     32  O3D      -27.3330   21.6960  -51.2080 O.3   501  NAD501     -0.2175
     33  C2D      -28.7200   22.7940  -49.5300 C.3   501  NAD501      0.2309
     34  O2D      -29.8210   21.9710  -49.7570 O.3   501  NAD501     -0.2158
     35  C1D      -27.6280   22.3200  -48.5880 C.3   501  NAD501      0.2263
     36  N1N      -27.9780   22.2010  -47.1310 N.pl3 501  NAD501     -0.2787
     37  C2N      -26.9930   22.4990  -46.1880 C.3   501  NAD501      0.1244
     38  C3N      -27.3120   22.3470  -44.8160 C.2   501  NAD501      0.0544
     39  C7N      -26.2770   22.6490  -43.8230 C.2   501  NAD501      0.2818
     40  O7N      -26.5980   22.4760  -42.4720 O.2   501  NAD501     -0.2670
     41  N7N      -25.0830   23.0620  -44.1800 N.am  501  NAD501     -0.0839
     42  C4N      -28.6150   21.9000  -44.4090 C.2   501  NAD501      0.0033
     43  C5N      -29.6030   21.6110  -45.3820 C.2   501  NAD501      0.0157
     44  C6N      -29.2580   21.7660  -46.7440 C.2   501  NAD501      0.0633
@<TRIPOS>BOND
     1    18    17    1
     2    17    19    2
     3    17    16    1
     4    19    20    1
     5    16    15    2
     6    16    22    1
     7    15    14    1
     8    20    21    1
     9    11    10    1
    10    22    21    2
    11    22    13    1
    12    14    13    1
    13    13    12    1
    14    10    12    1
    15    10     8    1
    16    12     7    1
    17     8     9    1
    18     8     6    1
    19     7     6    1
    20     6     5    1
    21     5     4    1
    22     3     1    2
    23     4     1    1
    24     1     2    1
    25     1    23    1
    26    32    31    1
    27    23    24    1
    28    31    29    1
    29    31    33    1
    30    28    29    1
    31    28    27    1
    32    29    30    1
    33    34    33    1
    34    27    24    1
    35    33    35    1
    36    24    26    2
    37    24    25    1
    38    30    35    1
    39    35    36    1
    40    36    44    1
    41    36    37    1
    42    44    43    2
    43    37    38    1
    44    43    42    1
    45    38    42    2
    46    38    39    1
    47    41    39   am
    48    39    40    2
