@<TRIPOS>MOLECULE
2hai_PFI_A_1.pdb
 26 28 0 0 0
SMALL
GASTEIGER

@<TRIPOS>ATOM
      1  F26       39.1110   11.5860   60.6420 F     601  PFI601     -0.2010
      2  C23       40.2650   11.9050   60.0460 C.ar  601  PFI601      0.1735
      3  C22       41.4800   11.3840   60.5740 C.ar  601  PFI601      0.1656
      4  O24       41.4390   10.5910   61.6780 O.3   601  PFI601     -0.4769
      5  C25       42.0300   11.0530   62.8990 C.3   601  PFI601      0.1662
      6  C2        41.2620   12.2940   63.4310 C.3   601  PFI601      0.0472
      7  C1        42.0010    9.9160   63.9060 C.3   601  PFI601      0.0472
      8  C21       42.7100   11.7240   59.9480 C.ar  601  PFI601      0.0389
      9  C20       42.7740   12.5580   58.8210 C.ar  601  PFI601     -0.0010
     10  C19       41.5580   13.0580   58.2960 C.ar  601  PFI601     -0.0196
     11  C18       40.3320   12.7240   58.9270 C.ar  601  PFI601      0.0285
     12  C12       41.5920   13.9510   57.0900 C.3   601  PFI601      0.0300
     13  C11       41.1920   13.1240   55.8090 C.3   601  PFI601      0.0452
     14  C5        40.9750   13.9630   54.5430 C.3   601  PFI601      0.1437
     15  C6        42.1770   14.8980   54.1930 C.3   601  PFI601      0.1094
     16  C17       39.7950   14.9540   54.6850 C.3   601  PFI601      0.0372
     17  C13       38.4350   14.3430   55.1080 C.3   601  PFI601      0.0035
     18  C16       39.4140   15.6830   53.3670 C.3   601  PFI601      0.0035
     19  C15       38.1600   16.4720   53.8180 C.3   601  PFI601      0.0001
     20  C14       37.4910   15.4880   54.7950 C.3   601  PFI601      0.0001
     21  O4        40.6560   13.1010   53.3910 O.3   601  PFI601     -0.4522
     22  C3        41.6990   12.3680   52.8820 C.2   601  PFI601      0.3441
     23  O10       41.5120   11.2790   52.3380 O.2   601  PFI601     -0.2448
     24  C8        43.0780   12.9270   53.0080 C.2   601  PFI601      0.1193
     25  C7        43.3370   14.0930   53.7090 C.2   601  PFI601      0.1831
     26  O9        44.6150   14.5000   53.9750 O.2   601  PFI601     -0.2910
@<TRIPOS>BOND
     1    23    22    2
     2    22    24    1
     3    22    21    1
     4    24    25    2
     5    18    19    1
     6    18    16    1
     7    21    14    1
     8    25    26    1
     9    25    15    1
    10    19    20    1
    11    15    14    1
    12    14    16    1
    13    14    13    1
    14    16    17    1
    15    20    17    1
    16    13    12    1
    17    12    10    1
    18    10     9   ar
    19    10    11   ar
    20     9     8   ar
    21    11     2   ar
    22     8     3   ar
    23     2     3   ar
    24     2     1    1
    25     3     4    1
    26     4     5    1
    27     5     6    1
    28     5     7    1
