@<TRIPOS>MOLECULE
2hal_BBL_A_1.pdb
 16 16 0 0 0
SMALL
GASTEIGER

@<TRIPOS>ATOM
      1  OG2       15.9410   16.2740   35.4850 O.co2 901  BBL901     -0.2437
      2  CB2       16.9330   15.7200   36.0130 C.2   901  BBL901      0.3843
      3  OG1       18.0550   16.2910   36.0930 O.co2 901  BBL901     -0.2437
      4  CA        16.7700   14.3140   36.5420 C.3   901  BBL901      0.2012
      5  CBZ       15.5300   14.1640   37.4260 C.3   901  BBL901      0.0358
      6  N         17.9350   13.8800   37.2830 N.am  901  BBL901     -0.1589
      7  C         19.0480   13.4860   36.6820 C.2   901  BBL901      0.4219
      8  O         19.1290   13.1160   35.5120 O.2   901  BBL901     -0.2245
      9  OEZ       20.2120   13.5090   37.5290 O.3   901  BBL901     -0.4285
     10  CB        21.4420   12.9130   37.1440 C.3   901  BBL901      0.2368
     11  CG        22.4870   13.3480   38.1320 C.ar  901  BBL901      0.0213
     12  CD1       23.7550   12.7840   38.0480 C.ar  901  BBL901     -0.0007
     13  CE1       24.7340   13.1660   38.9550 C.ar  901  BBL901     -0.0002
     14  CZ        24.4410   14.1200   39.9300 C.ar  901  BBL901     -0.0000
     15  CE2       23.1690   14.6840   40.0240 C.ar  901  BBL901     -0.0002
     16  CD2       22.1880   14.2980   39.1150 C.ar  901  BBL901     -0.0007
@<TRIPOS>BOND
     1     1     2   ar
     2     8     7    2
     3     2     3   ar
     4     2     4    1
     5     4     6    1
     6     4     5    1
     7     7     6   am
     8     7     9    1
     9    10     9    1
    10    10    11    1
    11    12    11   ar
    12    12    13   ar
    13    11    16   ar
    14    13    14   ar
    15    16    15   ar
    16    14    15   ar
