@<TRIPOS>MOLECULE
2ham_C33_A_1.pdb
 33 35 0 0 0
SMALL
GASTEIGER

@<TRIPOS>ATOM
      1  C5        14.5400   19.2790   33.5170 C.2   1001  C331001    -0.0396
      2  C10       13.5120   18.6580   34.4750 C.3   1001  C331001     0.0489
      3  C1        14.1450   17.5810   35.4410 C.3   1001  C331001     0.1580
      4  C2        14.9300   16.4510   34.6330 C.3   1001  C331001     0.0615
      5  C3        15.9720   17.1220   33.6380 C.3   1001  C331001     0.1584
      6  C4        15.3590   18.2440   32.7200 C.3   1001  C331001     0.0550
      7  C6        14.8270   20.5910   33.2820 C.2   1001  C331001    -0.0090
      8  C7        14.1980   21.7400   33.9090 C.2   1001  C331001    -0.0091
      9  C8        13.9630   22.9530   33.3710 C.2   1001  C331001    -0.0446
     10  C14       13.2730   24.0940   34.1430 C.3   1001  C331001     0.0183
     11  C13       11.8690   24.4780   33.4690 C.3   1001  C331001     0.0034
     12  C12       12.2070   24.9340   31.9530 C.3   1001  C331001     0.0006
     13  C11       13.0990   23.9360   31.1210 C.3   1001  C331001     0.0044
     14  C9        14.3350   23.3720   31.9110 C.3   1001  C331001     0.0220
     15  C15       12.8640   23.8900   35.6970 C.3   1001  C331001     0.0040
     16  C16       11.6460   24.8500   35.8760 C.3   1001  C331001     0.0003
     17  C17       11.4660   25.5770   34.4960 C.3   1001  C331001     0.0003
     18  C19       12.1650   18.9720   34.4820 C.3   1001  C331001     0.0070
     19  O3        17.0200   17.7280   34.4040 O.3   1001  C331001    -0.2227
     20  O1        13.1190   16.9780   36.2250 O.3   1001  C331001    -0.2227
     21  C20        9.9830   26.1980   34.2910 C.3   1001  C331001     0.0000
     22  C22        8.6990   25.5380   34.8500 C.3   1001  C331001     0.0001
     23  C18       10.8590   23.2510   33.3150 C.3   1001  C331001     0.0003
     24  C21        9.9590   27.6690   34.8260 C.3   1001  C331001     0.0000
     25  C23        7.4820   25.6300   33.9150 C.3   1001  C331001     0.0025
     26  C24        6.2920   24.7750   34.3360 C.3   1001  C331001     0.0304
     27  C25        4.8900   25.3130   33.9400 C.3   1001  C331001     0.1268
     28  O25        4.6600   26.6060   34.5560 O.3   1001  C331001    -0.2257
     29  C27        3.8100   24.3470   34.4140 C.3   1001  C331001     0.0329
     30  C26        4.7290   25.5030   32.4230 C.3   1001  C331001     0.0329
     31  C28       13.9400   15.4830   33.7870 C.3   1001  C331001     0.0051
     32  C29       14.6270   14.2530   33.1550 C.3   1001  C331001     0.0002
     33  C30       15.2940   13.2700   34.1280 C.3   1001  C331001     0.0000
@<TRIPOS>BOND
     1    13    14    1
     2    13    12    1
     3    14     9    1
     4    12    11    1
     5    30    27    1
     6     6     1    1
     7     6     5    1
     8    32    31    1
     9    32    33    1
    10     7     1    2
    11     7     8    1
    12    23    11    1
    13     9     8    2
    14     9    10    1
    15    11    10    1
    16    11    17    1
    17     1     2    1
    18     5    19    1
    19     5     4    1
    20    31     4    1
    21    25    26    1
    22    25    22    1
    23    27    26    1
    24    27    29    1
    25    27    28    1
    26    10    15    1
    27    21    17    1
    28    21    24    1
    29    21    22    1
    30     2    18    1
    31     2     3    1
    32    17    16    1
    33     4     3    1
    34     3    20    1
    35    15    16    1
