@<TRIPOS>MOLECULE
2har_OCC_A_1.pdb
 35 37 0 0 0
SMALL
GASTEIGER

@<TRIPOS>ATOM
      1  C5        14.5800   19.4580   33.5080 C.2   1001  OCC1001    -0.0394
      2  C10       13.5470   18.7870   34.4560 C.3   1001  OCC1001     0.0514
      3  C1        14.1990   17.6850   35.3620 C.3   1001  OCC1001     0.1850
      4  C2        14.9060   16.6230   34.4220 C.3   1001  OCC1001     0.1762
      5  C3        15.9990   17.2980   33.5270 C.3   1001  OCC1001     0.1854
      6  C4        15.4340   18.4760   32.6700 C.3   1001  OCC1001     0.0576
      7  C6        14.8300   20.7720   33.3240 C.2   1001  OCC1001    -0.0090
      8  C7        14.1720   21.8920   33.9860 C.2   1001  OCC1001    -0.0091
      9  C8        13.9110   23.0840   33.4670 C.2   1001  OCC1001    -0.0446
     10  C14       13.1960   24.2040   34.2480 C.3   1001  OCC1001     0.0183
     11  C13       11.7920   24.5710   33.5700 C.3   1001  OCC1001     0.0034
     12  C12       12.1470   25.0730   32.0760 C.3   1001  OCC1001     0.0006
     13  C11       13.0650   24.1210   31.2150 C.3   1001  OCC1001     0.0044
     14  C9        14.2750   23.5120   32.0040 C.3   1001  OCC1001     0.0220
     15  C15       12.7780   23.9720   35.7860 C.3   1001  OCC1001     0.0040
     16  C16       11.5260   24.8790   35.9660 C.3   1001  OCC1001     0.0003
     17  C17       11.3660   25.6230   34.6000 C.3   1001  OCC1001     0.0003
     18  C19       12.1820   19.0760   34.4820 C.3   1001  OCC1001     0.0071
     19  O2        17.0450   17.8130   34.3740 O.3   1001  OCC1001    -0.2201
     20  O1        13.2030   17.0490   36.1350 O.3   1001  OCC1001    -0.2201
     21  C20        9.8810   26.2350   34.3920 C.3   1001  OCC1001     0.0000
     22  C22        8.5950   25.5460   34.9580 C.3   1001  OCC1001     0.0001
     23  C18       10.7860   23.2990   33.4010 C.3   1001  OCC1001     0.0003
     24  C21        9.8670   27.6870   34.9330 C.3   1001  OCC1001     0.0000
     25  C23        7.3800   25.6830   34.0460 C.3   1001  OCC1001     0.0025
     26  C24        6.1920   24.7650   34.3900 C.3   1001  OCC1001     0.0304
     27  C25        4.7980   25.2950   33.9590 C.3   1001  OCC1001     0.1268
     28  O25        4.5500   26.5630   34.6030 O.3   1001  OCC1001    -0.2257
     29  C27        3.6990   24.3270   34.3730 C.3   1001  OCC1001     0.0329
     30  C26        4.6820   25.5240   32.4430 C.3   1001  OCC1001     0.0329
     31  O28       14.0210   16.0030   33.4360 O.3   1001  OCC1001    -0.3509
     32  C29       13.4590   14.7300   33.7610 C.3   1001  OCC1001     0.1450
     33  C30       14.4250   13.5930   33.3800 C.3   1001  OCC1001     0.0676
     34  C31       14.9030   12.7900   34.6080 C.3   1001  OCC1001     0.1847
     35  O32       13.8030   12.4330   35.4770 O.3   1001  OCC1001    -0.2203
@<TRIPOS>BOND
     1    13    14    1
     2    13    12    1
     3    14     9    1
     4    12    11    1
     5    30    27    1
     6     6     1    1
     7     6     5    1
     8     7     1    2
     9     7     8    1
    10    33    32    1
    11    33    34    1
    12    23    11    1
    13    31    32    1
    14    31     4    1
    15     9     8    2
    16     9    10    1
    17     1     2    1
    18     5    19    1
    19     5     4    1
    20    11    10    1
    21    11    17    1
    22    27    29    1
    23    27    26    1
    24    27    28    1
    25    25    26    1
    26    25    22    1
    27    10    15    1
    28    21    17    1
    29    21    24    1
    30    21    22    1
    31     4     3    1
    32     2    18    1
    33     2     3    1
    34    17    16    1
    35    34    35    1
    36     3    20    1
    37    15    16    1
