@<TRIPOS>MOLECULE
2has_C3O_A_1.pdb
 34 36 0 0 0
SMALL
GASTEIGER

@<TRIPOS>ATOM
      1  C5        14.5740   19.6680   33.5940 C.2   1001  C3O1001    -0.0211
      2  C4        15.4150   18.6770   32.7660 C.3   1001  C3O1001     0.0616
      3  C3        16.0490   17.5040   33.6220 C.3   1001  C3O1001     0.1861
      4  C2        14.9400   16.8190   34.5520 C.3   1001  C3O1001     0.1801
      5  C1        14.1680   17.8870   35.4610 C.3   1001  C3O1001     0.2034
      6  C10       13.5430   18.9980   34.5330 C.2   1001  C3O1001     0.0063
      7  C6        14.8050   20.9940   33.4390 C.2   1001  C3O1001    -0.0051
      8  C7        14.1510   22.1180   34.1040 C.2   1001  C3O1001    -0.0088
      9  C8        13.8810   23.3360   33.6010 C.2   1001  C3O1001    -0.0446
     10  C14       13.1770   24.4520   34.3730 C.3   1001  C3O1001     0.0183
     11  C13       11.7700   24.8440   33.6680 C.3   1001  C3O1001     0.0034
     12  C12       12.1250   25.3610   32.2000 C.3   1001  C3O1001     0.0006
     13  C11       13.1140   24.4820   31.3610 C.3   1001  C3O1001     0.0044
     14  C9        14.2430   23.7560   32.1500 C.3   1001  C3O1001     0.0220
     15  C15       12.7260   24.2400   35.8890 C.3   1001  C3O1001     0.0040
     16  C16       11.4770   25.1570   36.0780 C.3   1001  C3O1001     0.0003
     17  C17       11.3030   25.9180   34.7190 C.3   1001  C3O1001     0.0003
     18  C19       12.1980   19.2970   34.5610 C.2   1001  C3O1001    -0.0023
     19  O2        17.0720   18.0300   34.4380 O.3   1001  C3O1001    -0.2201
     20  O1        13.1720   17.1980   36.1840 O.3   1001  C3O1001    -0.2156
     21  C20        9.8240   26.5440   34.5340 C.3   1001  C3O1001     0.0000
     22  C22        8.6000   25.7320   35.0640 C.3   1001  C3O1001     0.0001
     23  C18       10.7950   23.5730   33.4770 C.3   1001  C3O1001     0.0003
     24  C21        9.7360   27.9390   35.1870 C.3   1001  C3O1001     0.0000
     25  C23        7.4180   25.7840   34.0850 C.3   1001  C3O1001     0.0025
     26  C24        6.1910   24.9890   34.5460 C.3   1001  C3O1001     0.0304
     27  C25        4.7530   25.5270   34.1400 C.3   1001  C3O1001     0.1268
     28  O25        4.4930   26.7890   34.7420 O.3   1001  C3O1001    -0.2257
     29  C27        3.6620   24.5280   34.6220 C.3   1001  C3O1001     0.0329
     30  C26        4.6320   25.6540   32.5900 C.3   1001  C3O1001     0.0329
     31  O28       14.0460   16.1520   33.6690 O.3   1001  C3O1001    -0.3507
     32  C29       13.7430   14.7840   33.8490 C.3   1001  C3O1001     0.1423
     33  C30       14.7620   13.9120   33.0510 C.3   1001  C3O1001     0.0321
     34  C31       15.6040   12.9740   33.9250 C.3   1001  C3O1001     0.0027
@<TRIPOS>BOND
     1    13    14    1
     2    13    12    1
     3    14     9    1
     4    12    11    1
     5    30    27    1
     6     2     1    1
     7     2     3    1
     8    33    32    1
     9    33    34    1
    10     7     1    2
    11     7     8    1
    12    23    11    1
    13     1     6    1
    14     9     8    2
    15     9    10    1
    16     3    19    1
    17     3     4    1
    18    11    10    1
    19    11    17    1
    20    31    32    1
    21    31     4    1
    22    25    26    1
    23    25    22    1
    24    27    26    1
    25    27    29    1
    26    27    28    1
    27    10    15    1
    28     6    18    2
    29     6     5    1
    30    21    17    1
    31    21    22    1
    32    21    24    1
    33     4     5    1
    34    17    16    1
    35     5    20    1
    36    15    16    1
