@<TRIPOS>MOLECULE
2hay_FMN_A_1.pdb
 31 33 0 0 0
SMALL
GASTEIGER

@<TRIPOS>ATOM
      1  N1        63.7400   28.7080   65.4600 N.2   702  FMN702     -0.2887
      2  C2        63.9510   27.3710   65.1340 C.1   702  FMN702      0.3669
      3  O2        64.9910   26.7800   65.4660 O.2   702  FMN702     -0.1744
      4  N3        63.0050   26.6660   64.4140 N.2   702  FMN702     -0.2300
      5  C4        61.8250   27.2480   63.9750 C.1   702  FMN702      0.2513
      6  O4        61.3010   26.8120   62.9390 O.2   702  FMN702     -0.2057
      7  C4A       61.5910   28.5950   64.3070 C.2   702  FMN702      0.2703
      8  N5        60.4020   29.2090   63.8680 N.2   702  FMN702     -0.3885
      9  C5A       60.1050   30.5330   64.2020 C.2   702  FMN702      0.1233
     10  C6        58.8980   31.0950   63.8030 C.3   702  FMN702      0.0606
     11  C7        58.5790   32.4150   64.1130 C.3   702  FMN702      0.0111
     12  C7M       57.1070   32.7600   64.2190 C.3   702  FMN702      0.0008
     13  C8        59.5150   33.1750   64.8430 C.3   702  FMN702      0.0238
     14  C8M       59.0040   34.3010   65.6870 C.3   702  FMN702      0.0047
     15  C9        60.7380   32.6090   65.2370 C.2   702  FMN702     -0.0093
     16  C9A       61.0400   31.2780   64.9370 C.2   702  FMN702      0.0750
     17  N10       62.2510   30.6760   65.3640 N.pl3 702  FMN702     -0.2548
     18  C10       62.5430   29.3310   65.0580 C.2   702  FMN702      0.2449
     19  C1'       63.3240   31.5540   65.9440 C.3   702  FMN702      0.1336
     20  C2'       63.9470   32.5310   64.9310 C.3   702  FMN702      0.2048
     21  O2'       64.8820   31.8770   64.0850 O.3   702  FMN702     -0.2185
     22  C3'       64.6180   33.6430   65.7420 C.3   702  FMN702      0.2165
     23  O3'       63.5770   34.3340   66.3870 O.3   702  FMN702     -0.2175
     24  C4'       65.4980   34.6470   64.9790 C.3   702  FMN702      0.2147
     25  O4'       66.6800   34.0380   64.4870 O.3   702  FMN702     -0.2176
     26  C5'       65.8280   35.8460   65.8890 C.3   702  FMN702      0.1892
     27  O5'       66.7270   35.5150   66.9490 O.3   702  FMN702     -0.2674
     28  P         66.3550   35.4540   68.5300 P.3   702  FMN702      0.5327
     29  O1P       67.1040   34.2990   69.1370 O.3   702  FMN702     -0.1145
     30  O2P       64.8850   35.2950   68.8010 O.2   702  FMN702     -0.2224
     31  O3P       66.8060   36.7030   69.1930 O.3   702  FMN702     -0.1145
@<TRIPOS>BOND
     1     6     5    2
     2    10    11    1
     3    10     9    1
     4     8     9    2
     5     8     7    2
     6     5     7    1
     7     5     4    2
     8    21    20    1
     9    11    12    1
    10    11    13    1
    11     9    16    1
    12     7    18    1
    13     4     2    2
    14    25    24    1
    15    13    15    1
    16    13    14    1
    17    20    22    1
    18    20    19    1
    19    16    15    2
    20    16    17    1
    21    24    22    1
    22    24    26    1
    23    18    17    1
    24    18     1    2
    25     2     1    2
    26     2     3    2
    27    17    19    1
    28    22    23    1
    29    26    27    1
    30    27    28    1
    31    28    30    2
    32    28    29    1
    33    28    31    1
