@<TRIPOS>MOLECULE
2hb1_512_A_1.pdb
 14 14 0 0 0
SMALL
GASTEIGER

@<TRIPOS>ATOM
      1  C1        45.2050   12.9580    1.1080 C.ar  800  512800      0.0455
      2  C2        45.7690   13.3870    2.3300 C.ar  800  512800      0.0757
      3  S3        44.4110   14.2720    0.3820 S.2   800  512800     -0.0763
      4  C4        44.7680   15.3960    1.6130 C.ar  800  512800      0.1437
      5  C5        45.5320   14.7580    2.6290 C.ar  800  512800      0.1583
      6  C6        44.3330   16.7240    1.5480 C.2   800  512800      0.3966
      7  O7        43.6320   17.0320    0.4400 O.co2 800  512800     -0.2399
      8  O8        46.0460   15.3500    3.8450 O.3   800  512800     -0.4625
      9  C9        47.2700   16.0930    3.6600 C.3   800  512800      0.3186
     10  C10       47.5730   16.9740    4.8740 C.2   800  512800      0.4084
     11  O13       48.7260   17.6560    4.7940 O.co2 800  512800     -0.2415
     12  O14       44.5590   17.5410    2.4090 O.co2 800  512800     -0.2399
     13  O15       46.8560   17.0500    5.8220 O.co2 800  512800     -0.2415
     14 BR19       46.7460   12.2290    3.4440 Br    800  512800     -0.0453
@<TRIPOS>BOND
     1     3     1   ar
     2     3     4   ar
     3     7     6   ar
     4     1     2   ar
     5     6     4    1
     6     6    12   ar
     7     4     5   ar
     8     2     5   ar
     9     2    14    1
    10     5     8    1
    11     9     8    1
    12     9    10    1
    13    11    10   ar
    14    10    13   ar
