@<TRIPOS>MOLECULE
2hb3_GRL_B_1.pdb
 39 42 0 0 0
SMALL
GASTEIGER

@<TRIPOS>ATOM
      1  C11       15.2860   24.3430   19.2370 C.3   201  GRL201      0.1730
      2  C12       15.3400   25.1730   17.9460 C.3   201  GRL201      0.0463
      3  O1        18.2810   23.9840   18.6050 O.3   201  GRL201     -0.3561
      4  C14       18.0680   23.7320   17.2270 C.3   201  GRL201      0.1421
      5  C15       16.7900   25.6890   17.7870 C.3   201  GRL201      0.0334
      6  C16       16.5030   24.8130   20.0740 C.3   201  GRL201      0.0732
      7  C2        17.6260   25.0770   16.6300 C.3   201  GRL201      0.0346
      8  C1        17.5880   25.1980   19.0370 C.3   201  GRL201      0.1189
      9  O13       15.5440   22.9430   18.9410 O.3   201  GRL201     -0.4372
     10  C21       14.5380   22.2580   18.3170 C.2   201  GRL201      0.4210
     11  C22       14.0220   20.1580   17.1490 C.3   201  GRL201      0.1347
     12  C23       14.8010   19.6400   15.8920 C.3   201  GRL201      0.0508
     13  C24       15.1820   20.8310   15.0260 C.ar  201  GRL201     -0.0204
     14  C25       14.1900   21.5440   14.3280 C.ar  201  GRL201     -0.0042
     15  C26       14.5270   22.6620   13.5120 C.ar  201  GRL201     -0.0003
     16  C27       15.8810   23.0860   13.3830 C.ar  201  GRL201     -0.0000
     17  C28       16.8580   22.3660   14.0850 C.ar  201  GRL201     -0.0003
     18  C29       16.5190   21.2560   14.8940 C.ar  201  GRL201     -0.0042
     19  O21       13.4360   22.7150   18.1930 O.2   201  GRL201     -0.2246
     20  N21       14.9600   21.0490   17.8850 N.am  201  GRL201     -0.1675
     21  C31       13.6620   19.0240   18.1360 C.3   201  GRL201      0.1898
     22  C32       12.5810   18.0670   17.5630 C.3   201  GRL201      0.1304
     23  C33       10.3020   18.4610   18.6420 C.3   201  GRL201      0.0958
     24  C34       10.6550   19.1300   20.0030 C.3   201  GRL201      0.0178
     25  C35        9.6130   18.5880   21.0130 C.3   201  GRL201      0.0015
     26  C36       10.5670   20.6690   19.8890 C.3   201  GRL201      0.0015
     27  O31       14.8140   18.2040   18.4020 O.3   201  GRL201     -0.2197
     28  O32       11.7380   19.3090   15.1510 O.2   201  GRL201     -0.1528
     29  O33        9.6860   20.2520   16.3360 O.2   201  GRL201     -0.1528
     30  N31       11.2830   18.7200   17.5740 N.3   201  GRL201     -0.1529
     31  S31       10.6330   19.1580   16.1040 S.O2  201  GRL201      0.0634
     32  C41        9.6140   17.8010   15.5420 C.ar  201  GRL201      0.1222
     33  C42        8.2340   17.8890   15.7040 C.ar  201  GRL201      0.0197
     34  C43        7.4470   16.8220   15.2520 C.ar  201  GRL201     -0.0004
     35  C44        8.0700   15.7080   14.6530 C.ar  201  GRL201      0.0107
     36  C45        9.4550   15.6570   14.5070 C.ar  201  GRL201     -0.0004
     37  C46       10.2610   16.7160   14.9550 C.ar  201  GRL201      0.0197
     38  C3         7.1900   14.5760   14.1760 C.3   201  GRL201      0.2086
     39  O2         7.1330   13.5880   15.1820 O.3   201  GRL201     -0.2152
@<TRIPOS>BOND
     1    16    15   ar
     2    16    17   ar
     3    15    14   ar
     4    17    18   ar
     5    38    35    1
     6    38    39    1
     7    14    13   ar
     8    36    35   ar
     9    36    37   ar
    10    35    34   ar
    11    18    13   ar
    12    37    32   ar
    13    13    12    1
    14    28    31    2
    15    34    33   ar
    16    32    33   ar
    17    32    31    1
    18    12    11    1
    19    31    29    2
    20    31    30    1
    21     7     4    1
    22     7     5    1
    23    11    20    1
    24    11    21    1
    25     4     3    1
    26    22    30    1
    27    22    21    1
    28    30    23    1
    29     5     2    1
    30     5     8    1
    31    20    10   am
    32     2     1    1
    33    21    27    1
    34    19    10    2
    35    10     9    1
    36     3     8    1
    37    23    24    1
    38     9     1    1
    39     8     6    1
    40     1     6    1
    41    26    24    1
    42    24    25    1
