@<TRIPOS>MOLECULE
2hb7_O1C_A_1.pdb
 34 36 0 0 0
SMALL
GASTEIGER

@<TRIPOS>ATOM
      1  C5        14.4930   19.2840   33.8150 C.2   1001  O1C1001    -0.0396
      2  C10       13.4410   18.7110   34.7900 C.3   1001  O1C1001     0.0489
      3  C1        14.0730   17.6960   35.8140 C.3   1001  O1C1001     0.1580
      4  C2        14.8400   16.5060   35.0630 C.3   1001  O1C1001     0.0616
      5  C3        15.9170   17.1270   34.0470 C.3   1001  O1C1001     0.1584
      6  C4        15.2750   18.2000   33.0740 C.3   1001  O1C1001     0.0550
      7  C6        14.7700   20.5850   33.5750 C.2   1001  O1C1001    -0.0090
      8  C7        14.1330   21.7450   34.1820 C.2   1001  O1C1001    -0.0091
      9  C8        13.8450   22.9190   33.6270 C.2   1001  O1C1001    -0.0446
     10  C14       13.1510   24.0590   34.3700 C.3   1001  O1C1001     0.0183
     11  C13       11.7260   24.4310   33.6840 C.3   1001  O1C1001     0.0034
     12  C12       12.0260   24.8460   32.1680 C.3   1001  O1C1001     0.0006
     13  C11       12.9640   23.8880   31.3570 C.3   1001  O1C1001     0.0044
     14  C9        14.1590   23.2610   32.1500 C.3   1001  O1C1001     0.0220
     15  C15       12.7250   23.8900   35.8980 C.3   1001  O1C1001     0.0040
     16  C16       11.5180   24.8700   36.0900 C.3   1001  O1C1001     0.0003
     17  C17       11.3220   25.5740   34.6970 C.3   1001  O1C1001     0.0003
     18  C19       12.0940   19.0120   34.7560 C.3   1001  O1C1001     0.0070
     19  O2        16.9470   17.7700   34.7820 O.3   1001  O1C1001    -0.2227
     20  O1        13.1000   17.1420   36.6560 O.3   1001  O1C1001    -0.2227
     21  C20        9.8580   26.2420   34.5420 C.3   1001  O1C1001     0.0000
     22  C22        8.5950   25.4620   35.0540 C.3   1001  O1C1001     0.0001
     23  C18       10.7230   23.1810   33.6070 C.3   1001  O1C1001     0.0003
     24  C21        9.8150   27.6420   35.2310 C.3   1001  O1C1001     0.0000
     25  C23        7.3920   25.6380   34.0970 C.3   1001  O1C1001     0.0025
     26  C24        6.1590   24.7910   34.4630 C.3   1001  O1C1001     0.0304
     27  C25        4.7290   25.3680   34.1090 C.3   1001  O1C1001     0.1268
     28  O25        4.4790   26.5560   34.8420 O.3   1001  O1C1001    -0.2257
     29  C27        3.6270   24.3300   34.4790 C.3   1001  O1C1001     0.0329
     30  C26        4.6060   25.6710   32.5760 C.3   1001  O1C1001     0.0329
     31  C28       13.8650   15.5330   34.2500 C.3   1001  O1C1001     0.0078
     32  C29       14.5000   14.2340   33.6840 C.3   1001  O1C1001     0.0357
     33  C30       14.9760   13.2490   34.7920 C.3   1001  O1C1001     0.1821
     34  O31       13.9370   12.8050   35.6190 O.3   1001  O1C1001    -0.2204
@<TRIPOS>BOND
     1    13    14    1
     2    13    12    1
     3    14     9    1
     4    12    11    1
     5    30    27    1
     6     6     1    1
     7     6     5    1
     8     7     1    2
     9     7     8    1
    10    23    11    1
    11     9     8    2
    12     9    10    1
    13    32    31    1
    14    32    33    1
    15    11    10    1
    16    11    17    1
    17     1     2    1
    18     5    19    1
    19     5     4    1
    20    25    26    1
    21    25    22    1
    22    27    26    1
    23    27    29    1
    24    27    28    1
    25    31     4    1
    26    10    15    1
    27    21    17    1
    28    21    22    1
    29    21    24    1
    30    17    16    1
    31    18     2    1
    32     2     3    1
    33    33    34    1
    34     4     3    1
    35     3    20    1
    36    15    16    1
