@<TRIPOS>MOLECULE
2hb8_MVD_A_1.pdb
 31 33 0 0 0
SMALL
GASTEIGER

@<TRIPOS>ATOM
      1  O3        16.9190   17.6550   34.6570 O.3   1001  MVD1001    -0.2227
      2  O25        4.4660   26.4980   34.7560 O.3   1001  MVD1001    -0.2257
      3  C1        14.0880   17.5490   35.6650 C.3   1001  MVD1001     0.1580
      4  C2        14.8130   16.3910   34.8410 C.3   1001  MVD1001     0.0615
      5  C3        15.9050   17.0330   33.8440 C.3   1001  MVD1001     0.1584
      6  C4        15.2860   18.1480   32.8920 C.3   1001  MVD1001     0.0550
      7  C5        14.5390   19.2710   33.6540 C.2   1001  MVD1001    -0.0396
      8  C6        14.7450   20.6550   33.4580 C.2   1001  MVD1001    -0.0090
      9  C7        14.1180   21.8440   34.0940 C.2   1001  MVD1001    -0.0091
     10  C8        13.8590   23.0110   33.5810 C.2   1001  MVD1001    -0.0446
     11  C9        14.1860   23.4420   32.0530 C.3   1001  MVD1001     0.0220
     12  C10       13.4910   18.6730   34.7070 C.3   1001  MVD1001     0.0489
     13  C11       12.8560   23.9520   31.2420 C.3   1001  MVD1001     0.0044
     14  C12       11.9740   24.9600   32.1560 C.3   1001  MVD1001     0.0006
     15  C13       11.7020   24.5140   33.7550 C.3   1001  MVD1001     0.0034
     16  C14       13.1790   24.1360   34.3900 C.3   1001  MVD1001     0.0183
     17  C15       12.7490   23.8780   36.0030 C.3   1001  MVD1001     0.0040
     18  C16       11.5110   24.8550   36.1780 C.3   1001  MVD1001     0.0003
     19  C17       11.3580   25.5850   34.8010 C.3   1001  MVD1001     0.0003
     20  C18       10.6620   23.1600   33.5450 C.3   1001  MVD1001     0.0003
     21  C19       12.1480   19.0770   34.7790 C.3   1001  MVD1001     0.0070
     22  C20        9.8670   26.2180   34.4900 C.3   1001  MVD1001     0.0000
     23  C21        9.8800   27.6270   35.2670 C.3   1001  MVD1001     0.0000
     24  C22        8.5740   25.5530   35.1110 C.3   1001  MVD1001     0.0001
     25  C23        7.3410   25.7800   34.2310 C.3   1001  MVD1001     0.0025
     26  C24        6.2160   24.8880   34.3480 C.3   1001  MVD1001     0.0304
     27  C25        4.8070   25.3350   34.0380 C.3   1001  MVD1001     0.1268
     28  C26        4.6780   25.5710   32.5500 C.3   1001  MVD1001     0.0329
     29  C27        3.7830   24.2170   34.4490 C.3   1001  MVD1001     0.0329
     30  O1        13.0450   16.9520   36.5030 O.3   1001  MVD1001    -0.2227
     31  C28       13.7890   15.5280   33.9860 C.3   1001  MVD1001     0.0053
@<TRIPOS>BOND
     1    13    11    1
     2    13    14    1
     3    11    10    1
     4    14    15    1
     5    28    27    1
     6     6     7    1
     7     6     5    1
     8     8     7    2
     9     8     9    1
    10    20    15    1
    11    10     9    2
    12    10    16    1
    13     7    12    1
    14    15    16    1
    15    15    19    1
    16     5     1    1
    17     5     4    1
    18    31     4    1
    19    27    26    1
    20    27    29    1
    21    27     2    1
    22    25    26    1
    23    25    24    1
    24    16    17    1
    25    22    19    1
    26    22    24    1
    27    22    23    1
    28    12    21    1
    29    12     3    1
    30    19    18    1
    31     4     3    1
    32     3    30    1
    33    17    18    1
