@<TRIPOS>MOLECULE
2hb9_L13_A_1.pdb
 14 15 0 0 0
SMALL
GASTEIGER

@<TRIPOS>ATOM
      1  N14       11.1150   28.9820   30.8130 N.3   500  L13500      0.1183
      2  N5        12.2480   29.6670   30.6620 N.am  500  L13500     -0.0067
      3  C1        12.6460   30.7230   31.3580 C.1   500  L13500      0.2001
      4  S6        11.7670   31.5530   32.6420 S.2   500  L13500      0.0579
      5  N2        13.8390   31.1480   30.9240 N.2   500  L13500      0.0491
      6  N3        14.1670   30.2500   29.8740 N.2   500  L13500      0.0944
      7  C4        13.1580   29.3370   29.7590 C.2   500  L13500      0.3835
      8  C7        12.9880   28.2210   28.7970 C.ar  500  L13500      0.0836
      9  C12       12.3790   28.5770   27.5860 C.ar  500  L13500      0.0072
     10  C11       12.1300   27.6210   26.6050 C.ar  500  L13500      0.0002
     11  C10       12.4880   26.2970   26.8700 C.ar  500  L13500     -0.0003
     12  C9        13.0770   25.9390   28.0880 C.ar  500  L13500     -0.0040
     13  C8        13.3250   26.9050   29.0710 C.ar  500  L13500     -0.0145
     14  C13       13.9620   26.5020   30.3820 C.3   500  L13500      0.0313
@<TRIPOS>BOND
     1    10    11   ar
     2    10     9   ar
     3    11    12   ar
     4     9     8   ar
     5    12    13   ar
     6     8    13   ar
     7     8     7    1
     8    13    14    1
     9     7     6    2
    10     7     2    1
    11     6     5    1
    12     2     1    1
    13     2     3    1
    14     5     3    2
    15     3     4    2
