@<TRIPOS>MOLECULE
2hbc_HEM_A_1.pdb
 43 50 0 0 0
SMALL
GASTEIGER

@<TRIPOS>ATOM
      1 FE         40.8430   29.8020   15.2650 Fe    142  HEM142      0.0000
      2  CHA       43.4140   28.7070   17.0530 C.2   142  HEM142      0.0000
      3  CHB       41.4220   33.0100   16.2130 C.2   142  HEM142      0.0000
      4  CHC       38.2980   30.9600   13.2570 C.2   142  HEM142      0.0000
      5  CHD       40.1210   26.5030   14.2900 C.2   142  HEM142      0.0000
      6  NA        41.9760   30.6210   16.5240 N.2   142  HEM142      0.0000
      7  C1A       43.0670   30.0260   17.1810 C.2   142  HEM142      0.0000
      8  C2A       43.8130   31.0040   17.9510 C.2   142  HEM142      0.0000
      9  C3A       43.1750   32.2590   17.7220 C.2   142  HEM142      0.0000
     10  C4A       42.0910   32.0020   16.7940 C.2   142  HEM142      0.0000
     11  CMA       43.5600   33.6510   18.3130 C.3   142  HEM142      0.0000
     12  CAA       45.1490   30.8490   18.7070 C.3   142  HEM142      0.0000
     13  CBA       46.3930   30.9540   17.7920 C.3   142  HEM142      0.0000
     14  CGA       47.7270   30.9670   18.5820 C.2   142  HEM142      0.0000
     15  O1A       48.0070   31.9690   19.2700 O.co2 142  HEM142      0.0000
     16  O2A       48.4910   29.9810   18.5330 O.co2 142  HEM142      0.0000
     17  NB        39.9680   31.5910   14.9070 N.ar  142  HEM142      0.0000
     18  C1B       40.4160   32.8090   15.2830 C.ar  142  HEM142      0.0000
     19  C2B       39.6310   33.9190   14.6860 C.ar  142  HEM142      0.0000
     20  C3B       38.7700   33.3320   13.8920 C.ar  142  HEM142      0.0000
     21  C4B       38.9190   31.9090   14.0820 C.ar  142  HEM142      0.0000
     22  CMB       39.5420   35.3610   15.2140 C.3   142  HEM142      0.0000
     23  CAB       37.9850   34.0230   12.9440 C.3   142  HEM142      0.0000
     24  CBB       36.8300   34.7260   13.3740 C.3   142  HEM142      0.0000
     25  NC        39.4700   28.9130   14.0830 N.2   142  HEM142      0.0000
     26  C1C       38.4870   29.5240   13.3140 C.2   142  HEM142      0.0000
     27  C2C       37.5380   28.5400   12.8150 C.2   142  HEM142      0.0000
     28  C3C       38.0350   27.3580   13.1770 C.2   142  HEM142      0.0000
     29  C4C       39.2290   27.5400   13.8810 C.2   142  HEM142      0.0000
     30  CMC       36.3390   28.9450   11.9250 C.3   142  HEM142      0.0000
     31  CAC       37.5150   26.0940   13.1200 C.3   142  HEM142      0.0000
     32  CBC       36.1180   25.7880   13.0960 C.3   142  HEM142      0.0000
     33  ND        41.6370   27.9900   15.5890 N.ar  142  HEM142      0.0000
     34  C1D       41.2770   26.7270   15.0470 C.ar  142  HEM142      0.0000
     35  C2D       42.1270   25.6850   15.5840 C.ar  142  HEM142      0.0000
     36  C3D       43.0280   26.3040   16.2920 C.ar  142  HEM142      0.0000
     37  C4D       42.7370   27.7010   16.3450 C.ar  142  HEM142      0.0000
     38  CMD       41.6540   24.2270   15.7780 C.3   142  HEM142      0.0000
     39  CAD       43.9790   25.5800   17.1980 C.3   142  HEM142      0.0000
     40  CBD       43.3140   25.1740   18.5120 C.3   142  HEM142      0.0000
     41  CGD       44.3360   24.7850   19.5440 C.2   142  HEM142      0.0000
     42  O1D       45.1710   23.9070   19.2400 O.co2 142  HEM142      0.0000
     43  O2D       44.3880   25.4270   20.6170 O.co2 142  HEM142      0.0000
@<TRIPOS>BOND
     1    30    27    1
     2    27    28    2
     3    27    26    1
     4    23    24    1
     5    23    20    1
     6    32    31    1
     7    31    28    1
     8    28    29    1
     9     4    26    2
    10     4    21    1
    11    26    25    1
    12    29    25    2
    13    29     5    1
    14    20    21   ar
    15    20    19   ar
    16    21    17   ar
    17    25     1    1
    18     5    34    2
    19    19    22    1
    20    19    18   ar
    21    17     1    1
    22    17    18   ar
    23    34    35   ar
    24    34    33   ar
    25     1    33    1
    26     1     6    1
    27    18     3    1
    28    35    38    1
    29    35    36   ar
    30    33    37   ar
    31     3    10    2
    32    36    37   ar
    33    36    39    1
    34    37     2    2
    35     6    10    1
    36     6     7    2
    37    10     9    1
    38     2     7    1
    39     7     8    1
    40    39    40    1
    41     9     8    2
    42     9    11    1
    43    13    14    1
    44    13    12    1
    45     8    12    1
    46    40    41    1
    47    16    14   ar
    48    14    15   ar
    49    42    41   ar
    50    41    43   ar
