@<TRIPOS>MOLECULE
2hbd_HEM_A_1.pdb
 43 50 0 0 0
SMALL
GASTEIGER

@<TRIPOS>ATOM
      1 FE         40.8870   29.3520   15.3210 Fe    142  HEM142      0.0000
      2  CHA       43.4260   28.2360   17.2700 C.2   142  HEM142      0.0000
      3  CHB       41.5340   32.5080   16.1100 C.2   142  HEM142      0.0000
      4  CHC       38.4090   30.4420   13.2750 C.2   142  HEM142      0.0000
      5  CHD       40.1560   26.1100   14.4160 C.2   142  HEM142      0.0000
      6  NA        42.2650   30.1650   16.4880 N.2   142  HEM142      0.0000
      7  C1A       43.1480   29.5800   17.3280 C.2   142  HEM142      0.0000
      8  C2A       43.9750   30.6720   18.0980 C.2   142  HEM142      0.0000
      9  C3A       43.4780   31.8890   17.6430 C.2   142  HEM142      0.0000
     10  C4A       42.4050   31.5550   16.6820 C.2   142  HEM142      0.0000
     11  CMA       43.9690   33.3080   17.9650 C.3   142  HEM142      0.0000
     12  CAA       45.1770   30.4850   19.0780 C.3   142  HEM142      0.0000
     13  CBA       46.3700   31.1250   18.3730 C.3   142  HEM142      0.0000
     14  CGA       47.7210   30.4970   18.7200 C.2   142  HEM142      0.0000
     15  O1A       48.6540   30.6300   17.8850 O.co2 142  HEM142      0.0000
     16  O2A       47.8790   29.9300   19.8270 O.co2 142  HEM142      0.0000
     17  NB        40.1310   31.1430   14.7760 N.ar  142  HEM142      0.0000
     18  C1B       40.5360   32.3260   15.2080 C.ar  142  HEM142      0.0000
     19  C2B       39.6390   33.3650   14.7320 C.ar  142  HEM142      0.0000
     20  C3B       38.6660   32.8460   13.9870 C.ar  142  HEM142      0.0000
     21  C4B       39.0440   31.4210   14.0170 C.ar  142  HEM142      0.0000
     22  CMB       39.6800   34.8270   15.0960 C.3   142  HEM142      0.0000
     23  CAB       37.9360   33.5360   13.0370 C.3   142  HEM142      0.0000
     24  CBB       36.9580   34.4920   13.2260 C.3   142  HEM142      0.0000
     25  NC        39.5670   28.4170   14.0520 N.2   142  HEM142      0.0000
     26  C1C       38.6180   29.0170   13.3100 C.2   142  HEM142      0.0000
     27  C2C       37.7630   28.0580   12.7110 C.2   142  HEM142      0.0000
     28  C3C       38.1800   26.8130   13.1150 C.2   142  HEM142      0.0000
     29  C4C       39.3200   27.0790   13.9370 C.2   142  HEM142      0.0000
     30  CMC       36.6210   28.3840   11.7580 C.3   142  HEM142      0.0000
     31  CAC       37.6500   25.5110   12.6960 C.3   142  HEM142      0.0000
     32  CBC       36.2660   25.1960   13.0820 C.3   142  HEM142      0.0000
     33  ND        41.7950   27.5860   15.6250 N.ar  142  HEM142      0.0000
     34  C1D       41.3360   26.3220   15.1830 C.ar  142  HEM142      0.0000
     35  C2D       42.1680   25.2370   15.6920 C.ar  142  HEM142      0.0000
     36  C3D       43.1620   25.8630   16.3780 C.ar  142  HEM142      0.0000
     37  C4D       42.8850   27.3120   16.3630 C.ar  142  HEM142      0.0000
     38  CMD       41.7790   23.7530   15.6440 C.3   142  HEM142      0.0000
     39  CAD       44.3700   25.2490   17.0870 C.3   142  HEM142      0.0000
     40  CBD       44.2830   23.9140   17.8470 C.3   142  HEM142      0.0000
     41  CGD       44.0550   24.0760   19.3360 C.2   142  HEM142      0.0000
     42  O1D       45.0450   23.9940   20.0850 O.co2 142  HEM142      0.0000
     43  O2D       42.8910   24.3420   19.7300 O.co2 142  HEM142      0.0000
@<TRIPOS>BOND
     1    30    27    1
     2    31    32    1
     3    31    28    1
     4    27    28    2
     5    27    26    1
     6    23    24    1
     7    23    20    1
     8    28    29    1
     9     4    26    2
    10     4    21    1
    11    26    25    1
    12    29    25    2
    13    29     5    1
    14    20    21   ar
    15    20    19   ar
    16    21    17   ar
    17    25     1    1
    18     5    34    2
    19    19    22    1
    20    19    18   ar
    21    17    18   ar
    22    17     1    1
    23    34    33   ar
    24    34    35   ar
    25    18     3    1
    26     1    33    1
    27     1     6    1
    28    33    37   ar
    29    38    35    1
    30    35    36   ar
    31     3    10    2
    32    37    36   ar
    33    37     2    2
    34    36    39    1
    35     6    10    1
    36     6     7    2
    37    10     9    1
    38    39    40    1
    39     2     7    1
    40     7     8    1
    41     9    11    1
    42     9     8    2
    43    40    41    1
    44    15    14   ar
    45     8    12    1
    46    13    14    1
    47    13    12    1
    48    14    16   ar
    49    41    43   ar
    50    41    42   ar
