@<TRIPOS>MOLECULE
2hbe_HEM_A_1.pdb
 43 50 0 0 0
SMALL
GASTEIGER

@<TRIPOS>ATOM
      1 FE         40.8750   29.4920   15.2530 Fe    142  HEM142      0.0000
      2  CHA       43.6660   28.4730   17.0910 C.2   142  HEM142      0.0000
      3  CHB       41.7180   32.7750   16.0490 C.2   142  HEM142      0.0000
      4  CHC       38.3130   30.5430   13.4350 C.2   142  HEM142      0.0000
      5  CHD       40.1040   26.2070   14.4840 C.2   142  HEM142      0.0000
      6  NA        42.2330   30.3040   16.4970 N.2   142  HEM142      0.0000
      7  C1A       43.2820   29.7500   17.2020 C.2   142  HEM142      0.0000
      8  C2A       44.0190   30.8070   17.9550 C.2   142  HEM142      0.0000
      9  C3A       43.4210   32.0480   17.6520 C.2   142  HEM142      0.0000
     10  C4A       42.3880   31.7510   16.6870 C.2   142  HEM142      0.0000
     11  CMA       43.4950   33.4450   18.2780 C.3   142  HEM142      0.0000
     12  CAA       45.2230   30.5710   18.8520 C.3   142  HEM142      0.0000
     13  CBA       46.4830   30.9550   18.0320 C.3   142  HEM142      0.0000
     14  CGA       47.8030   30.5280   18.7020 C.2   142  HEM142      0.0000
     15  O1A       47.8590   30.4360   19.9590 O.co2 142  HEM142      0.0000
     16  O2A       48.7820   30.2640   17.9630 O.co2 142  HEM142      0.0000
     17  NB        40.1440   31.2230   14.7000 N.ar  142  HEM142      0.0000
     18  C1B       40.6410   32.5390   15.1510 C.ar  142  HEM142      0.0000
     19  C2B       39.7720   33.6340   14.6430 C.ar  142  HEM142      0.0000
     20  C3B       38.8600   33.0070   13.8360 C.ar  142  HEM142      0.0000
     21  C4B       39.0730   31.5020   13.9560 C.ar  142  HEM142      0.0000
     22  CMB       39.7280   35.0380   15.1750 C.3   142  HEM142      0.0000
     23  CAB       38.1120   33.7190   12.9460 C.3   142  HEM142      0.0000
     24  CBB       36.9910   34.5470   13.3480 C.3   142  HEM142      0.0000
     25  NC        39.4780   28.5800   14.1520 N.2   142  HEM142      0.0000
     26  C1C       38.4700   29.1720   13.4970 C.2   142  HEM142      0.0000
     27  C2C       37.5610   28.1900   12.9040 C.2   142  HEM142      0.0000
     28  C3C       38.0520   26.9700   13.1600 C.2   142  HEM142      0.0000
     29  C4C       39.2860   27.2000   13.9200 C.2   142  HEM142      0.0000
     30  CMC       36.4740   28.5570   11.8950 C.3   142  HEM142      0.0000
     31  CAC       37.6350   25.7780   12.5640 C.3   142  HEM142      0.0000
     32  CBC       36.4280   25.2070   12.9790 C.3   142  HEM142      0.0000
     33  ND        41.6950   27.7550   15.7320 N.ar  142  HEM142      0.0000
     34  C1D       41.2180   26.4620   15.3120 C.ar  142  HEM142      0.0000
     35  C2D       42.1910   25.4530   15.6830 C.ar  142  HEM142      0.0000
     36  C3D       43.2150   26.0490   16.3480 C.ar  142  HEM142      0.0000
     37  C4D       42.9220   27.5140   16.3580 C.ar  142  HEM142      0.0000
     38  CMD       41.9930   23.9760   15.4500 C.3   142  HEM142      0.0000
     39  CAD       44.1270   25.3450   17.3360 C.3   142  HEM142      0.0000
     40  CBD       43.3140   24.9100   18.5600 C.3   142  HEM142      0.0000
     41  CGD       44.0340   23.8430   19.3560 C.2   142  HEM142      0.0000
     42  O1D       44.3280   22.7680   18.7610 O.co2 142  HEM142      0.0000
     43  O2D       44.4110   24.1150   20.5200 O.co2 142  HEM142      0.0000
@<TRIPOS>BOND
     1    30    27    1
     2    31    32    1
     3    31    28    1
     4    27    28    2
     5    27    26    1
     6    23    24    1
     7    23    20    1
     8    28    29    1
     9     4    26    2
    10     4    21    1
    11    26    25    1
    12    20    21   ar
    13    20    19   ar
    14    29    25    2
    15    29     5    1
    16    21    17   ar
    17    25     1    1
    18     5    34    2
    19    19    18   ar
    20    19    22    1
    21    17    18   ar
    22    17     1    1
    23    18     3    1
    24     1    33    1
    25     1     6    1
    26    34    35   ar
    27    34    33   ar
    28    38    35    1
    29    35    36   ar
    30    33    37   ar
    31     3    10    2
    32    36    37   ar
    33    36    39    1
    34    37     2    2
    35     6    10    1
    36     6     7    2
    37    10     9    1
    38     2     7    1
    39     7     8    1
    40    39    40    1
    41     9     8    2
    42     9    11    1
    43     8    12    1
    44    16    14   ar
    45    13    14    1
    46    13    12    1
    47    40    41    1
    48    14    15   ar
    49    42    41   ar
    50    41    43   ar
