@<TRIPOS>MOLECULE
2hbf_HEM_A_1.pdb
 43 50 0 0 0
SMALL
GASTEIGER

@<TRIPOS>ATOM
      1 FE         40.9450   29.6630   15.2200 Fe    142  HEM142      0.0000
      2  CHA       43.5800   28.5000   17.1400 C.2   142  HEM142      0.0000
      3  CHB       41.5940   32.8200   16.3030 C.2   142  HEM142      0.0000
      4  CHC       38.4250   30.7880   13.3460 C.2   142  HEM142      0.0000
      5  CHD       40.2950   26.4870   14.1690 C.2   142  HEM142      0.0000
      6  NA        42.2860   30.4050   16.5170 N.2   142  HEM142      0.0000
      7  C1A       43.3200   29.8240   17.2350 C.2   142  HEM142      0.0000
      8  C2A       44.1430   30.8070   18.0400 C.2   142  HEM142      0.0000
      9  C3A       43.5320   31.9630   17.6960 C.2   142  HEM142      0.0000
     10  C4A       42.4270   31.7500   16.7960 C.2   142  HEM142      0.0000
     11  CMA       43.6690   33.3660   18.2720 C.3   142  HEM142      0.0000
     12  CAA       45.3170   30.5930   19.0410 C.3   142  HEM142      0.0000
     13  CBA       46.5870   31.1420   18.3660 C.3   142  HEM142      0.0000
     14  CGA       47.9130   30.4700   18.8050 C.2   142  HEM142      0.0000
     15  O1A       48.9910   30.9370   18.3340 O.co2 142  HEM142      0.0000
     16  O2A       47.8930   29.4200   19.5080 O.co2 142  HEM142      0.0000
     17  NB        40.1730   31.4390   14.8980 N.ar  142  HEM142      0.0000
     18  C1B       40.5800   32.6660   15.3910 C.ar  142  HEM142      0.0000
     19  C2B       39.7610   33.7700   14.8820 C.ar  142  HEM142      0.0000
     20  C3B       38.9450   33.1610   14.0350 C.ar  142  HEM142      0.0000
     21  C4B       39.1390   31.7310   14.1230 C.ar  142  HEM142      0.0000
     22  CMB       39.7420   35.2170   15.2540 C.3   142  HEM142      0.0000
     23  CAB       38.2110   33.7800   13.0210 C.3   142  HEM142      0.0000
     24  CBB       37.0780   34.6160   13.1810 C.3   142  HEM142      0.0000
     25  NC        39.6140   28.7990   13.9250 N.2   142  HEM142      0.0000
     26  C1C       38.6450   29.4090   13.2070 C.2   142  HEM142      0.0000
     27  C2C       37.6770   28.4650   12.7060 C.2   142  HEM142      0.0000
     28  C3C       38.0870   27.2430   13.1060 C.2   142  HEM142      0.0000
     29  C4C       39.3550   27.4750   13.7660 C.2   142  HEM142      0.0000
     30  CMC       36.5680   28.7920   11.7280 C.3   142  HEM142      0.0000
     31  CAC       37.6500   26.0170   12.6130 C.2   142  HEM142      0.0000
     32  CBC       36.7130   25.2700   13.1740 C.2   142  HEM142      0.0000
     33  ND        41.7720   27.9200   15.5210 N.ar  142  HEM142      0.0000
     34  C1D       41.4090   26.6920   14.9390 C.ar  142  HEM142      0.0000
     35  C2D       42.3060   25.5930   15.3920 C.ar  142  HEM142      0.0000
     36  C3D       43.2360   26.2180   16.1750 C.ar  142  HEM142      0.0000
     37  C4D       42.8870   27.6310   16.3090 C.ar  142  HEM142      0.0000
     38  CMD       42.0650   24.0690   15.3110 C.3   142  HEM142      0.0000
     39  CAD       44.2660   25.5690   16.9930 C.3   142  HEM142      0.0000
     40  CBD       43.3270   25.1990   18.1110 C.3   142  HEM142      0.0000
     41  CGD       43.9950   24.4720   19.2450 C.2   142  HEM142      0.0000
     42  O1D       45.2050   24.1370   19.1720 O.co2 142  HEM142      0.0000
     43  O2D       43.2960   24.3050   20.2620 O.co2 142  HEM142      0.0000
@<TRIPOS>BOND
     1    30    27    1
     2    31    28    1
     3    31    32    2
     4    27    28    2
     5    27    26    1
     6    23    24    1
     7    23    20    1
     8    28    29    1
     9    26     4    2
    10    26    25    1
    11     4    21    1
    12    29    25    2
    13    29     5    1
    14    25     1    1
    15    20    21   ar
    16    20    19   ar
    17    21    17   ar
    18     5    34    2
    19    19    22    1
    20    19    18   ar
    21    17     1    1
    22    17    18   ar
    23    34    35   ar
    24    34    33   ar
    25     1    33    1
    26     1     6    1
    27    38    35    1
    28    18     3    1
    29    35    36   ar
    30    33    37   ar
    31    36    37   ar
    32    36    39    1
    33     3    10    2
    34    37     2    2
    35     6    10    1
    36     6     7    2
    37    10     9    1
    38    39    40    1
    39     2     7    1
    40     7     8    1
    41     9     8    2
    42     9    11    1
    43     8    12    1
    44    40    41    1
    45    15    14   ar
    46    13    14    1
    47    13    12    1
    48    14    16   ar
    49    42    41   ar
    50    41    43   ar
