@<TRIPOS>MOLECULE
2hbg_HEM_A_1.pdb
 43 50 0 0 0
SMALL
GASTEIGER

@<TRIPOS>ATOM
      1 FE          2.6300   10.7950    3.2350 Fe    148  HEM148      0.0000
      2  CHA        2.8300   10.2640   -0.1430 C.2   148  HEM148      0.0000
      3  CHB        0.8870    7.9270    3.5680 C.2   148  HEM148      0.0000
      4  CHC        3.0110   10.9580    6.6830 C.2   148  HEM148      0.0000
      5  CHD        4.7480   13.4570    2.9200 C.2   148  HEM148      0.0000
      6  NA         1.9550    9.3770    1.9760 N.2   148  HEM148      0.0000
      7  C1A        2.1850    9.3300    0.6130 C.2   148  HEM148      0.0000
      8  C2A        1.5470    8.0910    0.0520 C.2   148  HEM148      0.0000
      9  C3A        0.9280    7.5100    1.0760 C.2   148  HEM148      0.0000
     10  C4A        1.1800    8.2850    2.2830 C.2   148  HEM148      0.0000
     11  CMA        0.1030    6.2100    1.0530 C.3   148  HEM148      0.0000
     12  CAA        1.3060    7.9820   -1.4580 C.3   148  HEM148      0.0000
     13  CBA        2.0790    7.1230   -2.3980 C.3   148  HEM148      0.0000
     14  CGA        1.4260    7.1090   -3.8150 C.3   148  HEM148      0.0000
     15  O1A        0.2560    6.5570   -3.8110 O.2   148  HEM148      0.0000
     16  O2A        1.4320    8.3100   -4.3260 O.2   148  HEM148      0.0000
     17  NB         2.1330    9.6060    4.8030 N.ar  148  HEM148      0.0000
     18  C1B        1.1250    8.6380    4.7330 C.ar  148  HEM148      0.0000
     19  C2B        0.8580    8.1420    6.0670 C.ar  148  HEM148      0.0000
     20  C3B        1.5470    8.8840    6.9320 C.ar  148  HEM148      0.0000
     21  C4B        2.2910    9.8870    6.1320 C.ar  148  HEM148      0.0000
     22  CMB       -0.0180    6.9010    6.3640 C.3   148  HEM148      0.0000
     23  CAB        1.4360    8.9730    8.4530 C.2   148  HEM148      0.0000
     24  CBB        1.4100    7.7920    9.1470 C.2   148  HEM148      0.0000
     25  NC         3.7210   11.9440    4.5760 N.2   148  HEM148      0.0000
     26  C1C        3.6120   11.9500    5.9340 C.2   148  HEM148      0.0000
     27  C2C        4.5880   12.9090    6.4530 C.2   148  HEM148      0.0000
     28  C3C        5.0090   13.6450    5.4250 C.2   148  HEM148      0.0000
     29  C4C        4.3680   13.1000    4.2190 C.2   148  HEM148      0.0000
     30  CMC        4.7250   13.2420    7.9730 C.3   148  HEM148      0.0000
     31  CAC        5.9130   14.8730    5.3670 C.2   148  HEM148      0.0000
     32  CBC        6.2660   15.5520    6.4090 C.2   148  HEM148      0.0000
     33  ND         3.6530   11.6140    1.7230 N.ar  148  HEM148      0.0000
     34  C1D        4.4300   12.7950    1.7770 C.ar  148  HEM148      0.0000
     35  C2D        4.8480   13.1450    0.4170 C.ar  148  HEM148      0.0000
     36  C3D        4.4940   12.1170   -0.3820 C.ar  148  HEM148      0.0000
     37  C4D        3.5620   11.3130    0.3900 C.ar  148  HEM148      0.0000
     38  CMD        5.8310   14.2810    0.0830 C.3   148  HEM148      0.0000
     39  CAD        4.6290   12.0520   -1.9120 C.3   148  HEM148      0.0000
     40  CBD        3.4570   12.5180   -2.7640 C.3   148  HEM148      0.0000
     41  CGD        3.0820   13.9430   -2.7450 C.2   148  HEM148      0.0000
     42  O1D        1.8730   14.2780   -2.4410 O.co2 148  HEM148      0.0000
     43  O2D        4.0100   14.8410   -2.5350 O.co2 148  HEM148      0.0000
@<TRIPOS>BOND
     1    16    14    1
     2    14    15    1
     3    14    13    1
     4    40    41    1
     5    40    39    1
     6    41    43   ar
     7    41    42   ar
     8    13    12    1
     9    39    36    1
    10    12     8    1
    11    36    37   ar
    12    36    35   ar
    13     2    37    2
    14     2     7    1
    15     8     7    1
    16     8     9    2
    17    38    35    1
    18    37    33   ar
    19    35    34   ar
    20     7     6    2
    21    11     9    1
    22     9    10    1
    23    33    34   ar
    24    33     1    1
    25    34     5    2
    26     6    10    1
    27     6     1    1
    28    10     3    2
    29     5    29    1
    30     1    25    1
    31     1    17    1
    32     3    18    1
    33    29    25    2
    34    29    28    1
    35    25    26    1
    36    18    17   ar
    37    18    19   ar
    38    17    21   ar
    39    31    28    1
    40    31    32    2
    41    28    27    2
    42    26    27    1
    43    26     4    2
    44    19    22    1
    45    19    20   ar
    46    21     4    1
    47    21    20   ar
    48    27    30    1
    49    20    23    1
    50    23    24    2
