@<TRIPOS>MOLECULE
2hbh_XE4_A_1.pdb
 29 31 0 0 0
SMALL
GASTEIGER

@<TRIPOS>ATOM
      1  C1         0.0030   38.8160   38.4540 C.3   500  XE4500      0.0591
      2  C2         0.7280   40.0250   39.1010 C.3   500  XE4500      0.1592
      3  C3         2.2080   40.1430   38.6570 C.3   500  XE4500      0.0707
      4  C4         3.0080   38.8450   38.9260 C.3   500  XE4500      0.1765
      5  C5         2.2840   37.6100   38.3560 C.2   500  XE4500      0.0039
      6  C6         0.7890   37.5130   38.6460 C.2   500  XE4500     -0.0213
      7  C7         0.1170   36.3960   39.0890 C.2   500  XE4500     -0.0051
      8  C8         0.6930   35.0580   39.3200 C.2   500  XE4500     -0.0088
      9  C9         0.1400   33.8710   38.9720 C.2   500  XE4500     -0.0445
     10  C10        2.9520   36.7020   37.5980 C.2   500  XE4500     -0.0024
     11  O1         0.6830   39.8830   40.5250 O.3   500  XE4500     -0.2227
     12  O2         4.3110   38.9580   38.3250 O.3   500  XE4500     -0.2182
     13  C11        0.8370   32.5350   39.2240 C.3   500  XE4500      0.0192
     14  C12        1.1460   31.8540   37.8480 C.3   500  XE4500      0.0146
     15  C13       -0.2310   31.5310   37.1680 C.3   500  XE4500      0.0016
     16  C14       -1.1690   32.7800   37.0130 C.3   500  XE4500      0.0044
     17  C15       -1.2220   33.7180   38.2610 C.3   500  XE4500      0.0220
     18  C16        2.2130   32.4810   39.9640 C.3   500  XE4500      0.0051
     19  C17        2.9050   31.1990   39.4160 C.3   500  XE4500      0.0133
     20  C18        1.9720   30.6270   38.3210 C.3   500  XE4500      0.0653
     21  C19        2.7080   29.9720   37.2040 C.1   500  XE4500     -0.0789
     22  C20        3.3000   29.4530   36.2770 C.1   500  XE4500     -0.0141
     23  C21        3.9660   28.8760   35.2070 C.1   500  XE4500     -0.0118
     24  C22        4.5420   28.3750   34.2650 C.1   500  XE4500     -0.0491
     25  C23        5.2370   27.7630   33.1220 C.3   500  XE4500      0.1802
     26  C24        4.2220   27.4420   32.0220 C.3   500  XE4500      0.0465
     27  O3         5.8450   26.5560   33.5700 O.3   500  XE4500     -0.2124
     28  C25        6.3340   28.6960   32.6020 C.3   500  XE4500      0.0465
     29  C26        2.0090   32.7680   36.8630 C.3   500  XE4500      0.0013
@<TRIPOS>BOND
     1    26    25    1
     2    28    25    1
     3    25    27    1
     4    25    24    1
     5    24    23    3
     6    23    22    1
     7    22    21    3
     8    29    14    1
     9    16    15    1
    10    16    17    1
    11    15    14    1
    12    21    20    1
    13    10     5    2
    14    14    20    1
    15    14    13    1
    16    17     9    1
    17    20    19    1
    18    12     4    1
    19     5     6    1
    20     5     4    1
    21     1     6    1
    22     1     2    1
    23     6     7    2
    24     3     4    1
    25     3     2    1
    26     9    13    1
    27     9     8    2
    28     7     8    1
    29     2    11    1
    30    13    18    1
    31    19    18    1
