@<TRIPOS>MOLECULE
2hbl_AMP_A_1.pdb
 23 25 0 0 0
SMALL
GASTEIGER

@<TRIPOS>ATOM
      1  P         72.0980   14.8400   12.6400 P.3   2001  AMP2001     0.5327
      2  O1P       72.5670   13.5740   13.3480 O.3   2001  AMP2001    -0.1145
      3  O2P       73.1130   15.3330   11.6090 O.2   2001  AMP2001    -0.2224
      4  O3P       71.6430   15.9070   13.6310 O.3   2001  AMP2001    -0.1145
      5  O5'       70.7730   14.4220   11.7830 O.3   2001  AMP2001    -0.2675
      6  C5'       70.8700   13.5080   10.6700 C.3   2001  AMP2001     0.1860
      7  C4'       69.4940   13.0600   10.2440 C.3   2001  AMP2001     0.1823
      8  O4'       68.8170   12.4850   11.3930 O.3   2001  AMP2001    -0.3135
      9  C3'       68.5590   14.1630    9.7690 C.3   2001  AMP2001     0.2184
     10  O3'       68.8010   14.6250    8.4260 O.3   2001  AMP2001    -0.2174
     11  C2'       67.1870   13.5540   10.0350 C.3   2001  AMP2001     0.2570
     12  O2'       66.7960   12.6220    9.0410 O.3   2001  AMP2001    -0.2130
     13  C1'       67.4400   12.8250   11.3590 C.3   2001  AMP2001     0.3186
     14  N9        67.1590   13.6400   12.5390 N.pl3 2001  AMP2001    -0.1439
     15  C8        68.0660   14.3440   13.2930 C.3   2001  AMP2001     0.3377
     16  N7        67.5300   14.9950   14.2970 N.2   2001  AMP2001    -0.2095
     17  C5        66.1770   14.6990   14.2000 C.2   2001  AMP2001     0.2526
     18  C6        65.0670   15.0890   14.9710 C.2   2001  AMP2001     0.4393
     19  N6        65.1470   15.9000   16.0300 N.pl3 2001  AMP2001     0.2180
     20  N1        63.8540   14.6150   14.6080 N.2   2001  AMP2001     0.0021
     21  C2        63.7730   13.8130   13.5370 C.3   2001  AMP2001     0.5254
     22  N3        64.7420   13.3800   12.7310 N.2   2001  AMP2001    -0.0055
     23  C4        65.9340   13.8640   13.1220 C.2   2001  AMP2001     0.3518
@<TRIPOS>BOND
     1    10     9    1
     2    12    11    1
     3     9    11    1
     4     9     7    1
     5    11    13    1
     6     7     6    1
     7     7     8    1
     8     6     5    1
     9    13     8    1
    10    13    14    1
    11     3     1    2
    12     5     1    1
    13    14    23    1
    14    14    15    1
    15     1     2    1
    16     1     4    1
    17    22    23    2
    18    22    21    1
    19    23    17    1
    20    15    16    1
    21    21    20    1
    22    17    16    2
    23    17    18    1
    24    20    18    2
    25    18    19    1
