@<TRIPOS>MOLECULE
2hbm_U_A_1.pdb
 21 22 0 0 0
SMALL
GASTEIGER

@<TRIPOS>ATOM
      1  OP3       71.4260   15.6500   13.8810 O.3   3001  U3001      -0.1145
      2  P         71.9400   14.9490   12.6320 P.3   3001  U3001       0.5327
      3  OP1       72.6210   13.6220   12.9310 O.3   3001  U3001      -0.1145
      4  OP2       72.8000   15.8430   11.7500 O.2   3001  U3001      -0.2224
      5  O5'       70.6160   14.5970   11.7490 O.3   3001  U3001      -0.2675
      6  C5'       70.7310   13.8850   10.5030 C.3   3001  U3001       0.1859
      7  C4'       69.3910   13.3270   10.0910 C.3   3001  U3001       0.1801
      8  O4'       68.7510   12.7310   11.2460 O.3   3001  U3001      -0.3320
      9  C3'       68.3680   14.3380    9.6010 C.3   3001  U3001       0.2158
     10  O3'       68.6190   14.7880    8.2620 O.3   3001  U3001      -0.2175
     11  C2'       67.0550   13.5890    9.8060 C.3   3001  U3001       0.2319
     12  O2'       66.7790   12.6670    8.7730 O.3   3001  U3001      -0.2157
     13  C1'       67.3430   12.8170   11.0980 C.3   3001  U3001       0.2401
     14  N1        66.7810   13.4430   12.3030 N.am  3001  U3001      -0.1766
     15  C2        65.4200   13.3270   12.4960 C.1   3001  U3001       0.2845
     16  O2        64.6960   12.7440   11.7100 O.2   3001  U3001      -0.1918
     17  N3        64.9400   13.9210   13.6380 N.2   3001  U3001      -0.2452
     18  C4        65.6700   14.6100   14.5850 C.1   3001  U3001       0.2182
     19  O4        65.0940   15.0940   15.5630 O.2   3001  U3001      -0.2085
     20  C5        67.0760   14.6890   14.3110 C.2   3001  U3001       0.1242
     21  C6        67.5700   14.1160   13.2070 C.2   3001  U3001       0.0929
@<TRIPOS>BOND
     1    10     9    1
     2    12    11    1
     3     9    11    1
     4     9     7    1
     5    11    13    1
     6     7     6    1
     7     7     8    1
     8     6     5    1
     9    13     8    1
    10    13    14    1
    11    16    15    2
    12     5     2    1
    13     4     2    2
    14    14    15   am
    15    14    21    1
    16    15    17    2
    17     2     3    1
    18     2     1    1
    19    21    20    2
    20    17    18    2
    21    20    18    1
    22    18    19    2
