@<TRIPOS>MOLECULE
2hbq_III_C_1.pdb
 31 31 0 0 0
SMALL
GASTEIGER

@<TRIPOS>ATOM
      1  C1        31.7270   66.6800    9.7880 C.2     1  PHQ1        0.4218
      2  O1        31.3250   66.2740   10.8680 O.2     1  PHQ1       -0.2245
      3  O2        32.1230   68.0740    9.6340 O.3     1  PHQ1       -0.4285
      4  C2        32.4190   68.9060   10.7580 C.3     1  PHQ1        0.2368
      5  C3        33.8650   69.3930   10.7140 C.ar    1  PHQ1        0.0213
      6  C4        34.3010   70.3180   11.6670 C.ar    1  PHQ1       -0.0007
      7  C5        35.6730   70.6010   11.7860 C.ar    1  PHQ1       -0.0002
      8  C6        36.5700   70.1230   10.8260 C.ar    1  PHQ1       -0.0000
      9  C7        36.1190   69.2850    9.7800 C.ar    1  PHQ1       -0.0002
     10  C8        34.7560   68.9150    9.7430 C.ar    1  PHQ1       -0.0007
     11  N         31.8310   65.9130    8.7050 N.am    2  VAL2       -0.1611
     12  CA        31.1770   64.6250    8.5340 C.3     2  VAL2        0.1760
     13  C         32.1590   63.6330    7.9620 C.2     2  VAL2        0.2617
     14  O         33.0300   64.0120    7.1930 O.2     2  VAL2       -0.2715
     15  CB        29.9190   64.8300    7.6760 C.3     2  VAL2        0.0291
     16  CG1       29.5110   63.6260    6.8300 C.3     2  VAL2        0.0023
     17  CG2       28.7380   65.2760    8.5360 C.3     2  VAL2        0.0023
     18  N         32.0350   62.3600    8.3470 N.am    3  ALA3       -0.1963
     19  CA        32.8390   61.2800    7.7920 C.3     3  ALA3        0.1728
     20  C         32.4470   60.9280    6.3830 C.2     3  ALA3        0.2613
     21  O         31.2770   60.9690    6.0380 O.2     3  ALA3       -0.2715
     22  CB        32.7370   60.0420    8.6770 C.3     3  ALA3        0.0334
     23  N         33.4430   60.5670    5.5670 N.am    4  ASP4       -0.2026
     24  CA        33.2370   60.1520    4.1850 C.3     4  ASP4        0.1368
     25  C         33.0550   58.6320    4.0260 C.3     4  ASP4        0.1724
     26  O         33.8610   58.1280    2.9680 O.3     4  ASP4       -0.2213
     27  CB        34.3620   60.7070    3.3070 C.3     4  ASP4        0.1382
     28  CG        33.8620   61.8400    2.4350 C.2     4  ASP4        0.3667
     29  OD1       32.6460   61.9020    2.1460 O.co2   4  ASP4       -0.2456
     30  OD2       34.6920   62.6810    2.0280 O.co2   4  ASP4       -0.2456
     31  C1        33.3440   57.8130    5.2830 C.3     5  CF05        0.0374
@<TRIPOS>BOND
     1    30    28   ar
     2    29    28   ar
     3    28    27    1
     4    26    25    1
     5    27    24    1
     6    25    24    1
     7    25    31    1
     8    24    23    1
     9    23    20   am
    10    21    20    2
    11    20    19    1
    12    16    15    1
    13    14    13    2
    14    15    12    1
    15    15    17    1
    16    19    18    1
    17    19    22    1
    18    13    18   am
    19    13    12    1
    20    12    11    1
    21    11     1   am
    22     3     1    1
    23     3     4    1
    24    10     9   ar
    25    10     5   ar
    26     9     8   ar
    27     1     2    2
    28     5     4    1
    29     5     6   ar
    30     8     7   ar
    31     6     7   ar
