@<TRIPOS>MOLECULE
2hbr_III_C_1.pdb
 31 31 0 0 0
SMALL
GASTEIGER

@<TRIPOS>ATOM
      1  C1        31.7360   66.2990   10.1800 C.2     1  PHQ1        0.4218
      2  O1        31.4660   65.8750   11.2940 O.2     1  PHQ1       -0.2245
      3  O2        31.9440   67.7270    9.9790 O.3     1  PHQ1       -0.4285
      4  C2        32.3440   68.5860   11.0490 C.3     1  PHQ1        0.2368
      5  C3        33.8140   68.9920   10.9370 C.ar    1  PHQ1        0.0213
      6  C4        34.3310   69.9360   11.8300 C.ar    1  PHQ1       -0.0007
      7  C5        35.6900   70.2630   11.8000 C.ar    1  PHQ1       -0.0002
      8  C6        36.5420   69.6260   10.8930 C.ar    1  PHQ1       -0.0000
      9  C7        36.0340   68.6510   10.0310 C.ar    1  PHQ1       -0.0002
     10  C8        34.6560   68.4210    9.9760 C.ar    1  PHQ1       -0.0007
     11  N         31.8590   65.5200    9.1050 N.am    2  VAL2       -0.1611
     12  CA        31.1420   64.2710    8.9040 C.3     2  VAL2        0.1760
     13  C         32.0590   63.2490    8.2870 C.2     2  VAL2        0.2617
     14  O         32.9030   63.6000    7.4750 O.2     2  VAL2       -0.2715
     15  CB        29.8770   64.5440    8.0760 C.3     2  VAL2        0.0291
     16  CG1       29.5160   63.4540    7.0670 C.3     2  VAL2        0.0023
     17  CG2       28.6880   64.8190    8.9920 C.3     2  VAL2        0.0023
     18  N         31.9000   61.9850    8.6870 N.am    3  ALA3       -0.1963
     19  CA        32.6920   60.8770    8.1780 C.3     3  ALA3        0.1728
     20  C         32.3200   60.5010    6.7710 C.2     3  ALA3        0.2613
     21  O         31.1460   60.4750    6.4280 O.2     3  ALA3       -0.2715
     22  CB        32.5430   59.6620    9.0870 C.3     3  ALA3        0.0334
     23  N         33.3430   60.2010    5.9640 N.am    4  ASP4       -0.2026
     24  CA        33.2140   59.9650    4.5320 C.3     4  ASP4        0.1368
     25  C         33.0830   58.4740    4.1810 C.3     4  ASP4        0.1724
     26  O         33.9650   58.1260    3.1220 O.3     4  ASP4       -0.2213
     27  CB        34.3740   60.6390    3.7910 C.3     4  ASP4        0.1382
     28  CG        33.8850   61.6880    2.8140 C.2     4  ASP4        0.3667
     29  OD1       32.6620   61.7900    2.5700 O.co2   4  ASP4       -0.2456
     30  OD2       34.7360   62.4310    2.2750 O.co2   4  ASP4       -0.2456
     31  C1        33.3340   57.5190    5.3480 C.3     5  CF05        0.0374
@<TRIPOS>BOND
     1    30    28   ar
     2    29    28   ar
     3    28    27    1
     4    26    25    1
     5    27    24    1
     6    25    24    1
     7    25    31    1
     8    24    23    1
     9    23    20   am
    10    21    20    2
    11    20    19    1
    12    16    15    1
    13    14    13    2
    14    15    12    1
    15    15    17    1
    16    19    18    1
    17    19    22    1
    18    13    18   am
    19    13    12    1
    20    12    11    1
    21    11     1   am
    22    10     9   ar
    23    10     5   ar
    24     3     1    1
    25     3     4    1
    26     9     8   ar
    27     1     2    2
    28     8     7   ar
    29     5     4    1
    30     5     6   ar
    31     7     6   ar
