@<TRIPOS>MOLECULE
2hbs_HEM_A_1.pdb
 43 50 0 0 0
SMALL
GASTEIGER

@<TRIPOS>ATOM
      1 FE         11.2540    7.6420   32.4830 Fe    153  HEM153      0.0000
      2  CHA       11.5070    4.6050   33.9490 C.2   153  HEM153      0.0000
      3  CHB       13.3110    6.5390   29.9750 C.2   153  HEM153      0.0000
      4  CHC       11.8180   10.8430   31.2750 C.2   153  HEM153      0.0000
      5  CHD       10.5770    9.0370   35.5420 C.2   153  HEM153      0.0000
      6  NA        12.1290    5.9440   32.0080 N.ar  153  HEM153      0.0000
      7  C1A       12.0750    4.7620   32.7060 C.ar  153  HEM153      0.0000
      8  C2A       12.8590    3.7450   32.0530 C.ar  153  HEM153      0.0000
      9  C3A       13.3630    4.2540   30.9080 C.ar  153  HEM153      0.0000
     10  C4A       12.9370    5.6530   30.9240 C.ar  153  HEM153      0.0000
     11  CMA       14.1310    3.4840   29.8210 C.3   153  HEM153      0.0000
     12  CAA       13.0790    2.3300   32.5420 C.3   153  HEM153      0.0000
     13  CBA       11.8840    1.4880   32.1240 C.3   153  HEM153      0.0000
     14  CGA       11.9460    0.0690   32.6620 C.2   153  HEM153      0.0000
     15  O1A       11.7340   -0.8740   31.8730 O.co2 153  HEM153      0.0000
     16  O2A       12.2010   -0.1030   33.8730 O.co2 153  HEM153      0.0000
     17  NB        12.1230    8.4290   30.8640 N.2   153  HEM153      0.0000
     18  C1B       12.9000    7.8130   29.9170 C.2   153  HEM153      0.0000
     19  C2B       13.2970    8.6770   28.8800 C.2   153  HEM153      0.0000
     20  C3B       12.8140    9.8880   29.2250 C.2   153  HEM153      0.0000
     21  C4B       12.1190    9.7430   30.4570 C.2   153  HEM153      0.0000
     22  CMB       14.0850    8.2990   27.6110 C.3   153  HEM153      0.0000
     23  CAB       12.9140   11.0830   28.5030 C.3   153  HEM153      0.0000
     24  CBB       14.1600   11.7970   28.3390 C.3   153  HEM153      0.0000
     25  NC        11.1470    9.5620   33.2290 N.ar  153  HEM153      0.0000
     26  C1C       11.4210   10.7780   32.5910 C.ar  153  HEM153      0.0000
     27  C2C       11.2210   11.9330   33.4840 C.ar  153  HEM153      0.0000
     28  C3C       10.8390   11.4300   34.6940 C.ar  153  HEM153      0.0000
     29  C4C       10.8150    9.9460   34.5160 C.ar  153  HEM153      0.0000
     30  CMC       11.1720   13.3900   33.0530 C.3   153  HEM153      0.0000
     31  CAC       10.4270   12.0880   35.8570 C.3   153  HEM153      0.0000
     32  CBC       11.1240   13.1130   36.5590 C.3   153  HEM153      0.0000
     33  ND        11.0300    6.9900   34.3040 N.2   153  HEM153      0.0000
     34  C1D       10.6580    7.6880   35.4530 C.2   153  HEM153      0.0000
     35  C2D       10.3680    6.7930   36.5640 C.2   153  HEM153      0.0000
     36  C3D       10.6290    5.5310   36.1380 C.2   153  HEM153      0.0000
     37  C4D       11.0460    5.6470   34.7270 C.2   153  HEM153      0.0000
     38  CMD        9.8340    7.1780   37.9320 C.3   153  HEM153      0.0000
     39  CAD       10.5460    4.2730   37.0010 C.3   153  HEM153      0.0000
     40  CBD       11.8970    3.9410   37.6020 C.3   153  HEM153      0.0000
     41  CGD       11.8290    2.8680   38.6770 C.2   153  HEM153      0.0000
     42  O1D       12.7760    2.0730   38.7870 O.co2 153  HEM153      0.0000
     43  O2D       10.8490    2.8300   39.4470 O.co2 153  HEM153      0.0000
@<TRIPOS>BOND
     1    22    19    1
     2    24    23    1
     3    23    20    1
     4    19    20    2
     5    19    18    1
     6    20    21    1
     7    11     9    1
     8    18     3    1
     9    18    17    2
    10     3    10    2
    11    21    17    1
    12    21     4    2
    13    17     1    1
    14     9    10   ar
    15     9     8   ar
    16    10     6   ar
    17     4    26    1
    18    15    14   ar
    19     6     1    1
    20     6     7   ar
    21     8    12    1
    22     8     7   ar
    23    13    12    1
    24    13    14    1
    25     1    25    1
    26     1    33    1
    27    26    25   ar
    28    26    27   ar
    29    14    16   ar
    30     7     2    2
    31    30    27    1
    32    25    29   ar
    33    27    28   ar
    34     2    37    1
    35    33    37    2
    36    33    34    1
    37    29    28   ar
    38    29     5    1
    39    28    31    1
    40    37    36    1
    41    34     5    2
    42    34    35    1
    43    31    32    1
    44    36    35    2
    45    36    39    1
    46    35    38    1
    47    39    40    1
    48    40    41    1
    49    41    42   ar
    50    41    43   ar
