@<TRIPOS>MOLECULE
2hbt_UN9_A_1.pdb
 19 20 0 0 0
SMALL
GASTEIGER

@<TRIPOS>ATOM
      1  O18      -36.9190  -17.0380    3.2870 O.co2   1  UN91       -0.2437
      2  C16      -36.3000  -17.6960    4.1450 C.2     1  UN91        0.3865
      3  O17      -35.1260  -17.5430    4.5020 O.co2   1  UN91       -0.2437
      4  C15      -37.0390  -18.7900    4.8810 C.3     1  UN91        0.2288
      5  N14      -38.4060  -18.8030    4.5220 N.am    1  UN91       -0.1874
      6  C12      -39.2440  -19.8240    4.9170 C.2     1  UN91        0.2937
      7  O13      -38.9280  -20.6140    5.7970 O.2     1  UN91       -0.2658
      8  C9       -40.6110  -19.9510    4.3540 C.2     1  UN91        0.1991
      9  N8       -41.2440  -21.1380    4.5400 N.2     1  UN91       -0.3872
     10  C7       -42.4760  -21.3690    4.1160 C.2     1  UN91        0.1883
     11 CL1       -43.0520  -22.9020    4.4600 Cl      1  UN91       -0.0480
     12  C2       -43.1630  -20.3850    3.4200 C.ar    1  UN91        0.0394
     13  C10      -41.2490  -18.9030    3.6760 C.3     1  UN91        0.2306
     14  O19      -40.6320  -17.7280    3.4210 O.3     1  UN91       -0.2104
     15  C3       -42.5390  -19.1490    3.1740 C.ar    1  UN91        0.0180
     16  C4       -43.2560  -18.1280    2.5360 C.ar    1  UN91       -0.0013
     17  C5       -44.5410  -18.2980    2.0590 C.ar    1  UN91       -0.0002
     18  C6       -45.1740  -19.5410    2.2490 C.ar    1  UN91        0.0001
     19  C1       -44.5180  -20.5570    2.9580 C.ar    1  UN91        0.0032
@<TRIPOS>BOND
     1    17    18   ar
     2    17    16   ar
     3    18    19   ar
     4    16    15   ar
     5    19    12   ar
     6    15    12   ar
     7    15    13    1
     8     1     2   ar
     9    12    10    1
    10    14    13    1
    11    13     8    1
    12    10    11    1
    13    10     9    2
    14     2     3   ar
    15     2     4    1
    16     8     9    2
    17     8     6    1
    18     5     4    1
    19     5     6   am
    20     6     7    2
