@<TRIPOS>MOLECULE
2hbu_UN9_A_1.pdb
 19 20 0 0 0
SMALL
GASTEIGER

@<TRIPOS>ATOM
      1  O18      -36.9050  -17.0500    3.3600 O.co2   1  UN91       -0.2437
      2  C16      -36.2920  -17.7030    4.2480 C.2     1  UN91        0.3865
      3  O17      -35.1120  -17.5330    4.6060 O.co2   1  UN91       -0.2437
      4  C15      -37.0570  -18.7560    5.0040 C.3     1  UN91        0.2288
      5  N14      -38.4230  -18.7710    4.4950 N.am    1  UN91       -0.1874
      6  C12      -39.2850  -19.7370    4.8740 C.2     1  UN91        0.2937
      7  O13      -38.9910  -20.6250    5.6850 O.2     1  UN91       -0.2658
      8  C9       -40.6440  -19.8540    4.3190 C.2     1  UN91        0.1991
      9  N8       -41.1890  -21.0910    4.5390 N.2     1  UN91       -0.3872
     10  C7       -42.4160  -21.3140    4.0650 C.2     1  UN91        0.1883
     11 CL1       -43.0990  -22.9290    4.3570 Cl      1  UN91       -0.0480
     12  C2       -43.1490  -20.3560    3.3570 C.ar    1  UN91        0.0394
     13  C10      -41.2900  -18.8650    3.5990 C.3     1  UN91        0.2306
     14  O19      -40.6100  -17.6990    3.4440 O.3     1  UN91       -0.2104
     15  C3       -42.5990  -19.1070    3.1150 C.ar    1  UN91        0.0180
     16  C4       -43.3360  -18.1600    2.4050 C.ar    1  UN91       -0.0013
     17  C5       -44.6200  -18.4780    1.9500 C.ar    1  UN91       -0.0002
     18  C6       -45.1440  -19.7350    2.1860 C.ar    1  UN91        0.0001
     19  C1       -44.4320  -20.7030    2.9100 C.ar    1  UN91        0.0032
@<TRIPOS>BOND
     1    17    18   ar
     2    17    16   ar
     3    18    19   ar
     4    16    15   ar
     5    19    12   ar
     6    15    12   ar
     7    15    13    1
     8    12    10    1
     9     1     2   ar
    10    14    13    1
    11    13     8    1
    12    10    11    1
    13    10     9    2
    14     2     3   ar
    15     2     4    1
    16     8     9    2
    17     8     6    1
    18     5     6   am
    19     5     4    1
    20     6     7    2
