@<TRIPOS>MOLECULE
2hby_III_C_1.pdb
 31 31 0 0 0
SMALL
GASTEIGER

@<TRIPOS>ATOM
      1  C1        31.9400   66.5990   10.1180 C.2     1  PHQ1        0.4218
      2  O1        31.5400   66.1340   11.1740 O.2     1  PHQ1       -0.2245
      3  O2        32.2080   68.0280   10.0070 O.3     1  PHQ1       -0.4285
      4  C2        32.5850   68.8150   11.1390 C.3     1  PHQ1        0.2368
      5  C3        34.0190   69.3250   11.0250 C.ar    1  PHQ1        0.0213
      6  C4        34.4700   70.2980   11.9230 C.ar    1  PHQ1       -0.0007
      7  C5        35.8240   70.6450   11.9590 C.ar    1  PHQ1       -0.0002
      8  C6        36.7220   70.0410   11.0760 C.ar    1  PHQ1       -0.0000
      9  C7        36.2660   69.0810   10.1660 C.ar    1  PHQ1       -0.0002
     10  C8        34.8980   68.8170   10.0620 C.ar    1  PHQ1       -0.0007
     11  N         32.1490   65.8640    9.0280 N.am    2  VAL2       -0.1611
     12  CA        31.4510   64.6250    8.7250 C.3     2  VAL2        0.1760
     13  C         32.4040   63.6550    8.0770 C.2     2  VAL2        0.2617
     14  O         33.2110   64.0500    7.2470 O.2     2  VAL2       -0.2715
     15  CB        30.2170   64.9340    7.8630 C.3     2  VAL2        0.0291
     16  CG1       29.8040   63.8150    6.9100 C.3     2  VAL2        0.0023
     17  CG2       29.0260   65.3140    8.7400 C.3     2  VAL2        0.0023
     18  N         32.3170   62.3810    8.4630 N.am    3  ALA3       -0.1963
     19  CA        33.1740   61.3380    7.9230 C.3     3  ALA3        0.1728
     20  C         32.7670   60.9300    6.5360 C.2     3  ALA3        0.2613
     21  O         31.5880   60.8890    6.2200 O.2     3  ALA3       -0.2715
     22  CB        33.1720   60.1210    8.8430 C.3     3  ALA3        0.0334
     23  N         33.7630   60.6180    5.7020 N.am    4  ASP4       -0.2026
     24  CA        33.5380   60.2720    4.3050 C.3     4  ASP4        0.1368
     25  C         33.3700   58.7570    4.0800 C.3     4  ASP4        0.1724
     26  O         34.1690   58.3030    2.9970 O.3     4  ASP4       -0.2213
     27  CB        34.6200   60.8990    3.4250 C.3     4  ASP4        0.1382
     28  CG        34.0630   62.0630    2.6300 C.2     4  ASP4        0.3667
     29  OD1       32.8330   62.1340    2.3990 O.co2   4  ASP4       -0.2456
     30  OD2       34.8670   62.9260    2.2210 O.co2   4  ASP4       -0.2456
     31  C1        33.6720   57.8860    5.3000 C.3     5  CF05        0.0374
@<TRIPOS>BOND
     1    30    28   ar
     2    29    28   ar
     3    28    27    1
     4    26    25    1
     5    27    24    1
     6    25    24    1
     7    25    31    1
     8    24    23    1
     9    23    20   am
    10    21    20    2
    11    20    19    1
    12    16    15    1
    13    14    13    2
    14    15    12    1
    15    15    17    1
    16    19    18    1
    17    19    22    1
    18    13    18   am
    19    13    12    1
    20    12    11    1
    21    11     1   am
    22     3     1    1
    23     3     4    1
    24    10     9   ar
    25    10     5   ar
    26     1     2    2
    27     9     8   ar
    28     5     4    1
    29     5     6   ar
    30     8     7   ar
    31     6     7   ar
