@<TRIPOS>MOLECULE
2hbz_III_C_1.pdb
 31 31 0 0 0
SMALL
GASTEIGER

@<TRIPOS>ATOM
      1  C1        58.2050   37.0760   50.1870 C.2     1  PHQ1        0.4218
      2  O1        58.8530   36.9250   51.2120 O.2     1  PHQ1       -0.2245
      3  O2        56.7710   37.3210   50.2640 O.3     1  PHQ1       -0.4285
      4  C2        56.1660   37.8610   51.4390 C.3     1  PHQ1        0.2368
      5  C3        55.6820   39.2930   51.2220 C.ar    1  PHQ1        0.0213
      6  C4        54.9200   39.9130   52.2170 C.ar    1  PHQ1       -0.0007
      7  C5        54.5990   41.2700   52.1140 C.ar    1  PHQ1       -0.0002
      8  C6        54.9950   41.9970   50.9880 C.ar    1  PHQ1       -0.0000
      9  C7        55.7210   41.3680   49.9740 C.ar    1  PHQ1       -0.0002
     10  C8        56.0090   40.0030   50.0610 C.ar    1  PHQ1       -0.0007
     11  N         58.7380   37.0270   48.9690 N.am    2  VAL2       -0.1611
     12  CA        59.9450   36.2880   48.6420 C.3     2  VAL2        0.1760
     13  C         60.8230   37.1190   47.7440 C.2     2  VAL2        0.2617
     14  O         60.3240   37.7990   46.8570 O.2     2  VAL2       -0.2715
     15  CB        59.5650   34.9270   48.0370 C.3     2  VAL2        0.0291
     16  CG1       60.5750   34.3650   47.0400 C.3     2  VAL2        0.0023
     17  CG2       59.3220   33.8970   49.1370 C.3     2  VAL2        0.0023
     18  N         62.1340   37.0650   47.9880 N.am    3  ALA3       -0.1963
     19  CA        63.1150   37.7910   47.1980 C.3     3  ALA3        0.1728
     20  C         63.3270   37.1750   45.8450 C.2     3  ALA3        0.2613
     21  O         63.3100   35.9610   45.7090 O.2     3  ALA3       -0.2715
     22  CB        64.4410   37.8760   47.9470 C.3     3  ALA3        0.0334
     23  N         63.5350   38.0330   44.8410 N.am    4  ASP4       -0.2026
     24  CA        63.6720   37.6250   43.4490 C.3     4  ASP4        0.1368
     25  C         65.1340   37.3730   43.0320 C.3     4  ASP4        0.1724
     26  O         65.4240   37.9550   41.7670 O.3     4  ASP4       -0.2213
     27  CB        62.9530   38.6270   42.5450 C.3     4  ASP4        0.1382
     28  CG        61.7150   38.0080   41.9310 C.2     4  ASP4        0.3667
     29  OD1       61.6050   36.7620   41.8710 O.co2   4  ASP4       -0.2456
     30  OD2       60.8350   38.7800   41.4940 O.co2   4  ASP4       -0.2456
     31  C1        66.1810   37.8550   44.0340 C.3     5  CF05        0.0374
@<TRIPOS>BOND
     1    30    28   ar
     2    26    25    1
     3    29    28   ar
     4    28    27    1
     5    27    24    1
     6    25    24    1
     7    25    31    1
     8    24    23    1
     9    23    20   am
    10    21    20    2
    11    20    19    1
    12    14    13    2
    13    16    15    1
    14    19    22    1
    15    19    18    1
    16    13    18   am
    17    13    12    1
    18    15    12    1
    19    15    17    1
    20    12    11    1
    21    11     1   am
    22     9    10   ar
    23     9     8   ar
    24    10     5   ar
    25     1     3    1
    26     1     2    2
    27     3     4    1
    28     8     7   ar
    29     5     4    1
    30     5     6   ar
    31     7     6   ar
