@<TRIPOS>MOLECULE
2hc0_AB2_A_1.pdb
 47 51 0 0 0
SMALL
GASTEIGER

@<TRIPOS>ATOM
      1  C1        53.1930   23.5340    6.0630 C.3   3500  AB23500     0.2525
      2  O1        54.4760   23.3770    6.6050 O.3   3500  AB23500    -0.4714
      3  C2        55.1990   22.2550    6.9650 C.ar  3500  AB23500     0.1388
      4  C3        56.2500   22.2870    7.9880 C.ar  3500  AB23500     0.0383
      5  C4        56.9620   21.0680    8.2780 C.ar  3500  AB23500     0.0230
      6  C5        56.6630   19.8790    7.5740 C.ar  3500  AB23500     0.1224
      7  C6        55.5830   19.8640    6.5960 C.ar  3500  AB23500     0.0230
      8  C7        54.8740   21.0580    6.2690 C.ar  3500  AB23500     0.0383
      9  S1        57.7370   18.4360    7.6840 S.O2  3500  AB23500     0.0634
     10  O2        57.9130   18.2340    9.0710 O.2   3500  AB23500    -0.1528
     11  O3        57.0780   17.3690    7.0930 O.2   3500  AB23500    -0.1528
     12  N1        59.1490   18.8140    6.7520 N.3   3500  AB23500    -0.1529
     13  C8        59.2890   19.0050    5.3030 C.3   3500  AB23500     0.0958
     14  C9        60.3740   18.4170    4.4010 C.3   3500  AB23500     0.0178
     15  C10       59.9670   18.2810    2.9300 C.3   3500  AB23500     0.0015
     16  C11       61.6030   19.3230    4.5080 C.3   3500  AB23500     0.0015
     17  C12       60.3150   19.1620    7.5380 C.3   3500  AB23500     0.1300
     18  C13       61.4050   18.3390    8.0130 C.3   3500  AB23500     0.1861
     19  O4        62.6320   18.8780    8.3770 O.3   3500  AB23500    -0.2201
     20  C14       60.8940   16.9650    8.5600 C.3   3500  AB23500     0.1156
     21  C15       61.3680   17.2940   10.0370 C.3   3500  AB23500     0.0468
     22  C16       60.5760   16.3180   10.9400 C.ar  3500  AB23500    -0.0207
     23  C17       59.3020   16.7480   11.4530 C.ar  3500  AB23500    -0.0042
     24  C18       58.5860   15.8110   12.2840 C.ar  3500  AB23500    -0.0003
     25  C19       59.1750   14.5390   12.5560 C.ar  3500  AB23500    -0.0000
     26  C20       60.4510   14.1180   12.0740 C.ar  3500  AB23500    -0.0003
     27  C21       61.1470   15.0290   11.2050 C.ar  3500  AB23500    -0.0042
     28  N2        61.5050   15.6960    8.0910 N.3   3500  AB23500    -0.1618
     29  C22       62.7950   15.2510    8.0420 C.3   3500  AB23500     0.1419
     30  C23       62.7610   13.9900    7.5000 C.2   3500  AB23500     0.1186
     31  C24       63.9280   13.0300    7.2490 C.3   3500  AB23500     0.2543
     32  O5        64.6120   12.4660    8.3730 O.3   3500  AB23500    -0.4271
     33  C25       64.0400   11.4310    9.1890 C.2   3500  AB23500     0.4218
     34  O6        62.9470   10.9320    9.1830 O.2   3500  AB23500    -0.2245
     35  N3        64.5300   11.7200   10.3400 N.am  3500  AB23500    -0.1634
     36  C26       64.5210   11.0710   11.5830 C.3   3500  AB23500     0.1511
     37  C27       64.1110   10.0950   12.6660 C.3   3500  AB23500     0.1803
     38  O7        64.0730    8.6790   12.4480 O.3   3500  AB23500    -0.2206
     39  C28       62.8510   10.7790   13.1870 C.3   3500  AB23500     0.0611
     40  C29       63.4330   12.1830   13.4170 C.ar  3500  AB23500    -0.0218
     41  C30       62.9040   13.2990   14.1220 C.ar  3500  AB23500    -0.0044
     42  C31       63.2250   14.6700   13.7450 C.ar  3500  AB23500    -0.0003
     43  C32       64.1130   14.8980   12.6360 C.ar  3500  AB23500    -0.0003
     44  C33       64.6100   13.7750   11.9070 C.ar  3500  AB23500    -0.0028
     45  C34       64.3220   12.4120   12.3210 C.ar  3500  AB23500    -0.0038
     46  N4        61.4550   13.7200    7.2690 N.2   3500  AB23500    -0.1503
     47  N5        60.7390   14.7250    7.5640 N.pl3 3500  AB23500    -0.0630
@<TRIPOS>BOND
     1    15    14    1
     2    14    16    1
     3    14    13    1
     4    13    12    1
     5     1     2    1
     6     8     7   ar
     7     8     3   ar
     8     7     6   ar
     9     2     3    1
    10    12    17    1
    11    12     9    1
    12     3     4   ar
    13    11     9    2
    14    31    30    1
    15    31    32    1
    16    46    30    2
    17    46    47    1
    18    30    29    1
    19    17    18    1
    20    47    28    1
    21     6     9    1
    22     6     5   ar
    23     9    10    2
    24     4     5   ar
    25    18    19    1
    26    18    20    1
    27    29    28    1
    28    28    20    1
    29    32    33    1
    30    20    21    1
    31    34    33    2
    32    33    35   am
    33    21    22    1
    34    35    36    1
    35    22    27   ar
    36    22    23   ar
    37    27    26   ar
    38    23    24   ar
    39    36    45    1
    40    36    37    1
    41    44    45   ar
    42    44    43   ar
    43    26    25   ar
    44    24    25   ar
    45    45    40   ar
    46    38    37    1
    47    43    42   ar
    48    37    39    1
    49    39    40    1
    50    40    41   ar
    51    42    41   ar
