@<TRIPOS>MOLECULE
2hc4_VDX_A_1.pdb
 30 32 0 0 0
SMALL
GASTEIGER

@<TRIPOS>ATOM
      1  O2         0.5230   40.2150   40.2930 O.3   525  VDX525     -0.2227
      2  O3         5.4460   27.0550   34.0870 O.3   525  VDX525     -0.2257
      3  C1         2.9340   39.2100   38.8750 C.3   525  VDX525      0.1765
      4  C2         2.1480   40.4940   38.4890 C.3   525  VDX525      0.0707
      5  C3         0.6100   40.3570   38.8650 C.3   525  VDX525      0.1592
      6  C4        -0.0330   39.1040   38.1590 C.3   525  VDX525      0.0591
      7  C5         0.7330   37.8080   38.4400 C.2   525  VDX525     -0.0213
      8  C6         0.1800   36.5800   38.8800 C.2   525  VDX525     -0.0051
      9  C7         0.7550   35.2140   39.2120 C.2   525  VDX525     -0.0088
     10  C8         0.1780   34.0370   39.0630 C.2   525  VDX525     -0.0446
     11  C9        -1.3110   33.8370   38.4910 C.3   525  VDX525      0.0220
     12  C10        2.2560   38.0090   38.1690 C.2   525  VDX525      0.0039
     13  C11       -1.3700   32.9210   37.1430 C.3   525  VDX525      0.0044
     14  C12       -0.4360   31.6050   37.3150 C.3   525  VDX525      0.0006
     15  C13        1.0890   31.8570   37.9070 C.3   525  VDX525      0.0034
     16  C14        0.8960   32.6960   39.2600 C.3   525  VDX525      0.0183
     17  C15        2.4540   32.6560   39.8830 C.3   525  VDX525      0.0040
     18  C16        2.9930   31.2740   39.3600 C.3   525  VDX525      0.0003
     19  C17        1.8120   30.6540   38.5480 C.3   525  VDX525      0.0003
     20  C18        1.8590   32.7180   36.6920 C.3   525  VDX525      0.0003
     21  C19        2.9430   37.1940   37.3270 C.2   525  VDX525     -0.0024
     22  C20        2.1930   29.5560   37.4360 C.3   525  VDX525      0.0000
     23  C21        2.4540   28.2180   38.2960 C.3   525  VDX525      0.0000
     24  C22        3.5390   29.7190   36.6240 C.3   525  VDX525      0.0001
     25  C23        3.4730   29.1000   35.2200 C.3   525  VDX525      0.0025
     26  C24        4.5680   29.2930   34.2860 C.3   525  VDX525      0.0304
     27  C25        5.0110   28.1720   33.3540 C.3   525  VDX525      0.1268
     28  C26        3.8550   27.8000   32.4470 C.3   525  VDX525      0.0329
     29  C27        6.2200   28.6140   32.4370 C.3   525  VDX525      0.0329
     30  O1         4.3690   39.3570   38.5230 O.3   525  VDX525     -0.2182
@<TRIPOS>BOND
     1    29    27    1
     2    28    27    1
     3    27     2    1
     4    27    26    1
     5    26    25    1
     6    25    24    1
     7    24    22    1
     8    20    15    1
     9    13    14    1
    10    13    11    1
    11    14    15    1
    12    21    12    2
    13    22    23    1
    14    22    19    1
    15    15    19    1
    16    15    16    1
    17     6     7    1
    18     6     5    1
    19    12     7    1
    20    12     3    1
    21     7     8    2
    22     4     5    1
    23     4     3    1
    24    11    10    1
    25    30     3    1
    26    19    18    1
    27     5     1    1
    28     8     9    1
    29    10     9    2
    30    10    16    1
    31    16    17    1
    32    18    17    1
