@<TRIPOS>MOLECULE
2hca_NAG_A_1.pdb
 14 14 0 0 0
SMALL
GASTEIGER

@<TRIPOS>ATOM
      1  C1        -3.4720    6.4570   20.6600 C.3     1  NAG1        0.1665
      2  C2        -2.4450    7.3580   19.9730 C.3     1  NAG1        0.1576
      3  C3        -2.1380    8.5990   20.8110 C.3     1  NAG1        0.2069
      4  C4        -3.4120    9.2630   21.3300 C.3     1  NAG1        0.2134
      5  C5        -4.3140    8.2280   21.9950 C.3     1  NAG1        0.1809
      6  C6        -5.6270    8.8220   22.4990 C.3     1  NAG1        0.2141
      7  C7        -0.8800    6.2760   18.4590 C.2     1  NAG1        0.2420
      8  C8         0.3000    5.3670   18.2990 C.3     1  NAG1        0.0964
      9  N2        -1.2310    6.6060   19.7000 N.am    1  NAG1       -0.2019
     10  O3        -1.4220    9.5270   20.0310 O.3     1  NAG1       -0.2184
     11  O4        -3.0820   10.2480   22.2760 O.3     1  NAG1       -0.2176
     12  O5        -4.6030    7.2090   21.0640 O.3     1  NAG1       -0.3489
     13  O6        -6.1860    9.6660   21.5200 O.3     1  NAG1       -0.2176
     14  O7        -1.4740    6.6810   17.4620 O.2     1  NAG1       -0.2733
@<TRIPOS>BOND
     1    14     7    2
     2     8     7    1
     3     7     9   am
     4     9     2    1
     5     2     1    1
     6     2     3    1
     7    10     3    1
     8     1    12    1
     9     3     4    1
    10    12     5    1
    11     4     5    1
    12     4    11    1
    13    13     6    1
    14     5     6    1
