@<TRIPOS>MOLECULE
2hca_GLC_A_1.pdb
 12 12 0 0 0
SMALL
GASTEIGER

@<TRIPOS>ATOM
      1  C1        11.8220   14.4260   15.7380 C.3   695  GLC695      0.3024
      2  C2        13.2750   14.0490   15.4140 C.3   695  GLC695      0.2434
      3  C3        13.6790   14.4040   13.9830 C.3   695  GLC695      0.2199
      4  C4        12.6330   13.9910   12.9580 C.3   695  GLC695      0.2144
      5  C5        11.1990   14.3250   13.3720 C.3   695  GLC695      0.1836
      6  C6        10.2260   13.5680   12.4760 C.3   695  GLC695      0.2142
      7  O1        11.6690   15.8400   15.9430 O.3   695  GLC695     -0.1869
      8  O2        14.1640   14.6490   16.3630 O.3   695  GLC695     -0.2148
      9  O3        14.8690   13.6960   13.6170 O.3   695  GLC695     -0.2174
     10  O4        12.9720   14.6580   11.7370 O.3   695  GLC695     -0.2176
     11  O5        10.9280   13.9450   14.7270 O.3   695  GLC695     -0.3236
     12  O6         9.3190   14.5130   11.8320 O.3   695  GLC695     -0.2176
@<TRIPOS>BOND
     1    10     4    1
     2    12     6    1
     3     6     5    1
     4     4     5    1
     5     4     3    1
     6     5    11    1
     7     9     3    1
     8     3     2    1
     9    11     1    1
    10     2     1    1
    11     2     8    1
    12     1     7    1
