@<TRIPOS>MOLECULE
2hcb_ACP_A_1.pdb
 31 33 0 0 0
SMALL
GASTEIGER

@<TRIPOS>ATOM
      1  PG        -8.0400  -28.9140   16.6340 P.3   700  ACP700      0.1295
      2  O1G       -8.4590  -27.4920   16.8940 O.2   700  ACP700     -0.4595
      3  O2G       -6.6740  -29.2430   17.1730 O.3   700  ACP700     -0.3567
      4  O3G       -9.1150  -29.9140   16.9530 O.3   700  ACP700     -0.3567
      5  PB        -8.7930  -27.7170   14.0770 P.3   700  ACP700      0.3815
      6  O1B      -10.2690  -28.0380   14.2250 O.2   700  ACP700     -0.2547
      7  O2B       -8.2720  -26.4040   14.6110 O.3   700  ACP700     -0.1391
      8  C3B       -7.8450  -29.0410   14.8510 C.3   700  ACP700      0.1768
      9  PA        -7.3540  -26.8170   11.8560 P.3   700  ACP700      0.2209
     10  O1A       -8.0920  -25.5860   11.4000 O.2   700  ACP700     -0.5170
     11  O2A       -6.2040  -26.7010   12.8370 O.3   700  ACP700     -0.4371
     12  O3A       -8.4630  -27.7790   12.4980 O.3   700  ACP700     -0.2483
     13  O5'       -6.8700  -27.6220   10.5520 O.3   700  ACP700     -0.3111
     14  C5'       -5.5340  -28.1220   10.4860 C.3   700  ACP700      0.1813
     15  C4'       -4.9150  -27.8490    9.1200 C.3   700  ACP700      0.1821
     16  O4'       -5.7690  -28.3500    8.0880 O.3   700  ACP700     -0.3135
     17  C3'       -4.7100  -26.3560    8.8610 C.3   700  ACP700      0.2184
     18  O3'       -3.3840  -26.1180    8.3550 O.3   700  ACP700     -0.2174
     19  C2'       -5.7420  -25.9770    7.8120 C.3   700  ACP700      0.2570
     20  O2'       -5.2030  -25.1240    6.7940 O.3   700  ACP700     -0.2130
     21  C1'       -6.1580  -27.2990    7.1970 C.3   700  ACP700      0.3186
     22  N9        -7.6180  -27.3070    6.9690 N.pl3 700  ACP700     -0.1439
     23  C8        -8.5690  -27.7390    7.8320 C.3   700  ACP700      0.3377
     24  N7        -9.8100  -27.6180    7.2800 N.2   700  ACP700     -0.2095
     25  C5        -9.6420  -27.0980    6.0510 C.2   700  ACP700      0.2526
     26  C6       -10.5330  -26.7060    4.9540 C.2   700  ACP700      0.4393
     27  N6       -11.8720  -26.8650    5.0790 N.pl3 700  ACP700      0.2180
     28  N1        -9.9620  -26.1890    3.8390 N.2   700  ACP700      0.0021
     29  C2        -8.6230  -26.0380    3.7260 C.3   700  ACP700      0.5254
     30  N3        -7.7560  -26.3690    4.6950 N.2   700  ACP700     -0.0055
     31  C4        -8.2050  -26.8930    5.8540 C.2   700  ACP700      0.3518
@<TRIPOS>BOND
     1    29    28    1
     2    29    30    1
     3    28    26    2
     4    30    31    2
     5    26    27    1
     6    26    25    1
     7    31    25    1
     8    31    22    1
     9    25    24    2
    10    20    19    1
    11    22    21    1
    12    22    23    1
    13    21    19    1
    14    21    16    1
    15    24    23    1
    16    19    17    1
    17    16    15    1
    18    18    17    1
    19    17    15    1
    20    15    14    1
    21    14    13    1
    22    13     9    1
    23    10     9    2
    24     9    12    1
    25     9    11    1
    26    12     5    1
    27     5     6    2
    28     5     7    1
    29     5     8    1
    30     8     1    1
    31     1     2    2
    32     1     4    1
    33     1     3    1
