@<TRIPOS>MOLECULE
2hcd_BIV_A_1.pdb
 36 38 0 0 0
SMALL
GASTEIGER

@<TRIPOS>ATOM
      1  O2         0.5270   40.0120   40.1280 O.3   525  BIV525     -0.2227
      2  O3         5.3090   26.6870   34.1890 O.3   525  BIV525     -0.2257
      3  C1         2.9540   38.8410   38.8210 C.3   525  BIV525      0.1582
      4  C2         2.1950   40.1260   38.3490 C.3   525  BIV525      0.0664
      5  C3         0.6410   40.0210   38.7040 C.3   525  BIV525      0.1586
      6  C4        -0.0130   38.7000   38.1210 C.3   525  BIV525      0.0550
      7  C5         0.7490   37.3880   38.4370 C.2   525  BIV525     -0.0396
      8  C6         0.1640   36.2020   38.9000 C.2   525  BIV525     -0.0090
      9  C7         0.7310   34.8620   39.2150 C.2   525  BIV525     -0.0091
     10  C8         0.2930   33.6760   38.9670 C.2   525  BIV525     -0.0446
     11  C9        -1.0860   33.3370   38.1970 C.3   525  BIV525      0.0220
     12  C10        2.3020   37.5730   38.1460 C.3   525  BIV525      0.0489
     13  C11       -0.8540   32.4830   36.8420 C.3   525  BIV525      0.0044
     14  C12        0.1490   31.2300   37.1310 C.3   525  BIV525      0.0006
     15  C13        1.5280   31.5090   38.0640 C.3   525  BIV525      0.0034
     16  C14        1.0480   32.3870   39.3760 C.3   525  BIV525      0.0183
     17  C15        2.5280   32.5270   40.2010 C.3   525  BIV525      0.0040
     18  C16        3.2130   31.1410   39.8320 C.3   525  BIV525      0.0003
     19  C17        2.1620   30.4050   38.9320 C.3   525  BIV525      0.0003
     20  C18        2.4970   32.4240   36.9590 C.3   525  BIV525      0.0003
     21  C19        3.0180   36.7050   37.3460 C.3   525  BIV525      0.0070
     22  C20        2.7690   29.1970   38.0110 C.3   525  BIV525      0.0000
     23  C22        4.0110   29.2470   37.0270 C.3   525  BIV525      0.0001
     24  C23        3.5520   28.9760   35.5740 C.3   525  BIV525      0.0025
     25  C24        4.5290   28.9890   34.4920 C.3   525  BIV525      0.0304
     26  C25        4.8350   27.8310   33.5190 C.3   525  BIV525      0.1268
     27  C26        3.5870   27.4940   32.7080 C.3   525  BIV525      0.0329
     28  C27        5.9610   28.2470   32.4900 C.3   525  BIV525      0.0329
     29  O1         4.4050   38.9710   38.4760 O.3   525  BIV525     -0.2227
     30  C21        3.0730   28.0250   38.8580 C.3   525  BIV525      0.0001
     31  C28        3.9850   26.8790   39.2230 C.3   525  BIV525      0.0025
     32  C29        3.8780   26.6320   40.7410 C.3   525  BIV525      0.0304
     33  C30        3.1630   25.2790   41.1120 C.3   525  BIV525      0.1268
     34  O4         3.1950   24.2660   39.9340 O.3   525  BIV525     -0.2257
     35  C32        1.7020   25.5670   41.5070 C.3   525  BIV525      0.0329
     36  C33        3.8880   24.6370   42.3160 C.3   525  BIV525      0.0329
@<TRIPOS>BOND
     1    28    26    1
     2    27    26    1
     3    26     2    1
     4    26    25    1
     5    25    24    1
     6    24    23    1
     7    13    14    1
     8    13    11    1
     9    20    15    1
    10    23    22    1
    11    14    15    1
    12    21    12    1
    13    22    30    1
    14    22    19    1
    15    15    19    1
    16    15    16    1
    17     6     7    1
    18     6     5    1
    19    12     7    1
    20    12     3    1
    21    11    10    1
    22     4     5    1
    23     4     3    1
    24     7     8    2
    25    29     3    1
    26     5     1    1
    27    30    31    1
    28     8     9    1
    29    19    18    1
    30    10     9    2
    31    10    16    1
    32    31    32    1
    33    16    17    1
    34    18    17    1
    35    34    33    1
    36    32    33    1
    37    33    35    1
    38    33    36    1
