@<TRIPOS>MOLECULE
2hch_N5A_A_1.pdb
 23 25 0 0 0
SMALL
GASTEIGER

@<TRIPOS>ATOM
      1  N53     -144.5680  -38.0510   78.8690 N.3   401  N5A401     -0.1294
      2  C52     -143.9030  -36.9790   79.6250 C.3   401  N5A401      0.1327
      3  C51     -142.7550  -37.5760   80.4400 C.3   401  N5A401      0.1357
      4  N5'     -143.2910  -38.6190   81.3270 N.am  401  N5A401     -0.2017
      5  C5'     -143.5900  -38.3760   82.6010 C.2   401  N5A401      0.2714
      6  O5'     -143.4330  -37.2820   83.1300 O.2   401  N5A401     -0.2706
      7  C4'     -144.1430  -39.5270   83.4490 C.3   401  N5A401      0.2293
      8  O4'     -143.1260  -40.0840   84.2990 O.3   401  N5A401     -0.3067
      9  C3'     -145.2480  -39.0580   84.3940 C.3   401  N5A401      0.2249
     10  O3'     -146.4950  -39.0430   83.6930 O.3   401  N5A401     -0.2170
     11  C2'     -145.2360  -40.2490   85.3480 C.3   401  N5A401      0.2574
     12  O2'     -145.7320  -41.4080   84.6710 O.3   401  N5A401     -0.2130
     13  C1'     -143.7280  -40.3790   85.5730 C.3   401  N5A401      0.3190
     14  N9      -143.2600  -39.3560   86.5360 N.pl3 401  N5A401     -0.1438
     15  C8      -142.7780  -38.1510   86.2410 C.3   401  N5A401      0.3377
     16  N7      -142.4150  -37.5320   87.3630 N.2   401  N5A401     -0.2095
     17  C5      -142.6690  -38.3460   88.3840 C.2   401  N5A401      0.2526
     18  C4      -143.2100  -39.5120   87.8560 C.2   401  N5A401      0.3518
     19  N3      -143.5360  -40.5210   88.6750 N.2   401  N5A401     -0.0055
     20  C2      -143.3450  -40.4160   89.9780 C.3   401  N5A401      0.5254
     21  N1      -142.8360  -39.3210   90.5150 N.2   401  N5A401      0.0021
     22  C6      -142.4890  -38.2690   89.7570 C.2   401  N5A401      0.4393
     23  N6      -141.9930  -37.1700   90.3210 N.pl3 401  N5A401      0.2180
@<TRIPOS>BOND
     1     1     2    1
     2     2     3    1
     3     3     4    1
     4     4     5   am
     5     5     6    2
     6     5     7    1
     7     7     8    1
     8     7     9    1
     9    10     9    1
    10     8    13    1
    11     9    11    1
    12    12    11    1
    13    11    13    1
    14    13    14    1
    15    15    14    1
    16    15    16    1
    17    14    18    1
    18    16    17    2
    19    18    17    1
    20    18    19    2
    21    17    22    1
    22    19    20    1
    23    22    23    1
    24    22    21    2
    25    20    21    1
