@<TRIPOS>MOLECULE
2hcj_GDP_A_1.pdb
 28 30 0 0 0
SMALL
GASTEIGER

@<TRIPOS>ATOM
      1  PB        45.4400   58.5200   75.0010 P.3   999  GDP999      0.5373
      2  O1B       46.7740   58.0800   74.4980 O.3   999  GDP999     -0.1143
      3  O2B       44.8970   57.4700   75.9090 O.3   999  GDP999     -0.1143
      4  O3B       44.4960   58.7550   73.8680 O.2   999  GDP999     -0.2221
      5  O3A       45.6050   59.9160   75.7430 O.3   999  GDP999     -0.2261
      6  PA        45.6690   60.1060   77.3200 P.3   999  GDP999      0.2231
      7  O1A       44.3650   59.7830   77.9630 O.3   999  GDP999     -0.4370
      8  O2A       46.7890   59.2790   77.8400 O.2   999  GDP999     -0.5169
      9  O5'       46.0040   61.6580   77.4580 O.3   999  GDP999     -0.3111
     10  C5'       47.2390   62.1740   76.9490 C.3   999  GDP999      0.1813
     11  C4'       47.5570   63.5010   77.6040 C.3   999  GDP999      0.1799
     12  O4'       46.4860   64.4570   77.3430 O.3   999  GDP999     -0.3326
     13  C3'       47.6960   63.3990   79.1190 C.3   999  GDP999      0.2158
     14  O3'       48.7760   64.2360   79.5490 O.3   999  GDP999     -0.2175
     15  C2'       46.3440   63.9070   79.6170 C.3   999  GDP999      0.2310
     16  O2'       46.3390   64.4540   80.9140 O.3   999  GDP999     -0.2158
     17  C1'       46.0030   64.9630   78.5720 C.3   999  GDP999      0.2293
     18  N9        44.5580   65.2170   78.4310 N.pl3 999  GDP999     -0.2354
     19  C8        43.5700   64.2870   78.2740 C.3   999  GDP999      0.2246
     20  N7        42.3760   64.8250   78.2230 N.2   999  GDP999     -0.2322
     21  C5        42.6030   66.1800   78.3560 C.2   999  GDP999      0.2182
     22  C6        41.6910   67.2760   78.3760 C.1   999  GDP999      0.2372
     23  O6        40.4560   67.2530   78.2740 O.2   999  GDP999     -0.2069
     24  N1        42.3460   68.4870   78.5340 N.2   999  GDP999     -0.2485
     25  C2        43.7050   68.6420   78.6400 C.1   999  GDP999      0.2531
     26  N2        44.1380   69.9020   78.7790 N.pl3 999  GDP999     -0.0226
     27  N3        44.5680   67.6340   78.6200 N.2   999  GDP999     -0.3074
     28  C4        43.9580   66.4500   78.4790 C.2   999  GDP999      0.2300
@<TRIPOS>BOND
     1     4     1    2
     2     2     1    1
     3     1     5    1
     4     1     3    1
     5     5     6    1
     6    10     9    1
     7    10    11    1
     8     6     9    1
     9     6     8    2
    10     6     7    1
    11    12    11    1
    12    12    17    1
    13    11    13    1
    14    20    19    1
    15    20    21    2
    16    23    22    2
    17    19    18    1
    18    21    22    1
    19    21    28    1
    20    22    24    2
    21    18    28    1
    22    18    17    1
    23    28    27    2
    24    24    25    2
    25    17    15    1
    26    27    25    2
    27    25    26    1
    28    13    14    1
    29    13    15    1
    30    15    16    1
