@<TRIPOS>MOLECULE
2hcj_TAC_B_1.pdb
 32 35 0 0 0
SMALL
GASTEIGER

@<TRIPOS>ATOM
      1  C1        49.4230   56.6000   79.0800 C.2   888  TAC888      0.2005
      2  O1        49.5880   56.6780   77.8360 O.2   888  TAC888     -0.2921
      3  C2        50.5380   56.8990   80.0070 C.3   888  TAC888      0.1983
      4  C21       51.8770   57.3200   79.4780 C.2   888  TAC888      0.2746
      5  O21       52.8560   57.5180   80.2630 O.2   888  TAC888     -0.2707
      6  N21       52.0140   57.4720   78.1450 N.am  888  TAC888     -0.0871
      7  C3        50.3540   56.7300   81.4300 C.2   888  TAC888      0.1806
      8  O3        51.3020   56.9050   82.2120 O.2   888  TAC888     -0.2937
      9  C4        48.9810   56.2860   82.0380 C.3   888  TAC888      0.1198
     10  N4        48.4970   57.4510   82.8740 N.3   888  TAC888     -0.2654
     11  C42       47.0390   57.7680   82.7410 C.3   888  TAC888      0.0900
     12  C43       48.7620   57.1560   84.3160 C.3   888  TAC888      0.0900
     13  C41       48.0870   55.5050   81.0460 C.3   888  TAC888      0.0643
     14  C5        48.6790   54.0750   80.8560 C.3   888  TAC888      0.0125
     15  C51       47.7930   53.1560   80.0460 C.3   888  TAC888      0.0605
     16  C6        48.5190   51.8770   79.5400 C.3   888  TAC888      0.1494
     17  C62       49.3220   51.1780   80.6420 C.3   888  TAC888      0.0379
     18  O6        49.4540   52.2360   78.4980 O.3   888  TAC888     -0.2208
     19  C61       47.3670   50.9950   78.9310 C.ar  888  TAC888      0.0115
     20  C7        47.2590   49.5980   79.1780 C.ar  888  TAC888     -0.0016
     21  C8        46.2030   48.8570   78.6170 C.ar  888  TAC888      0.0030
     22  C9        45.2280   49.4840   77.8020 C.ar  888  TAC888      0.0421
     23  C10       45.2960   50.8750   77.5300 C.ar  888  TAC888      0.1985
     24  O10       44.3460   51.4800   76.7390 O.3   888  TAC888     -0.2865
     25  C1A       46.3670   51.6500   78.0930 C.ar  888  TAC888      0.0759
     26  C11       46.4610   53.0770   77.8530 C.2   888  TAC888      0.1974
     27  O11       45.9240   53.5850   76.8170 O.2   888  TAC888     -0.2867
     28  C1B       47.1450   53.8930   78.7990 C.2   888  TAC888      0.0567
     29  C12       47.2370   55.3150   78.6260 C.2   888  TAC888      0.2064
     30  O12       46.6610   55.9110   77.5640 O.2   888  TAC888     -0.2885
     31  C1C       47.9980   56.2300   79.6290 C.3   888  TAC888      0.2334
     32  O1C       47.2620   57.4410   79.7660 O.3   888  TAC888     -0.2101
@<TRIPOS>BOND
     1    24    23    1
     2    27    26    2
     3    23    22   ar
     4    23    25   ar
     5    30    29    1
     6    22    21   ar
     7     2     1    2
     8    26    25    1
     9    26    28    1
    10    25    19   ar
    11     6     4   am
    12    18    16    1
    13    21    20   ar
    14    29    28    2
    15    29    31    1
    16    28    15    1
    17    19    20   ar
    18    19    16    1
    19     1    31    1
    20     1     3    1
    21     4     3    1
    22     4     5    2
    23    16    15    1
    24    16    17    1
    25    31    32    1
    26    31    13    1
    27     3     7    1
    28    15    14    1
    29    14    13    1
    30    13     9    1
    31     7     9    1
    32     7     8    2
    33     9    10    1
    34    11    10    1
    35    10    12    1
