@<TRIPOS>MOLECULE
2hck_QUE_A_1.pdb
 22 24 0 0 0
SMALL
GASTEIGER

@<TRIPOS>ATOM
      1  C1        35.8190   46.4240   99.1730 C.ar    1  QUE1        0.0843
      2  C2        35.2640   45.2260   98.6320 C.ar    1  QUE1        0.2050
      3  C3        33.8660   45.0060   98.6530 C.ar    1  QUE1        0.1158
      4  C4        33.1010   46.0600   99.2240 C.ar    1  QUE1        0.1549
      5  C5        33.6710   47.2340   99.7540 C.ar    1  QUE1        0.0798
      6  C6        35.0440   47.4630   99.7340 C.ar    1  QUE1        0.2020
      7  C9        33.2320   43.8350   98.1130 C.ar    1  QUE1        0.2433
      8  C10       31.7990   43.7120   98.1870 C.ar    1  QUE1        0.2685
      9  C11       31.0700   44.8000   98.7780 C.ar    1  QUE1        0.1872
     10  C14       29.6420   44.8340   98.7700 C.ar    1  QUE1        0.0413
     11  C15       28.7740   43.9420   98.1070 C.ar    1  QUE1        0.0066
     12  C16       27.3770   44.1620   98.0520 C.ar    1  QUE1        0.0455
     13  C17       26.7980   45.2960   98.6560 C.ar    1  QUE1        0.2343
     14  C18       27.6390   46.2230   99.3340 C.ar    1  QUE1        0.2344
     15  C19       29.0040   45.9470   99.3670 C.ar    1  QUE1        0.0485
     16  O12       31.7430   45.9150   99.2730 O.2     1  QUE1       -0.4498
     17  O13       33.8790   42.9520   97.5390 O.2     1  QUE1       -0.2828
     18  O23       27.2170   47.4230   99.9240 O.3     1  QUE1       -0.2831
     19  O24       25.4070   45.4370   98.5480 O.3     1  QUE1       -0.2831
     20  O27       31.2040   42.5450   97.7210 O.3     1  QUE1       -0.2798
     21  O29       35.5580   48.6420  100.2650 O.3     1  QUE1       -0.2864
     22  O30       36.0950   44.2490   98.1150 O.3     1  QUE1       -0.2862
@<TRIPOS>BOND
     1    17     7    2
     2    20     8    1
     3    12    11   ar
     4    12    13   ar
     5    11    10   ar
     6     7     8   ar
     7     7     3   ar
     8    22     2    1
     9     8     9   ar
    10    19    13    1
    11     2     3   ar
    12     2     1   ar
    13     3     4   ar
    14    13    14   ar
    15    10     9    1
    16    10    15   ar
    17     9    16   ar
    18     1     6   ar
    19     4    16   ar
    20     4     5   ar
    21    14    15   ar
    22    14    18    1
    23     6     5   ar
    24     6    21    1
