@<TRIPOS>MOLECULE
2hco_HEM_A_1.pdb
 43 50 0 0 0
SMALL
GASTEIGER

@<TRIPOS>ATOM
      1  CHA        9.3700    9.6400  -17.9100 C.2   150  HEM150      0.0000
      2  CHB       10.8100   11.3300  -13.5800 C.2   150  HEM150      0.0000
      3  CHC        8.9300    7.4300  -11.4200 C.2   150  HEM150      0.0000
      4  CHD        7.5700    5.6700  -15.7400 C.2   150  HEM150      0.0000
      5  C1A        9.9300   10.4400  -16.9000 C.2   150  HEM150      0.0000
      6  C2A       10.5700   11.7200  -17.1400 C.2   150  HEM150      0.0000
      7  C3A       11.0000   12.1600  -15.9200 C.2   150  HEM150      0.0000
      8  C4A       10.6000   11.1900  -14.9500 C.2   150  HEM150      0.0000
      9  CMA       11.7400   13.4400  -15.6200 C.3   150  HEM150      0.0000
     10  CAA       10.7000   12.4100  -18.4800 C.3   150  HEM150      0.0000
     11  CBA       10.3500   13.9000  -18.4900 C.3   150  HEM150      0.0000
     12  CGA       10.1900   14.4600  -19.9000 C.2   150  HEM150      0.0000
     13  O1A       10.6700   13.8600  -20.8800 O.co2 150  HEM150      0.0000
     14  O2A        9.4700   15.5500  -20.0500 O.co2 150  HEM150      0.0000
     15  C1B       10.4000   10.4100  -12.6200 C.ar  150  HEM150      0.0000
     16  C2B       10.6000   10.5800  -11.2000 C.ar  150  HEM150      0.0000
     17  C3B       10.0900    9.4800  -10.5900 C.ar  150  HEM150      0.0000
     18  C4B        9.5400    8.6500  -11.6400 C.ar  150  HEM150      0.0000
     19  CMB       11.2500   11.7800  -10.5400 C.3   150  HEM150      0.0000
     20  CAB       10.0500    9.1500   -9.1300 C.3   150  HEM150      0.0000
     21  CBB       11.1700    9.3100   -8.3100 C.3   150  HEM150      0.0000
     22  C1C        8.4100    6.6200  -12.4200 C.2   150  HEM150      0.0000
     23  C2C        7.8500    5.3100  -12.1700 C.2   150  HEM150      0.0000
     24  C3C        7.4900    4.7900  -13.3600 C.2   150  HEM150      0.0000
     25  C4C        7.7900    5.8000  -14.3700 C.2   150  HEM150      0.0000
     26  CMC        7.7200    4.6400  -10.8300 C.3   150  HEM150      0.0000
     27  CAC        6.9300    3.4200  -13.5200 C.3   150  HEM150      0.0000
     28  CBC        6.3700    2.9900  -14.7200 C.3   150  HEM150      0.0000
     29  C1D        7.9300    6.6200  -16.7000 C.ar  150  HEM150      0.0000
     30  C2D        7.7200    6.4500  -18.1200 C.ar  150  HEM150      0.0000
     31  C3D        8.2600    7.5400  -18.7300 C.ar  150  HEM150      0.0000
     32  C4D        8.7600    8.4100  -17.6900 C.ar  150  HEM150      0.0000
     33  CMD        7.0800    5.2600  -18.7900 C.3   150  HEM150      0.0000
     34  CAD        8.3400    7.7700  -20.2200 C.3   150  HEM150      0.0000
     35  CBD        9.4100    6.9300  -20.9200 C.3   150  HEM150      0.0000
     36  CGD        9.4200    7.2100  -22.4300 C.2   150  HEM150      0.0000
     37  O1D        8.3800    7.0900  -23.0800 O.co2 150  HEM150      0.0000
     38  O2D       10.4600    7.8400  -22.9400 O.co2 150  HEM150      0.0000
     39  NA         9.9500   10.1200  -15.5500 N.2   150  HEM150      0.0000
     40  NB         9.7300    9.2300  -12.8800 N.ar  150  HEM150      0.0000
     41  NC         8.3800    6.9100  -13.7700 N.2   150  HEM150      0.0000
     42  ND         8.5700    7.8200  -16.4400 N.ar  150  HEM150      0.0000
     43 FE          9.1600    8.5200  -14.6700 Fe    150  HEM150      0.0000
@<TRIPOS>BOND
     1    37    36   ar
     2    38    36   ar
     3    36    35    1
     4    35    34    1
     5    13    12   ar
     6    34    31    1
     7    14    12   ar
     8    12    11    1
     9    33    30    1
    10    31    30   ar
    11    31    32   ar
    12    11    10    1
    13    10     6    1
    14    30    29   ar
    15     1    32    2
    16     1     5    1
    17    32    42   ar
    18     6     5    1
    19     6     7    2
    20     5    39    2
    21    29    42   ar
    22    29     4    2
    23    42    43    1
    24     7     9    1
    25     7     8    1
    26     4    25    1
    27    39     8    1
    28    39    43    1
    29     8     2    2
    30    28    27    1
    31    43    41    1
    32    43    40    1
    33    25    41    2
    34    25    24    1
    35    41    22    1
    36     2    15    1
    37    27    24    1
    38    24    23    2
    39    40    15   ar
    40    40    18   ar
    41    15    16   ar
    42    22    23    1
    43    22     3    2
    44    23    26    1
    45    18     3    1
    46    18    17   ar
    47    16    17   ar
    48    16    19    1
    49    17    20    1
    50    20    21    1
