@<TRIPOS>MOLECULE
2hcr_AMP_A_1.pdb
 23 25 0 0 0
SMALL
GASTEIGER

@<TRIPOS>ATOM
      1  P       -110.3110   31.4660  -55.6290 P.3   3001  AMP3001     0.5327
      2  O1P     -109.1220   31.9930  -54.8520 O.3   3001  AMP3001    -0.1145
      3  O2P     -109.9200   30.4880  -56.7180 O.2   3001  AMP3001    -0.2224
      4  O3P     -111.4720   31.0140  -54.7650 O.3   3001  AMP3001    -0.1145
      5  O5'     -110.9000   32.7480  -56.4330 O.3   3001  AMP3001    -0.2675
      6  C5'     -111.8500   32.5540  -57.4880 C.3   3001  AMP3001     0.1860
      7  C4'     -112.1840   33.8140  -58.2950 C.3   3001  AMP3001     0.1823
      8  O4'     -112.6050   34.9020  -57.4720 O.3   3001  AMP3001    -0.3135
      9  C3'     -111.0570   34.3490  -59.1760 C.3   3001  AMP3001     0.2184
     10  O3'     -111.3740   34.0670  -60.5430 O.3   3001  AMP3001    -0.2174
     11  C2'     -111.0430   35.8540  -58.9430 C.3   3001  AMP3001     0.2570
     12  O2'     -111.0270   36.5920  -60.1720 O.3   3001  AMP3001    -0.2130
     13  C1'     -112.3400   36.1110  -58.1920 C.3   3001  AMP3001     0.3186
     14  N9      -112.3240   37.2710  -57.2580 N.pl3 3001  AMP3001    -0.1439
     15  C8      -111.2720   37.9990  -56.8320 C.3   3001  AMP3001     0.3377
     16  N7      -111.6690   38.9750  -55.9730 N.2   3001  AMP3001    -0.2095
     17  C5      -113.0050   38.8820  -55.8350 C.2   3001  AMP3001     0.2526
     18  C6      -114.0780   39.5940  -55.0900 C.2   3001  AMP3001     0.4393
     19  N6      -113.8040   40.6450  -54.2850 N.pl3 3001  AMP3001     0.2180
     20  N1      -115.3550   39.1650  -55.2450 N.2   3001  AMP3001     0.0021
     21  C2      -115.6670   38.1250  -56.0440 C.3   3001  AMP3001     0.5254
     22  N3      -114.7480   37.4360  -56.7460 N.2   3001  AMP3001    -0.0055
     23  C4      -113.4290   37.7580  -56.6870 C.2   3001  AMP3001     0.3518
@<TRIPOS>BOND
     1    10     9    1
     2    12    11    1
     3     9    11    1
     4     9     7    1
     5    11    13    1
     6     7     6    1
     7     7     8    1
     8    13     8    1
     9    13    14    1
    10     6     5    1
    11    14    15    1
    12    14    23    1
    13    15    16    1
    14    22    23    2
    15    22    21    1
    16     3     1    2
    17    23    17    1
    18     5     1    1
    19    21    20    1
    20    16    17    2
    21    17    18    1
    22     1     2    1
    23     1     4    1
    24    20    18    2
    25    18    19    1
