@<TRIPOS>MOLECULE
2hct_NMN_A_1.pdb
 22 23 0 0 0
SMALL
GASTEIGER

@<TRIPOS>ATOM
      1  O3P        3.8200    5.2720    3.1970 O.2   301  NMN301     -0.2224
      2  P          4.2890    3.9280    3.8450 P.3   301  NMN301      0.5327
      3  O1P        3.8720    3.7690    5.2990 O.3   301  NMN301     -0.1145
      4  O2P        5.7240    3.5150    3.5750 O.3   301  NMN301     -0.1145
      5  O5R        3.3010    2.8550    3.1130 O.3   301  NMN301     -0.2675
      6  C5R        1.8800    3.1100    2.9620 C.3   301  NMN301      0.1859
      7  C4R        1.3060    2.9440    1.5330 C.3   301  NMN301      0.1801
      8  O4R        1.8370    1.7770    0.8700 O.3   301  NMN301     -0.3327
      9  C3R       -0.1960    2.6980    1.5770 C.3   301  NMN301      0.2158
     10  O3R       -0.9010    3.2480    0.4200 O.3   301  NMN301     -0.2175
     11  C2R       -0.2380    1.1770    1.7340 C.3   301  NMN301      0.2309
     12  O2R       -1.4020    0.6080    1.1520 O.3   301  NMN301     -0.2158
     13  C1R        1.0360    0.6120    1.1080 C.3   301  NMN301      0.2263
     14  N1         1.7680   -0.3090    2.0020 N.pl3 301  NMN301     -0.2787
     15  C2         1.1570   -1.3120    2.6740 C.3   301  NMN301      0.1244
     16  C3         1.8700   -2.1730    3.5290 C.2   301  NMN301      0.0544
     17  C7         1.1870   -3.2980    4.2940 C.2   301  NMN301      0.2818
     18  O7         1.8320   -4.2610    4.7710 O.2   301  NMN301     -0.2670
     19  N7        -0.1430   -3.2130    4.4270 N.am  301  NMN301     -0.0839
     20  C4         3.2410   -1.9670    3.6670 C.2   301  NMN301      0.0033
     21  C5         3.8590   -0.9420    2.9640 C.2   301  NMN301      0.0157
     22  C6         3.0940   -0.1340    2.1320 C.2   301  NMN301      0.0633
@<TRIPOS>BOND
     1    10     9    1
     2     8    13    1
     3     8     7    1
     4    13    11    1
     5    13    14    1
     6    12    11    1
     7     7     9    1
     8     7     6    1
     9     9    11    1
    10    14    22    1
    11    14    15    1
    12    22    21    2
    13    15    16    1
    14     6     5    1
    15    21    20    1
    16     5     2    1
    17     1     2    2
    18    16    20    2
    19    16    17    1
    20     4     2    1
    21     2     3    1
    22    17    19   am
    23    17    18    2
