@<TRIPOS>MOLECULE
2hcy_8ID_A_1.pdb
 45 49 0 0 0
SMALL
GASTEIGER

@<TRIPOS>ATOM
      1  O7N       85.1580   -9.3780   48.9080 O.2   350  8ID350     -0.2666
      2  C7N       84.6360   -9.7320   47.8500 C.2   350  8ID350      0.2854
      3  N7N       83.7550   -8.9680   47.1960 N.am  350  8ID350     -0.0837
      4  C3N       84.9980  -11.0760   47.2810 C.2   350  8ID350      0.0710
      5  C4N       85.7850  -11.9680   48.0160 C.2   350  8ID350      0.0030
      6  C5N       86.1180  -13.2060   47.4910 C.2   350  8ID350     -0.0045
      7  C6N       85.6830  -13.5670   46.2310 C.3   350  8ID350      0.1195
      8  C2N       84.5880  -11.4800   46.0270 C.2   350  8ID350      0.0679
      9  N1N       84.9300  -12.6920   45.5380 N.pl3 350  8ID350     -0.2787
     10  C1'       84.3820  -12.9750   44.1840 C.3   350  8ID350      0.2263
     11  C2'       85.3610  -13.5160   43.1270 C.3   350  8ID350      0.2309
     12  O2'       86.2530  -12.5470   42.6300 O.3   350  8ID350     -0.2158
     13  C3'       84.3420  -14.0710   42.1190 C.3   350  8ID350      0.2158
     14  O3'       83.8870  -13.0040   41.3100 O.3   350  8ID350     -0.2175
     15  O4'       83.4070  -13.9380   44.3470 O.3   350  8ID350     -0.3327
     16  C4'       83.2270  -14.5790   43.0490 C.3   350  8ID350      0.1799
     17  C5'       83.1640  -16.0710   43.2380 C.3   350  8ID350      0.1813
     18  O5'       84.3760  -16.4810   43.8970 O.3   350  8ID350     -0.3112
     19  PN        84.4770  -18.0120   44.3550 P.3   350  8ID350      0.2189
     20  O1N       83.4310  -18.4130   45.3190 O.3   350  8ID350     -0.4371
     21  O2N       85.9200  -18.1490   44.6590 O.2   350  8ID350     -0.5170
     22  OPP       84.0680  -18.7160   42.9510 O.3   350  8ID350     -0.2703
     23  PA        83.8530  -20.2180   42.5220 P.3   350  8ID350      0.2189
     24  O1A       84.5680  -21.0670   43.5180 O.3   350  8ID350     -0.4371
     25  O2A       84.2880  -20.3570   41.0830 O.2   350  8ID350     -0.5170
     26  O5B       82.2810  -20.4700   42.7100 O.3   350  8ID350     -0.3112
     27  C5B       81.3290  -19.6530   41.9680 C.3   350  8ID350      0.1813
     28  C4B       80.0150  -20.3800   41.8440 C.3   350  8ID350      0.1822
     29  O4B       79.1030  -19.6390   41.0220 O.3   350  8ID350     -0.3132
     30  C1B       78.1790  -20.5380   40.5370 C.3   350  8ID350      0.3237
     31  C2B       79.0780  -21.6830   40.0470 C.3   350  8ID350      0.2574
     32  O2B       78.3920  -22.8900   39.8250 O.3   350  8ID350     -0.2130
     33  C3B       80.0660  -21.7630   41.2000 C.3   350  8ID350      0.2185
     34  O3B       79.6220  -22.7040   42.1530 O.3   350  8ID350     -0.2174
     35  N9A       77.3570  -19.9040   39.5190 N.pl3 350  8ID350     -0.1133
     36  C8A       77.6880  -19.3890   38.2840 C.2   350  8ID350      0.3057
     37  I8A       79.6720  -19.3290   37.4470 I     350  8ID350      0.0431
     38  N7A       76.7220  -18.8710   37.5610 N.2   350  8ID350     -0.3453
     39  C5A       75.6420  -19.0580   38.3890 C.2   350  8ID350      0.3070
     40  C6A       74.2790  -18.7100   38.2010 C.2   350  8ID350      0.4517
     41  N6A       73.8020  -18.1120   37.1340 N.pl3 350  8ID350      0.2193
     42  C4A       76.0070  -19.6890   39.5880 C.2   350  8ID350      0.3693
     43  N3A       75.1530  -20.0040   40.5950 N.2   350  8ID350     -0.0039
     44  C2A       73.8930  -19.6650   40.3800 C.3   350  8ID350      0.5255
     45  N1A       73.4480  -19.0560   39.2540 N.2   350  8ID350      0.0030
@<TRIPOS>BOND
     1    41    40    1
     2    37    36    1
     3    38    36    2
     4    38    39    2
     5    40    39    1
     6    40    45    2
     7    36    35    1
     8    39    42    1
     9    45    44    1
    10    35    42    1
    11    35    30    1
    12    42    43    2
    13    32    31    1
    14    31    30    1
    15    31    33    1
    16    44    43    1
    17    30    29    1
    18    29    28    1
    19    25    23    2
    20    33    28    1
    21    33    34    1
    22    14    13    1
    23    28    27    1
    24    27    26    1
    25    13    16    1
    26    13    11    1
    27    23    26    1
    28    23    22    1
    29    23    24    1
    30    12    11    1
    31    22    19    1
    32    16    17    1
    33    16    15    1
    34    11    10    1
    35    17    18    1
    36    18    19    1
    37    10    15    1
    38    10     9    1
    39    19    21    2
    40    19    20    1
    41     9     8    1
    42     9     7    1
    43     8     4    2
    44     7     6    1
    45     3     2   am
    46     4     2    1
    47     4     5    1
    48     6     5    2
    49     2     1    2
