@<TRIPOS>MOLECULE
2hd0_DMU_I_1.pdb
 33 34 0 0 0
SMALL
GASTEIGER

@<TRIPOS>ATOM
      1  C1        98.4600   23.5610   57.4230 C.2   218  DMU218      0.3077
      2  C2        99.1390   22.6160   58.4440 C.2   218  DMU218      0.2738
      3  C3        98.7840   21.2210   58.9850 C.2   218  DMU218      0.2035
      4  C4        97.4800   20.8470   58.2300 C.3   218  DMU218      0.2609
      5  O5        96.8870   21.5910   57.3680 O.2   218  DMU218     -0.4389
      6  C6        97.1890   22.7900   56.9110 C.2   218  DMU218      0.3364
      7  O7        99.6820   20.3560   58.9670 O.2   218  DMU218     -0.4478
      8  O16       96.4680   23.3980   56.0330 O.2   218  DMU218     -0.4458
      9  C18       95.4240   22.9210   55.4890 C.3   218  DMU218      0.2087
     10  C19       94.2110   23.8220   55.4770 C.3   218  DMU218      0.0475
     11  C22       93.1190   23.1930   54.6650 C.3   218  DMU218      0.0038
     12  C25       91.8850   24.0420   54.6270 C.3   218  DMU218      0.0001
     13  C28       91.4060   24.2520   53.2260 C.3   218  DMU218      0.0000
     14  C31       89.9010   24.3640   53.2200 C.3   218  DMU218      0.0000
     15  C34       89.4290   25.8150   53.1400 C.3   218  DMU218      0.0000
     16  C37       88.6260   26.2170   54.3690 C.3   218  DMU218      0.0000
     17  C40       87.3780   27.0160   53.9900 C.3   218  DMU218      0.0000
     18  C43       86.9980   28.0120   55.1010 C.3   218  DMU218      0.0000
     19  O49       99.3520   23.8840   56.3440 O.2   218  DMU218     -0.2762
     20  O55      100.3430   23.1510   59.0150 O.2   218  DMU218     -0.2799
     21  C57       96.9570   19.4680   58.6380 C.3   218  DMU218      0.2334
     22  O61       96.7190   18.6660   57.5060 O.3   218  DMU218     -0.2159
     23  C5       101.9140   19.8280   59.7200 C.3   218  DMU218      0.2541
     24  C7       102.7930   18.5760   59.4520 C.3   218  DMU218      0.2211
     25  C8       101.8130   17.4670   59.9720 C.3   218  DMU218      0.2145
     26  C9       100.3720   17.7950   60.5330 C.3   218  DMU218      0.1846
     27  O1        99.8850   18.9960   60.6300 O.3   218  DMU218     -0.3157
     28  C10      100.3720   20.0300   59.9560 C.3   218  DMU218      0.3217
     29  O2       101.7290   16.4380   58.9840 O.3   218  DMU218     -0.2176
     30  O3       102.6430   21.0520   59.7620 O.3   218  DMU218     -0.2135
     31  O4       104.0020   18.6050   60.2160 O.3   218  DMU218     -0.2173
     32  C11       99.5910   16.5460   60.9570 C.3   218  DMU218      0.2142
     33  O6        98.2060   16.8280   61.1000 O.3   218  DMU218     -0.2176
@<TRIPOS>BOND
     1    15    14    1
     2    15    16    1
     3    14    13    1
     4    13    12    1
     5    17    16    1
     6    17    18    1
     7    12    11    1
     8    11    10    1
     9    10     9    1
    10     9     8    1
    11     8     6    1
    12    19     1    1
    13     6     5    1
    14     6     1    2
    15     5     4    1
    16     1     2    1
    17    22    21    1
    18     4    21    1
    19     4     3    1
    20     2     3    2
    21     2    20    1
    22     7     3    1
    23     7    28    1
    24    29    25    1
    25    24    23    1
    26    24    25    1
    27    24    31    1
    28    23    30    1
    29    23    28    1
    30    28    27    1
    31    25    26    1
    32    26    27    1
    33    26    32    1
    34    32    33    1
