@<TRIPOS>MOLECULE
2hd1_IBM_A_1.pdb
 16 17 0 0 0
SMALL
GASTEIGER

@<TRIPOS>ATOM
      1  N9        75.2400   51.9130   40.7980 N.2     1  IBM1       -0.2256
      2  C8        74.3200   52.7130   41.4380 C.3     1  IBM1        0.2523
      3  N7        74.5170   52.8150   42.7300 N.2     1  IBM1       -0.2364
      4  C5        75.6370   52.0260   42.9590 C.ar    1  IBM1        0.1681
      5  C4        76.0960   51.4650   41.7820 C.ar    1  IBM1        0.1667
      6  N3        77.1620   50.6430   41.6220 N.ar    1  IBM1       -0.2651
      7  C2        77.8550   50.3790   42.7720 C.ar    1  IBM1        0.3350
      8  N1        77.4620   50.8930   44.0110 N.ar    1  IBM1       -0.2454
      9  C6        76.3520   51.7100   44.1130 C.ar    1  IBM1        0.2846
     10  O6        75.9920   52.1470   45.2100 O.2     1  IBM1       -0.2651
     11  O2        78.8500   49.6620   42.7170 O.2     1  IBM1       -0.2461
     12  C10       78.2260   50.5590   45.2030 C.3     1  IBM1        0.1383
     13  C11       77.5140   50.0460   40.3350 C.3     1  IBM1        0.1119
     14  C12       78.5750   50.8980   39.6280 C.3     1  IBM1        0.0228
     15  C13       78.4320   50.7430   38.1130 C.3     1  IBM1        0.0020
     16  C14       79.9940   50.5280   40.0580 C.3     1  IBM1        0.0020
@<TRIPOS>BOND
     1    15    14    1
     2    14    16    1
     3    14    13    1
     4    13     6    1
     5     1     2    1
     6     1     5    2
     7     2     3    1
     8     6     5   ar
     9     6     7   ar
    10     5     4   ar
    11    11     7    2
    12     3     4    2
    13     7     8   ar
    14     4     9   ar
    15     8     9   ar
    16     8    12    1
    17     9    10    2
