@<TRIPOS>MOLECULE
2hd6_BOS_A_1.pdb
 20 21 0 0 0
SMALL
GASTEIGER

@<TRIPOS>ATOM
      1  N1        -5.3400   -0.5360   15.9860 N.3   266  BOS266      0.0392
      2  S1        -5.9140    0.8420   16.6720 S.O2  266  BOS266      0.0935
      3  O1        -5.3600    0.8590   17.9970 O.2   266  BOS266     -0.1503
      4  O2        -7.3280    0.8260   16.5340 O.2   266  BOS266     -0.1503
      5  C1        -5.2400    2.1820   15.7720 C.ar  266  BOS266      0.1251
      6  C2        -3.8790    2.1650   15.4100 C.ar  266  BOS266      0.0213
      7  C3        -3.3290    3.2450   14.6960 C.ar  266  BOS266      0.0180
      8  C4        -4.1410    4.3630   14.3340 C.ar  266  BOS266      0.0738
      9  C5        -5.5120    4.3620   14.7060 C.ar  266  BOS266      0.0180
     10  C6        -6.0560    3.2780   15.4200 C.ar  266  BOS266      0.0213
     11  N2        -3.6230    5.4800   13.6190 N.am  266  BOS266     -0.1754
     12  C7        -2.3490    5.7700   13.1940 C.2   266  BOS266      0.2695
     13  O3        -1.3650    5.0690   13.3650 O.2   266  BOS266     -0.2680
     14  C8        -2.2570    7.0880   12.4680 C.ar  266  BOS266      0.0618
     15  C9        -1.5670    8.1470   13.1110 C.ar  266  BOS266      0.0051
     16  C10       -1.4390    9.4050   12.5000 C.ar  266  BOS266      0.0002
     17  C11       -1.9990    9.6430   11.2200 C.ar  266  BOS266      0.0005
     18  C12       -2.6890    8.6060   10.5610 C.ar  266  BOS266      0.0071
     19  C13       -2.8330    7.3230   11.1610 C.ar  266  BOS266      0.0401
     20  S2        -3.7220    6.0140   10.2970 S.3   266  BOS266     -0.0506
@<TRIPOS>BOND
     1    20    19    1
     2    18    19   ar
     3    18    17   ar
     4    19    14   ar
     5    17    16   ar
     6    14    15   ar
     7    14    12    1
     8    16    15   ar
     9    12    13    2
    10    12    11   am
    11    11     8    1
    12     8     7   ar
    13     8     9   ar
    14     7     6   ar
    15     9    10   ar
    16     6     5   ar
    17    10     5   ar
    18     5     2    1
    19     1     2    1
    20     4     2    2
    21     2     3    2
