@<TRIPOS>MOLECULE
2hdh_NAD_A_1.pdb
 44 48 0 0 0
SMALL
GASTEIGER

@<TRIPOS>ATOM
      1  PA        42.8900   35.9330   31.1080 P.3   350  NAD350      0.2189
      2  O1A       44.2890   35.5530   30.9070 O.2   350  NAD350     -0.5170
      3  O2A       41.9320   35.0110   31.8730 O.3   350  NAD350     -0.4371
      4  O5B       42.1030   36.1530   29.7100 O.3   350  NAD350     -0.3112
      5  C5B       42.5060   37.1630   28.7080 C.3   350  NAD350      0.1813
      6  C4B       41.7950   36.7600   27.4270 C.3   350  NAD350      0.1821
      7  O4B       42.2050   37.7930   26.4150 O.3   350  NAD350     -0.3135
      8  C3B       42.2840   35.4160   26.7720 C.3   350  NAD350      0.2184
      9  O3B       41.0910   34.5050   26.6260 O.3   350  NAD350     -0.2174
     10  C2B       42.9230   35.7250   25.4470 C.3   350  NAD350      0.2570
     11  O2B       42.8700   34.8570   24.4170 O.3   350  NAD350     -0.2130
     12  C1B       42.2910   37.1320   25.1750 C.3   350  NAD350      0.3186
     13  N9A       43.1370   37.9530   24.3290 N.pl3 350  NAD350     -0.1439
     14  C8A       44.4670   38.2870   24.2720 C.3   350  NAD350      0.3377
     15  N7A       44.8310   39.1010   23.2880 N.2   350  NAD350     -0.2095
     16  C5A       43.7030   39.3620   22.6070 C.2   350  NAD350      0.2526
     17  C6A       43.4350   40.2130   21.3870 C.2   350  NAD350      0.4393
     18  N6A       44.3540   40.8880   20.7500 N.pl3 350  NAD350      0.2180
     19  N1A       42.1150   40.1890   21.0330 N.2   350  NAD350      0.0021
     20  C2A       41.0860   39.5470   21.5920 C.3   350  NAD350      0.5254
     21  N3A       41.2820   38.7280   22.7460 N.2   350  NAD350     -0.0055
     22  C4A       42.6120   38.6750   23.2070 C.2   350  NAD350      0.3518
     23  O3        42.7970   37.3210   31.7960 O.3   350  NAD350     -0.2703
     24  PN        42.0540   38.1260   32.9070 P.3   350  NAD350      0.2189
     25  O1N       42.4600   37.6370   34.2470 O.3   350  NAD350     -0.4371
     26  O2N       40.5810   38.0590   32.6060 O.2   350  NAD350     -0.5170
     27  O5D       42.5650   39.6590   32.8890 O.3   350  NAD350     -0.3112
     28  C5D       42.2500   40.3650   31.6230 C.3   350  NAD350      0.1813
     29  C4D       42.1620   41.8330   31.9330 C.3   350  NAD350      0.1799
     30  O4D       41.4650   42.0450   33.2500 O.3   350  NAD350     -0.3327
     31  C3D       43.5040   42.6010   32.1470 C.3   350  NAD350      0.2158
     32  O3D       43.4030   43.9190   31.5540 O.3   350  NAD350     -0.2175
     33  C2D       43.7420   42.6750   33.6710 C.3   350  NAD350      0.2309
     34  O2D       44.6390   43.6600   34.1270 O.3   350  NAD350     -0.2158
     35  C1D       42.2750   42.8650   34.1900 C.3   350  NAD350      0.2263
     36  N1N       41.9040   42.4230   35.5990 N.pl3 350  NAD350     -0.2787
     37  C2N       42.3770   41.2380   36.1660 C.3   350  NAD350      0.1244
     38  C3N       41.9910   40.9240   37.4420 C.2   350  NAD350      0.0544
     39  C7N       42.4830   39.6230   38.1020 C.2   350  NAD350      0.2818
     40  O7N       42.1880   39.2140   39.2170 O.2   350  NAD350     -0.2670
     41  N7N       43.3610   38.8750   37.2640 N.am  350  NAD350     -0.0839
     42  C4N       41.0980   41.7880   38.2510 C.2   350  NAD350      0.0033
     43  C5N       40.6810   42.9650   37.5760 C.2   350  NAD350      0.0157
     44  C6N       41.0270   43.3170   36.3270 C.2   350  NAD350      0.0633
@<TRIPOS>BOND
     1    18    17    1
     2    19    17    2
     3    19    20    1
     4    17    16    1
     5    20    21    1
     6    16    22    1
     7    16    15    2
     8    21    22    2
     9    22    13    1
    10    15    14    1
    11    14    13    1
    12    13    12    1
    13    11    10    1
    14    12    10    1
    15    12     7    1
    16    10     8    1
    17     7     6    1
    18     9     8    1
    19     8     6    1
    20     6     5    1
    21     5     4    1
    22     4     1    1
    23     2     1    2
    24     1    23    1
    25     1     3    1
    26    32    31    1
    27    28    29    1
    28    28    27    1
    29    23    24    1
    30    29    31    1
    31    29    30    1
    32    31    33    1
    33    26    24    2
    34    27    24    1
    35    24    25    1
    36    30    35    1
    37    33    34    1
    38    33    35    1
    39    35    36    1
    40    36    37    1
    41    36    44    1
    42    37    38    1
    43    44    43    2
    44    41    39   am
    45    38    39    1
    46    38    42    2
    47    43    42    1
    48    39    40    2
