@<TRIPOS>MOLECULE
2hdj_NDP_A_1.pdb
 48 52 0 0 0
SMALL
GASTEIGER

@<TRIPOS>ATOM
      1  PA       104.3280   18.0060  176.0790 P.3   501  NDP501      0.2189
      2  O1A      104.4200   16.5380  176.3320 O.2   501  NDP501     -0.5170
      3  O2A      104.3110   18.9530  177.2140 O.3   501  NDP501     -0.4371
      4  O5B      103.0370   18.2850  175.1390 O.3   501  NDP501     -0.3112
      5  C5B      102.6060   17.3550  174.1170 C.3   501  NDP501      0.1813
      6  C4B      101.4340   17.9910  173.3520 C.3   501  NDP501      0.1820
      7  O4B      100.4060   18.4110  174.2780 O.3   501  NDP501     -0.3136
      8  C3B      101.7410   19.2650  172.5430 C.3   501  NDP501      0.2157
      9  O3B      102.0450   18.9190  171.2040 O.3   501  NDP501     -0.2175
     10  C2B      100.4800   20.1480  172.7210 C.3   501  NDP501      0.2314
     11  O2B       99.8330   20.4960  171.4950 O.3   501  NDP501     -0.2630
     12  C1B       99.5590   19.3310  173.6120 C.3   501  NDP501      0.3158
     13  N9A       98.8410   20.0720  174.6650 N.pl3 501  NDP501     -0.1439
     14  C8A       99.3230   21.1310  175.4260 C.3   501  NDP501      0.3377
     15  N7A       98.4500   21.5970  176.3000 N.2   501  NDP501     -0.2095
     16  C5A       97.3520   20.8220  176.1110 C.2   501  NDP501      0.2526
     17  C6A       96.0500   20.8030  176.7390 C.2   501  NDP501      0.4393
     18  N6A       95.7340   21.6670  177.7140 N.pl3 501  NDP501      0.2180
     19  N1A       95.1300   19.8550  176.2980 N.2   501  NDP501      0.0021
     20  C2A       95.4530   18.9640  175.2960 C.3   501  NDP501      0.5254
     21  N3A       96.6590   18.8970  174.6360 N.2   501  NDP501     -0.0055
     22  C4A       97.5670   19.8610  175.0960 C.2   501  NDP501      0.3518
     23  O3       105.5230   18.4190  175.0930 O.3   501  NDP501     -0.2703
     24  PN       106.8510   17.8470  174.4580 P.3   501  NDP501      0.2189
     25  O1N      107.4220   16.5540  174.8510 O.3   501  NDP501     -0.4371
     26  O2N      107.6490   18.9400  173.7800 O.2   501  NDP501     -0.5170
     27  O5D      107.5750   18.3120  175.8490 O.3   501  NDP501     -0.3112
     28  C5D      107.4760   19.5980  176.5330 C.3   501  NDP501      0.1813
     29  C4D      108.8080   20.3000  176.6400 C.3   501  NDP501      0.1799
     30  O4D      109.7890   19.4410  177.2870 O.3   501  NDP501     -0.3327
     31  C3D      109.5170   20.6950  175.3320 C.3   501  NDP501      0.2158
     32  O3D      108.9240   21.7540  174.5970 O.3   501  NDP501     -0.2175
     33  C2D      110.9510   20.9050  175.8180 C.3   501  NDP501      0.2309
     34  O2D      111.1200   22.2320  176.3050 O.3   501  NDP501     -0.2158
     35  C1D      111.0930   19.7850  176.8590 C.3   501  NDP501      0.2263
     36  N1N      111.7900   18.5500  176.3310 N.pl3 501  NDP501     -0.2787
     37  C2N      113.0550   18.3030  176.8700 C.3   501  NDP501      0.1244
     38  C3N      113.8170   17.1850  176.4540 C.2   501  NDP501      0.0544
     39  C7N      115.1850   16.9120  177.0350 C.2   501  NDP501      0.2818
     40  O7N      115.8270   15.9260  176.6480 O.2   501  NDP501     -0.2670
     41  N7N      115.6590   17.7690  177.9730 N.am  501  NDP501     -0.0839
     42  C4N      113.2600   16.2880  175.4490 C.2   501  NDP501      0.0033
     43  C5N      111.9610   16.5390  174.8980 C.2   501  NDP501      0.0157
     44  C6N      111.2280   17.6620  175.3340 C.2   501  NDP501      0.0633
     45  P2B       99.6060   22.0290  171.0240 P.3   501  NDP501      0.5328
     46  O1X      100.9720   22.6820  170.9630 O.3   501  NDP501     -0.1145
     47  O2X       98.8910   21.8500  169.6990 O.2   501  NDP501     -0.2224
     48  O3X       98.7220   22.6640  172.0690 O.3   501  NDP501     -0.1145
@<TRIPOS>BOND
     1    47    45    2
     2    46    45    1
     3    45    11    1
     4    45    48    1
     5     9     8    1
     6    11    10    1
     7     8    10    1
     8     8     6    1
     9    10    12    1
    10     6     5    1
    11     6     7    1
    12    12     7    1
    13    12    13    1
    14    26    24    2
    15     5     4    1
    16    24    25    1
    17    24    23    1
    18    24    27    1
    19    32    31    1
    20    21    22    2
    21    21    20    1
    22    13    22    1
    23    13    14    1
    24    43    44    2
    25    43    42    1
    26    23     1    1
    27    22    16    1
    28     4     1    1
    29    20    19    1
    30    31    33    1
    31    31    29    1
    32    44    36    1
    33    14    15    1
    34    42    38    2
    35    33    34    1
    36    33    35    1
    37    27    28    1
    38     1     2    2
    39     1     3    1
    40    16    15    2
    41    16    17    1
    42    19    17    2
    43    36    35    1
    44    36    37    1
    45    38    37    1
    46    38    39    1
    47    28    29    1
    48    29    30    1
    49    40    39    2
    50    17    18    1
    51    35    30    1
    52    39    41   am
