@<TRIPOS>MOLECULE
2hdk_PLP_A_1.pdb
 15 15 0 0 0
SMALL
GASTEIGER

@<TRIPOS>ATOM
      1  N1        -4.8340   -5.2270    1.7620 N.ar  400  PLP400     -0.2452
      2  C2        -4.3060   -5.0470    3.0060 C.ar  400  PLP400      0.0978
      3  C2A       -3.5910   -3.7210    3.3220 C.3   400  PLP400      0.0555
      4  C3        -4.4240   -6.0810    3.9450 C.ar  400  PLP400      0.2049
      5  O3        -3.9130   -5.9050    5.1490 O.3   400  PLP400     -0.2857
      6  C4        -5.0680   -7.2870    3.6200 C.ar  400  PLP400      0.0182
      7  C4A       -5.1710   -8.4300    4.6700 C.3   400  PLP400      0.0342
      8  C5        -5.5980   -7.4030    2.3340 C.ar  400  PLP400      0.0261
      9  C6        -5.4690   -6.3630    1.4270 C.ar  400  PLP400      0.0965
     10  C5A       -6.3530   -8.5640    1.8570 C.3   400  PLP400      0.1815
     11  O4P       -5.7280   -9.7890    1.9540 O.3   400  PLP400     -0.2653
     12  P         -6.6450  -11.0140    2.0870 P.3   400  PLP400      0.5329
     13  O1P       -7.4160  -10.9990    3.3140 O.3   400  PLP400     -0.1145
     14  O2P       -5.6140  -12.1630    2.1980 O.3   400  PLP400     -0.1145
     15  O3P       -7.2950  -11.1510    0.7480 O.2   400  PLP400     -0.2224
@<TRIPOS>BOND
     1    15    12    2
     2     9     1   ar
     3     9     8   ar
     4     1     2   ar
     5    10    11    1
     6    10     8    1
     7    11    12    1
     8    12    14    1
     9    12    13    1
    10     8     6   ar
    11     2     3    1
    12     2     4   ar
    13     6     4   ar
    14     6     7    1
    15     4     5    1
