@<TRIPOS>MOLECULE
2hdn_TAC_B_1.pdb
 32 35 0 0 0
SMALL
GASTEIGER

@<TRIPOS>ATOM
      1  C1        55.1050   16.3850   97.3790 C.2   1888  TAC1888     0.1962
      2  O1        56.1780   16.4720   98.0520 O.2   1888  TAC1888    -0.2925
      3  C2        55.1620   15.8820   96.0130 C.3   1888  TAC1888     0.1979
      4  C21       56.4930   15.4740   95.4450 C.2   1888  TAC1888     0.2746
      5  O21       56.6020   15.0900   94.2310 O.2   1888  TAC1888    -0.2707
      6  N21       57.5730   15.5240   96.2690 N.am  1888  TAC1888    -0.0871
      7  C3        53.9470   15.8520   95.2040 C.2   1888  TAC1888     0.1806
      8  O3        54.0010   15.5690   93.9920 O.2   1888  TAC1888    -0.2937
      9  C4        52.5280   16.2430   95.8200 C.3   1888  TAC1888     0.1195
     10  N4        51.6990   15.0210   96.2620 N.3   1888  TAC1888    -0.2654
     11  C42       50.2700   15.4050   96.4600 C.3   1888  TAC1888     0.0900
     12  C43       51.8620   13.6760   95.5950 C.3   1888  TAC1888     0.0900
     13  C41       52.5980   17.2330   96.9740 C.3   1888  TAC1888     0.0599
     14  C5        52.8310   18.6490   96.4330 C.3   1888  TAC1888     0.0118
     15  C51       52.7370   19.7340   97.4920 C.3   1888  TAC1888     0.0560
     16  C6        53.2130   21.1220   96.9670 C.3   1888  TAC1888     0.1491
     17  C62       52.4350   21.5630   95.7130 C.3   1888  TAC1888     0.0379
     18  O6        54.6290   21.0370   96.6230 O.3   1888  TAC1888    -0.2209
     19  C61       53.0890   22.1580   98.1330 C.ar  1888  TAC1888     0.0115
     20  C7        52.7940   23.5480   97.8670 C.ar  1888  TAC1888    -0.0016
     21  C8        52.7120   24.4810   98.9200 C.ar  1888  TAC1888     0.0030
     22  C9        52.9260   24.0720  100.2590 C.ar  1888  TAC1888     0.0421
     23  C10       53.2300   22.7000  100.5830 C.ar  1888  TAC1888     0.1985
     24  O10       53.4310   22.3190  101.8930 O.3   1888  TAC1888    -0.2865
     25  C1A       53.3150   21.7130   99.5190 C.ar  1888  TAC1888     0.0756
     26  C11       53.7470   20.3470   99.8010 C.2   1888  TAC1888     0.1931
     27  O11       54.1380   20.0220  100.9930 O.2   1888  TAC1888    -0.2871
     28  C1B       53.5460   19.3280   98.8090 C.2   1888  TAC1888     0.0298
     29  C12       53.9740   17.9620   99.0470 C.3   1888  TAC1888     0.2079
     30  O12       54.5820   17.6220  100.2020 O.3   1888  TAC1888    -0.2154
     31  C1C       53.7240   16.8050   98.0370 C.3   1888  TAC1888     0.2109
     32  O1C       53.2270   15.6770   98.7810 O.3   1888  TAC1888    -0.2151
@<TRIPOS>BOND
     1     8     7    2
     2     5     4    2
     3     7     9    1
     4     7     3    1
     5     4     3    1
     6     4     6   am
     7    12    10    1
     8    17    16    1
     9     9    10    1
    10     9    13    1
    11     3     1    1
    12    10    11    1
    13    14    13    1
    14    14    15    1
    15    18    16    1
    16    16    15    1
    17    16    19    1
    18    13    31    1
    19     1    31    1
    20     1     2    2
    21    15    28    1
    22    20    19   ar
    23    20    21   ar
    24    31    32    1
    25    31    29    1
    26    19    25   ar
    27    28    29    1
    28    28    26    2
    29    21    22   ar
    30    29    30    1
    31    25    26    1
    32    25    23   ar
    33    26    27    1
    34    22    23   ar
    35    23    24    1
