@<TRIPOS>MOLECULE
2hdn_GDP_B_1.pdb
 28 30 0 0 0
SMALL
GASTEIGER

@<TRIPOS>ATOM
      1  PB        56.0200   15.3680  103.1770 P.3   1999  GDP1999     0.5373
      2  O1B       57.2330   15.6120  102.3740 O.2   1999  GDP1999    -0.2221
      3  O2B       54.9620   16.3170  102.7330 O.3   1999  GDP1999    -0.1143
      4  O3B       56.3410   15.3950  104.6070 O.3   1999  GDP1999    -0.1143
      5  O3A       55.5270   13.8810  102.9030 O.3   1999  GDP1999    -0.2261
      6  PA        54.2860   13.4960  101.9450 P.3   1999  GDP1999     0.2231
      7  O1A       53.0090   13.8290  102.6270 O.3   1999  GDP1999    -0.4370
      8  O2A       54.3450   14.1030  100.5660 O.2   1999  GDP1999    -0.5169
      9  O5'       54.4420   11.9110  101.9200 O.3   1999  GDP1999    -0.3111
     10  C5'       55.5700   11.2530  101.3210 C.3   1999  GDP1999     0.1813
     11  C4'       55.1050    9.9660  100.6910 C.3   1999  GDP1999     0.1799
     12  O4'       54.8360    9.0060  101.7260 O.3   1999  GDP1999    -0.3326
     13  C3'       53.8260   10.1970   99.8930 C.3   1999  GDP1999     0.2158
     14  O3'       54.1370    9.7240   98.5900 O.3   1999  GDP1999    -0.2175
     15  C2'       52.8140    9.1970  100.4370 C.3   1999  GDP1999     0.2310
     16  O2'       52.1720    8.3950   99.4870 O.3   1999  GDP1999    -0.2158
     17  C1'       53.5790    8.4190  101.5000 C.3   1999  GDP1999     0.2293
     18  N9        52.8610    8.3200  102.7610 N.pl3 1999  GDP1999    -0.2354
     19  C8        52.3630    9.3450  103.5210 C.3   1999  GDP1999     0.2246
     20  N7        51.7530    8.9290  104.5960 N.2   1999  GDP1999    -0.2322
     21  C5        51.8530    7.5470  104.5370 C.2   1999  GDP1999     0.2182
     22  C6        51.3610    6.5590  105.4100 C.1   1999  GDP1999     0.2372
     23  O6        50.7260    6.7040  106.4410 O.2   1999  GDP1999    -0.2069
     24  N1        51.6740    5.2830  104.9680 N.2   1999  GDP1999    -0.2485
     25  C2        52.3620    4.9950  103.8190 C.1   1999  GDP1999     0.2531
     26  N2        52.5480    3.6950  103.5450 N.pl3 1999  GDP1999    -0.0226
     27  N3        52.8280    5.9110  102.9950 N.2   1999  GDP1999    -0.3074
     28  C4        52.5370    7.1590  103.4130 C.2   1999  GDP1999     0.2300
@<TRIPOS>BOND
     1    14    13    1
     2    16    15    1
     3    13    15    1
     4    13    11    1
     5    15    17    1
     6     8     6    2
     7    11    10    1
     8    11    12    1
     9    10     9    1
    10    17    12    1
    11    17    18    1
    12     9     6    1
    13     6     7    1
    14     6     5    1
    15     2     1    2
    16     3     1    1
    17    18    28    1
    18    18    19    1
    19     5     1    1
    20    27    28    2
    21    27    25    2
    22     1     4    1
    23    28    21    1
    24    19    20    1
    25    26    25    1
    26    25    24    2
    27    21    20    2
    28    21    22    1
    29    24    22    2
    30    22    23    2
