@<TRIPOS>MOLECULE
2hdr_4A3_A_1.pdb
 11 11 0 0 0
SMALL
GASTEIGER

@<TRIPOS>ATOM
      1  C3        19.9420   -8.7900    4.2420 C.ar  501  4A3501      0.0215
      2  C5        18.1030   -7.2850    4.7000 C.ar  501  4A3501      0.0830
      3  C8        17.4990   -5.9130    4.6980 C.2   501  4A3501      0.3879
      4  O9        17.1540  -10.6860    5.6590 O.3   501  4A3501     -0.2851
      5  C2        19.1820   -9.8580    4.7230 C.ar  501  4A3501      0.1278
      6  C4        19.4040   -7.5010    4.2310 C.ar  501  4A3501      0.0082
      7  C6        17.3530   -8.3590    5.1800 C.ar  501  4A3501      0.0500
      8  C7        17.8940   -9.6410    5.1860 C.ar  501  4A3501      0.2125
      9  O10       16.3350   -5.7700    5.1300 O.co2 501  4A3501     -0.2406
     10  O11       18.1630   -4.9450    4.2690 O.co2 501  4A3501     -0.2406
     11  N1        19.6990  -11.1110    4.7370 N.pl3 501  4A3501     -0.1247
@<TRIPOS>BOND
     1     6     1   ar
     2     6     2   ar
     3     1     5   ar
     4    10     3   ar
     5     3     2    1
     6     3     9   ar
     7     2     7   ar
     8     5    11    1
     9     5     8   ar
    10     7     8   ar
    11     8     4    1
