@<TRIPOS>MOLECULE
2hds_4MB_A_1.pdb
 14 14 0 0 0
SMALL
GASTEIGER

@<TRIPOS>ATOM
      1  C3        27.3900    9.1420   20.1840 C.ar  1601  4MB1601     0.0182
      2  C5        29.2650   10.3480   21.0530 C.ar  1601  4MB1601     0.0799
      3  N1        25.6570   10.2090   18.9640 N.pl3 1601  4MB1601    -0.1006
      4  C2        26.8580   10.2810   19.6600 C.ar  1601  4MB1601     0.0906
      5  C4        28.6120    9.1760   20.8460 C.ar  1601  4MB1601     0.0080
      6  C6        30.5540   10.4580   21.7800 C.2   1601  4MB1601     0.3878
      7  C9        28.7150   11.5380   20.5230 C.ar  1601  4MB1601     0.0080
      8  C12       24.1780   12.1270   20.0940 C.3   1601  4MB1601     0.2016
      9  C10       27.5350   11.4980   19.7960 C.ar  1601  4MB1601     0.0182
     10  O7        31.1890    9.3810   22.0130 O.co2 1601  4MB1601    -0.2406
     11  O8        31.0120   11.5810   22.1260 O.co2 1601  4MB1601    -0.2406
     12  S11       24.6950   11.4380   18.5990 S.O2  1601  4MB1601     0.0750
     13  O14       25.4200   12.4650   17.9240 O.2   1601  4MB1601    -0.1528
     14  O13       23.5570   10.8780   17.9000 O.2   1601  4MB1601    -0.1528
@<TRIPOS>BOND
     1    14    12    2
     2    13    12    2
     3    12     3    1
     4    12     8    1
     5     3     4    1
     6     4     9   ar
     7     4     1   ar
     8     9     7   ar
     9     1     5   ar
    10     7     2   ar
    11     5     2   ar
    12     2     6    1
    13     6    10   ar
    14     6    11   ar
