@<TRIPOS>MOLECULE
2hdu_F12_A_1.pdb
 12 12 0 0 0
SMALL
GASTEIGER

@<TRIPOS>ATOM
      1  O9        42.9770   18.6040   31.8340 O.co2 1004  F121004    -0.2405
      2  C7        42.9640   19.1740   30.7310 C.2   1004  F121004     0.3895
      3  O8        43.8690   19.9050   30.2900 O.co2 1004  F121004    -0.2405
      4  C3        41.7790   19.0420   29.8260 C.ar  1004  F121004     0.1017
      5  C4        41.6890   19.6630   28.5700 C.ar  1004  F121004     0.0154
      6  C5        40.5080   19.4160   27.8730 C.ar  1004  F121004     0.0370
      7  S6        39.4730   18.3490   28.7500 S.2   1004  F121004    -0.0697
      8  C2        40.5530   18.2420   30.0860 C.ar  1004  F121004     0.1091
      9  N1        40.3110   17.5120   31.2040 N.am  1004  F121004    -0.1724
     10  C13       39.1720   16.8290   31.3610 C.2   1004  F121004     0.2465
     11  O14       38.2630   16.8220   30.5350 O.2   1004  F121004    -0.2730
     12  C12       39.0690   16.0790   32.6490 C.3   1004  F121004     0.0968
@<TRIPOS>BOND
     1     6     5   ar
     2     6     7   ar
     3     5     4   ar
     4     7     8   ar
     5     4     8   ar
     6     4     2    1
     7     8     9    1
     8     3     2   ar
     9    11    10    2
    10     2     1   ar
    11     9    10   am
    12    10    12    1
