@<TRIPOS>MOLECULE
2he5_NDP_A_1.pdb
 48 52 0 0 0
SMALL
GASTEIGER

@<TRIPOS>ATOM
      1  PA        -0.5760    6.2370   -2.9190 P.3   401  NDP401      0.2189
      2  O1A       -1.9600    5.7880   -2.5770 O.2   401  NDP401     -0.5170
      3  O2A        0.2060    7.0290   -1.9500 O.3   401  NDP401     -0.4371
      4  O5B       -0.6710    6.9990   -4.3340 O.3   401  NDP401     -0.3112
      5  C5B        0.1960    8.1160   -4.6100 C.3   401  NDP401      0.1813
      6  C4B       -0.5790    9.1430   -5.4280 C.3   401  NDP401      0.1820
      7  O4B       -1.6930    9.6910   -4.6750 O.3   401  NDP401     -0.3136
      8  C3B        0.2110   10.3690   -5.8540 C.3   401  NDP401      0.2157
      9  O3B        0.8020   10.1310   -7.1190 O.3   401  NDP401     -0.2175
     10  C2B       -0.8180   11.5270   -5.7980 C.3   401  NDP401      0.2314
     11  O2B       -0.9680   12.1710   -7.0540 O.3   401  NDP401     -0.2630
     12  C1B       -2.1120   10.8840   -5.3250 C.3   401  NDP401      0.3158
     13  N9A       -2.8930   11.6560   -4.3270 N.pl3 401  NDP401     -0.1439
     14  C8A       -2.4670   12.0690   -3.0640 C.3   401  NDP401      0.3377
     15  N7A       -3.3780   12.7450   -2.3830 N.2   401  NDP401     -0.2095
     16  C5A       -4.4480   12.7840   -3.2220 C.2   401  NDP401      0.2526
     17  C6A       -5.7600   13.3660   -3.0940 C.2   401  NDP401      0.4393
     18  N6A       -6.1210   14.0250   -1.9810 N.pl3 401  NDP401      0.2180
     19  N1A       -6.6390   13.2210   -4.1640 N.2   401  NDP401      0.0021
     20  C2A       -6.2660   12.5440   -5.3100 C.3   401  NDP401      0.5254
     21  N3A       -5.0440   11.9540   -5.5330 N.2   401  NDP401     -0.0055
     22  C4A       -4.1770   12.1130   -4.4430 C.2   401  NDP401      0.3518
     23  O3         0.2520    4.9340   -3.3440 O.3   401  NDP401     -0.2703
     24  PN         1.7450    4.4340   -3.2940 P.3   401  NDP401      0.2189
     25  O1N        2.5880    5.4270   -3.9940 O.2   401  NDP401     -0.5170
     26  O2N        1.7130    3.0470   -3.8810 O.3   401  NDP401     -0.4371
     27  O5D        2.1360    4.3520   -1.7510 O.3   401  NDP401     -0.3112
     28  C5D        2.8200    5.3690   -1.0150 C.3   401  NDP401      0.1813
     29  C4D        4.0650    4.8230   -0.3890 C.3   401  NDP401      0.1799
     30  O4D        3.8790    3.4250   -0.0130 O.3   401  NDP401     -0.3327
     31  C3D        5.3320    4.7800   -1.2580 C.3   401  NDP401      0.2158
     32  O3D        5.9360    6.0340   -1.5150 O.3   401  NDP401     -0.2175
     33  C2D        6.1810    3.7600   -0.5080 C.3   401  NDP401      0.2309
     34  O2D        6.9270    4.4080    0.5090 O.3   401  NDP401     -0.2158
     35  C1D        5.1240    2.7520   -0.0300 C.3   401  NDP401      0.2263
     36  N1N        5.0360    1.5290   -0.9090 N.pl3 401  NDP401     -0.2787
     37  C2N        5.7050    0.3990   -0.4360 C.3   401  NDP401      0.1244
     38  C3N        5.7070   -0.8020   -1.1800 C.2   401  NDP401      0.0544
     39  C7N        6.4230   -2.0250   -0.6840 C.2   401  NDP401      0.2818
     40  O7N        6.4090   -3.0560   -1.3570 O.2   401  NDP401     -0.2670
     41  N7N        7.0630   -1.9480    0.4960 N.am  401  NDP401     -0.0839
     42  C4N        5.0010   -0.8430   -2.4480 C.2   401  NDP401      0.0033
     43  C5N        4.3170    0.3100   -2.9240 C.2   401  NDP401      0.0157
     44  C6N        4.3330    1.4930   -2.1620 C.2   401  NDP401      0.0633
     45  P2B       -0.1770   13.5340   -7.4150 P.3   401  NDP401      0.5328
     46  O1X        1.3000   13.2580   -7.2290 O.3   401  NDP401     -0.1145
     47  O2X       -0.6390   13.8080   -8.8320 O.2   401  NDP401     -0.2224
     48  O3X       -0.6870   14.5670   -6.4560 O.3   401  NDP401     -0.1145
@<TRIPOS>BOND
     1    47    45    2
     2    45    46    1
     3    45    11    1
     4    45    48    1
     5     9     8    1
     6    11    10    1
     7     8    10    1
     8     8     6    1
     9    10    12    1
    10    21    20    1
    11    21    22    2
    12     6     7    1
    13     6     5    1
    14    12     7    1
    15    12    13    1
    16    20    19    1
    17     5     4    1
    18    22    13    1
    19    22    16    1
    20     4     1    1
    21    13    14    1
    22    19    17    2
    23    25    24    2
    24    26    24    1
    25    23    24    1
    26    23     1    1
    27    24    27    1
    28    16    17    1
    29    16    15    2
    30    17    18    1
    31    14    15    1
    32    43    42    1
    33    43    44    2
    34     1     2    2
    35     1     3    1
    36    42    38    2
    37    44    36    1
    38    27    28    1
    39    32    31    1
    40    40    39    2
    41    31    33    1
    42    31    29    1
    43    38    39    1
    44    38    37    1
    45    28    29    1
    46    36    37    1
    47    36    35    1
    48    39    41   am
    49    33    35    1
    50    33    34    1
    51    29    30    1
    52    35    30    1
