@<TRIPOS>MOLECULE
2heh_ADP_A_1.pdb
 27 29 0 0 0
SMALL
GASTEIGER

@<TRIPOS>ATOM
      1  PB        14.1380    8.0070   25.6930 P.3   601  ADP601      0.5373
      2  O1B       13.5700    8.5990   24.4050 O.2   601  ADP601     -0.2221
      3  O2B       14.1530    8.9570   26.8190 O.3   601  ADP601     -0.1143
      4  O3B       13.5440    6.6540   25.9590 O.3   601  ADP601     -0.1143
      5  PA        17.0250    8.0350   26.1880 P.3   601  ADP601      0.2231
      6  O1A       16.9770    7.2930   27.4780 O.3   601  ADP601     -0.4370
      7  O2A       17.3390    9.4850   26.2700 O.2   601  ADP601     -0.5169
      8  O3A       15.7000    7.7020   25.3560 O.3   601  ADP601     -0.2261
      9  O5'       18.0970    7.3670   25.2060 O.3   601  ADP601     -0.3111
     10  C5'       18.3400    5.9550   25.0990 C.3   601  ADP601      0.1813
     11  C4'       19.8450    5.6510   25.1010 C.3   601  ADP601      0.1821
     12  O4'       20.5160    6.1820   23.9280 O.3   601  ADP601     -0.3135
     13  C3'       20.5230    6.2890   26.2930 C.3   601  ADP601      0.2184
     14  O3'       21.5880    5.4600   26.8080 O.3   601  ADP601     -0.2174
     15  C2'       21.0170    7.5900   25.7100 C.3   601  ADP601      0.2570
     16  O2'       22.0150    8.2540   26.4700 O.3   601  ADP601     -0.2130
     17  C1'       21.4220    7.2090   24.3100 C.3   601  ADP601      0.3186
     18  N9        21.2700    8.3620   23.3970 N.pl3 601  ADP601     -0.1439
     19  C8        20.1040    8.9730   23.0910 C.3   601  ADP601      0.3377
     20  N7        20.3300   10.0010   22.2370 N.2   601  ADP601     -0.2095
     21  C5        21.6640   10.0350   21.9670 C.2   601  ADP601      0.2526
     22  C6        22.5760   10.8740   21.1520 C.2   601  ADP601      0.4393
     23  N6        22.1150   11.8800   20.4240 N.pl3 601  ADP601      0.2180
     24  N1        23.9130   10.6210   21.1720 N.2   601  ADP601      0.0021
     25  C2        24.4100    9.5900   21.9240 C.3   601  ADP601      0.5254
     26  N3        23.6060    8.7720   22.6730 N.2   601  ADP601     -0.0055
     27  C4        22.2660    8.9610   22.7370 C.2   601  ADP601      0.3518
@<TRIPOS>BOND
     1    23    22    1
     2    22    24    2
     3    22    21    1
     4    24    25    1
     5    25    26    1
     6    21    20    2
     7    21    27    1
     8    20    19    1
     9    26    27    2
    10    27    18    1
    11    19    18    1
    12    18    17    1
    13    12    17    1
    14    12    11    1
    15    17    15    1
    16     2     1    2
    17    10    11    1
    18    10     9    1
    19    11    13    1
    20     9     5    1
    21     8     1    1
    22     8     5    1
    23     1     4    1
    24     1     3    1
    25    15    13    1
    26    15    16    1
    27     5     7    2
    28     5     6    1
    29    13    14    1
