@<TRIPOS>MOLECULE
2hei_GDP_A_1.pdb
 28 30 0 0 0
SMALL
GASTEIGER

@<TRIPOS>ATOM
      1  PB        14.6630   28.8010    6.4800 P.3   201  GDP201      0.5373
      2  O1B       13.7800   28.5950    5.2420 O.2   201  GDP201     -0.2221
      3  O2B       16.0000   28.1600    6.2240 O.3   201  GDP201     -0.1143
      4  O3B       14.8070   30.2770    6.8280 O.3   201  GDP201     -0.1143
      5  O3A       14.0550   27.9330    7.6770 O.3   201  GDP201     -0.2261
      6  PA        13.0750   28.4120    8.8950 P.3   201  GDP201      0.2231
      7  O1A       13.8880   29.1530    9.9420 O.3   201  GDP201     -0.4370
      8  O2A       11.9040   29.1820    8.3570 O.2   201  GDP201     -0.5169
      9  O5'       12.6420   27.0370    9.5730 O.3   201  GDP201     -0.3111
     10  C5'       11.8380   26.1160    8.8650 C.3   201  GDP201      0.1813
     11  C4'       10.9560   25.3420    9.8280 C.3   201  GDP201      0.1799
     12  O4'       11.8100   24.6300   10.7370 O.3   201  GDP201     -0.3326
     13  C3'       10.0750   26.2010   10.6970 C.3   201  GDP201      0.2158
     14  O3'        8.8820   25.4810   11.0560 O.3   201  GDP201     -0.2175
     15  C2'       10.9160   26.3690   11.9320 C.3   201  GDP201      0.2310
     16  O2'       10.2340   26.6840   13.1500 O.3   201  GDP201     -0.2158
     17  C1'       11.5870   25.0200   12.0570 C.3   201  GDP201      0.2293
     18  N9        12.8560   25.0590   12.7360 N.pl3 201  GDP201     -0.2354
     19  C8        13.8440   25.9330   12.5440 C.3   201  GDP201      0.2246
     20  N7        14.8810   25.6410   13.3250 N.2   201  GDP201     -0.2322
     21  C5        14.5560   24.5540   14.0110 C.2   201  GDP201      0.2182
     22  C6        15.1900   23.7280   15.0160 C.1   201  GDP201      0.2372
     23  O6        16.3270   23.9630   15.3940 O.2   201  GDP201     -0.2069
     24  N1        14.5670   22.6580   15.4600 N.2   201  GDP201     -0.2485
     25  C2        13.3100   22.3410   15.0600 C.1   201  GDP201      0.2531
     26  N2        12.7350   21.2490   15.5860 N.pl3 201  GDP201     -0.0226
     27  N3        12.6260   23.0780   14.1460 N.2   201  GDP201     -0.3074
     28  C4        13.2340   24.1810   13.6130 C.2   201  GDP201      0.2300
@<TRIPOS>BOND
     1     2     1    2
     2     3     1    1
     3     1     4    1
     4     1     5    1
     5     5     6    1
     6     8     6    2
     7    10     9    1
     8    10    11    1
     9     6     9    1
    10     6     7    1
    11    11    13    1
    12    11    12    1
    13    13    14    1
    14    13    15    1
    15    12    17    1
    16    15    17    1
    17    15    16    1
    18    17    18    1
    19    19    18    1
    20    19    20    1
    21    18    28    1
    22    20    21    2
    23    28    21    1
    24    28    27    2
    25    21    22    1
    26    27    25    2
    27    22    23    2
    28    22    24    2
    29    25    24    2
    30    25    26    1
