@<TRIPOS>MOLECULE
2hej_NDP_A_1.pdb
 48 52 0 0 0
SMALL
GASTEIGER

@<TRIPOS>ATOM
      1  PA        13.7500   -9.1980   31.8650 P.3   401  NDP401      0.2189
      2  O1A       15.0810   -9.8060   32.1920 O.2   401  NDP401     -0.5170
      3  O2A       13.0880   -8.3040   32.8280 O.3   401  NDP401     -0.4371
      4  O5B       12.7360  -10.3750   31.4580 O.3   401  NDP401     -0.3112
      5  C5B       13.2280  -11.4680   30.6680 C.3   401  NDP401      0.1813
      6  C4B       12.0870  -12.4250   30.4150 C.3   401  NDP401      0.1820
      7  O4B       11.4740  -12.8380   31.6450 O.3   401  NDP401     -0.3136
      8  C3B       10.9120  -11.9220   29.5520 C.3   401  NDP401      0.2157
      9  O3B       11.2090  -12.1970   28.2050 O.3   401  NDP401     -0.2175
     10  C2B        9.7130  -12.6820   30.1460 C.3   401  NDP401      0.2314
     11  O2B        9.1220  -13.5700   29.2050 O.3   401  NDP401     -0.2630
     12  C1B       10.2490  -13.4670   31.3150 C.3   401  NDP401      0.3158
     13  N9A        9.4500  -13.4210   32.5460 N.pl3 401  NDP401     -0.1439
     14  C8A        9.0140  -12.2890   33.2210 C.3   401  NDP401      0.3377
     15  N7A        8.3200  -12.5540   34.3110 N.2   401  NDP401     -0.2095
     16  C5A        8.2930  -13.9140   34.3560 C.2   401  NDP401      0.2526
     17  C6A        7.7050  -14.8460   35.2870 C.2   401  NDP401      0.4393
     18  N6A        7.0270  -14.4210   36.3610 N.pl3 401  NDP401      0.2180
     19  N1A        7.8680  -16.2020   35.0330 N.2   401  NDP401      0.0021
     20  C2A        8.5710  -16.6380   33.9260 C.3   401  NDP401      0.5254
     21  N3A        9.1680  -15.8340   32.9830 N.2   401  NDP401     -0.0055
     22  C4A        8.9890  -14.4780   33.2630 C.2   401  NDP401      0.3518
     23  O3        13.9120   -8.4570   30.4770 O.3   401  NDP401     -0.2703
     24  PN        14.6410   -7.1710   29.9510 P.3   401  NDP401      0.2189
     25  O1N       14.9780   -7.4020   28.5460 O.2   401  NDP401     -0.5170
     26  O2N       15.7930   -6.9190   30.8910 O.3   401  NDP401     -0.4371
     27  O5D       13.5840   -6.0010   30.0360 O.3   401  NDP401     -0.3112
     28  C5D       13.2760   -5.2710   31.2200 C.3   401  NDP401      0.1813
     29  C4D       13.3570   -3.8040   30.9610 C.3   401  NDP401      0.1799
     30  O4D       14.7370   -3.3560   31.1230 O.3   401  NDP401     -0.3327
     31  C3D       13.0050   -3.2930   29.5530 C.3   401  NDP401      0.2158
     32  O3D       11.6240   -3.3250   29.2220 O.3   401  NDP401     -0.2175
     33  C2D       13.6440   -1.9250   29.5820 C.3   401  NDP401      0.2309
     34  O2D       12.7460   -1.0270   30.2090 O.3   401  NDP401     -0.2158
     35  C1D       14.9400   -2.2000   30.3510 C.3   401  NDP401      0.2263
     36  N1N       16.1370   -2.4010   29.4860 N.pl3 401  NDP401     -0.2787
     37  C2N       17.1020   -1.4090   29.5720 C.3   401  NDP401      0.1244
     38  C3N       18.2690   -1.4790   28.7950 C.2   401  NDP401      0.0544
     39  C7N       19.3210   -0.4180   28.8790 C.2   401  NDP401      0.2818
     40  O7N       20.3300   -0.5050   28.1750 O.2   401  NDP401     -0.2670
     41  N7N       19.1270    0.6030   29.7410 N.am  401  NDP401     -0.0839
     42  C4N       18.4510   -2.6130   27.8970 C.2   401  NDP401      0.0033
     43  C5N       17.4560   -3.6360   27.8220 C.2   401  NDP401      0.0157
     44  C6N       16.3080   -3.5310   28.6110 C.2   401  NDP401      0.0633
     45  P2B        7.5750  -13.4930   28.7930 P.3   401  NDP401      0.5328
     46  O1X        7.3410  -12.1160   28.2180 O.3   401  NDP401     -0.1145
     47  O2X        7.4530  -14.6490   27.8150 O.2   401  NDP401     -0.2224
     48  O3X        6.8060  -13.7260   30.0570 O.3   401  NDP401     -0.1145
@<TRIPOS>BOND
     1    47    45    2
     2    43    42    1
     3    43    44    2
     4    42    38    2
     5    40    39    2
     6     9     8    1
     7    46    45    1
     8    25    24    2
     9    44    36    1
    10    45    11    1
    11    45    48    1
    12    38    39    1
    13    38    37    1
    14    39    41   am
    15    11    10    1
    16    32    31    1
    17    36    37    1
    18    36    35    1
    19     8    10    1
    20     8     6    1
    21    31    33    1
    22    31    29    1
    23    33    34    1
    24    33    35    1
    25    24    27    1
    26    24    23    1
    27    24    26    1
    28    27    28    1
    29    10    12    1
    30    35    30    1
    31     6     5    1
    32     6     7    1
    33    23     1    1
    34     5     4    1
    35    29    30    1
    36    29    28    1
    37    12     7    1
    38    12    13    1
    39     4     1    1
    40     1     2    2
    41     1     3    1
    42    13    14    1
    43    13    22    1
    44    21    22    2
    45    21    20    1
    46    14    15    1
    47    22    16    1
    48    20    19    1
    49    15    16    2
    50    16    17    1
    51    19    17    2
    52    17    18    1
