@<TRIPOS>MOLECULE
2hek_GDP_A_1.pdb
 28 30 0 0 0
SMALL
GASTEIGER

@<TRIPOS>ATOM
      1  PB        23.4170   -9.4940   47.6440 P.3   401  GDP401      0.5373
      2  O1B       22.5480   -8.8130   48.6940 O.3   401  GDP401     -0.1143
      3  O2B       24.5150  -10.3270   48.2970 O.3   401  GDP401     -0.1143
      4  O3B       22.5550  -10.4130   46.7800 O.2   401  GDP401     -0.2221
      5  O3A       24.1500   -8.3710   46.7370 O.3   401  GDP401     -0.2261
      6  PA        24.2560   -8.3800   45.1290 P.3   401  GDP401      0.2231
      7  O1A       24.0180   -9.7220   44.4900 O.2   401  GDP401     -0.5169
      8  O2A       25.6060   -7.8510   44.7200 O.3   401  GDP401     -0.4370
      9  O5'       23.1490   -7.3220   44.6010 O.3   401  GDP401     -0.3111
     10  C5'       21.9780   -6.9440   45.3110 C.3   401  GDP401      0.1813
     11  C4'       20.9260   -6.3200   44.3840 C.3   401  GDP401      0.1799
     12  O4'       21.4570   -5.6600   43.2180 O.3   401  GDP401     -0.3326
     13  C3'       19.9510   -7.3450   43.8680 C.3   401  GDP401      0.2158
     14  O3'       18.6450   -6.7500   44.1250 O.3   401  GDP401     -0.2175
     15  C2'       20.1650   -7.2960   42.3850 C.3   401  GDP401      0.2310
     16  O2'       18.8990   -7.5120   41.8100 O.3   401  GDP401     -0.2158
     17  C1'       20.6070   -5.8850   42.1000 C.3   401  GDP401      0.2293
     18  N9        21.4980   -5.7650   40.9250 N.pl3 401  GDP401     -0.2354
     19  C8        21.5480   -4.7310   40.0690 C.3   401  GDP401      0.2246
     20  N7        22.5110   -4.9070   39.1410 N.2   401  GDP401     -0.2322
     21  C5        23.0910   -6.0890   39.4040 C.2   401  GDP401      0.2182
     22  C6        24.1660   -6.8940   38.7960 C.1   401  GDP401      0.2372
     23  O6        24.7370   -6.4370   37.8160 O.2   401  GDP401     -0.2069
     24  N1        24.5340   -8.0570   39.3640 N.2   401  GDP401     -0.2485
     25  C2        23.9080   -8.5430   40.4570 C.1   401  GDP401      0.2531
     26  N2        24.3280   -9.7510   40.9620 N.pl3 401  GDP401     -0.0226
     27  N3        22.8910   -7.8470   41.0660 N.2   401  GDP401     -0.3074
     28  C4        22.4570   -6.6510   40.5870 C.2   401  GDP401      0.2300
@<TRIPOS>BOND
     1    23    22    2
     2    22    24    2
     3    22    21    1
     4    20    21    2
     5    20    19    1
     6    24    25    2
     7    21    28    1
     8    19    18    1
     9    25    26    1
    10    25    27    2
    11    28    18    1
    12    28    27    2
    13    18    17    1
    14    16    15    1
    15    17    15    1
    16    17    12    1
    17    15    13    1
    18    12    11    1
    19    13    14    1
    20    13    11    1
    21    11    10    1
    22     7     6    2
    23     9     6    1
    24     9    10    1
    25     8     6    1
    26     6     5    1
    27     5     1    1
    28     4     1    2
    29     1     3    1
    30     1     2    1
