@<TRIPOS>MOLECULE
2hen_ADP_A_1.pdb
 27 29 0 0 0
SMALL
GASTEIGER

@<TRIPOS>ATOM
      1  PB        41.4740   16.9040   35.7070 P.3   400  ADP400      0.5373
      2  O1B       40.9450   18.1080   36.4000 O.3   400  ADP400     -0.1143
      3  O2B       40.9860   16.7490   34.2970 O.2   400  ADP400     -0.2221
      4  O3B       43.0560   16.8290   35.8150 O.3   400  ADP400     -0.1143
      5  PA        41.5190   14.5320   37.3260 P.3   400  ADP400      0.2231
      6  O1A       42.7030   14.0470   36.5310 O.2   400  ADP400     -0.5169
      7  O2A       41.7940   14.9640   38.7330 O.3   400  ADP400     -0.4370
      8  O3A       40.8400   15.6810   36.5200 O.3   400  ADP400     -0.2261
      9  O5'       40.5020   13.3460   37.2070 O.3   400  ADP400     -0.3111
     10  C5'       39.2130   13.4110   37.8650 C.3   400  ADP400      0.1813
     11  C4'       39.0490   12.3100   38.9070 C.3   400  ADP400      0.1821
     12  O4'       39.2290   11.0260   38.2520 O.3   400  ADP400     -0.3135
     13  C3'       40.0750   12.3010   40.0580 C.3   400  ADP400      0.2184
     14  O3'       39.5770   13.1660   41.1050 O.3   400  ADP400     -0.2174
     15  C2'       40.1680   10.8110   40.4020 C.3   400  ADP400      0.2570
     16  O2'       39.2210   10.3930   41.4030 O.3   400  ADP400     -0.2130
     17  C1'       39.8870   10.0750   39.0720 C.3   400  ADP400      0.3186
     18  N9        41.1690    9.6460   38.4070 N.pl3 400  ADP400     -0.1439
     19  C8        41.9440   10.3750   37.5660 C.3   400  ADP400      0.3377
     20  N7        43.0350    9.7260   37.1460 N.2   400  ADP400     -0.2095
     21  C5        42.9390    8.5250   37.7490 C.2   400  ADP400      0.2526
     22  C6        43.8120    7.3860   37.7070 C.2   400  ADP400      0.4393
     23  N6        44.8950    7.3080   37.0330 N.pl3 400  ADP400      0.2180
     24  N1        43.3820    6.3080   38.4720 N.2   400  ADP400      0.0021
     25  C2        42.2130    6.3240   39.2330 C.3   400  ADP400      0.5254
     26  N3        41.3930    7.3830   39.2850 N.2   400  ADP400     -0.0055
     27  C4        41.7950    8.4500   38.5460 C.2   400  ADP400      0.3518
@<TRIPOS>BOND
     1     3     1    2
     2     1     4    1
     3     1     2    1
     4     1     8    1
     5     8     5    1
     6     6     5    2
     7    23    22    1
     8    20    19    1
     9    20    21    2
    10     9     5    1
    11     9    10    1
    12     5     7    1
    13    19    18    1
    14    22    21    1
    15    22    24    2
    16    21    27    1
    17    10    11    1
    18    12    11    1
    19    12    17    1
    20    18    27    1
    21    18    17    1
    22    24    25    1
    23    27    26    2
    24    11    13    1
    25    17    15    1
    26    25    26    1
    27    13    15    1
    28    13    14    1
    29    15    16    1
