@<TRIPOS>MOLECULE
2hf3_ADP_A_1.pdb
 27 29 0 0 0
SMALL
GASTEIGER

@<TRIPOS>ATOM
      1  PB        69.6590    2.4340   31.4590 P.3   800  ADP800      0.5373
      2  O1B       68.8920    1.2820   30.9170 O.2   800  ADP800     -0.2221
      3  O2B       69.1560    3.8130   31.2180 O.3   800  ADP800     -0.1143
      4  O3B       69.7840    2.2260   32.9660 O.3   800  ADP800     -0.1143
      5  PA        71.7010    1.9880   29.4630 P.3   800  ADP800      0.2231
      6  O1A       71.9510    0.5260   29.4170 O.3   800  ADP800     -0.4370
      7  O2A       70.8150    2.6100   28.4460 O.2   800  ADP800     -0.5169
      8  O3A       71.1390    2.3530   30.8970 O.3   800  ADP800     -0.2261
      9  O5'       73.1150    2.7140   29.3650 O.3   800  ADP800     -0.3111
     10  C5'       73.2340    4.1050   29.6530 C.3   800  ADP800      0.1813
     11  C4'       74.5990    4.4050   30.2260 C.3   800  ADP800      0.1821
     12  O4'       75.6260    3.8660   29.3450 O.3   800  ADP800     -0.3135
     13  C3'       74.9140    5.8890   30.3970 C.3   800  ADP800      0.2184
     14  O3'       75.5870    6.1140   31.6350 O.3   800  ADP800     -0.2174
     15  C2'       75.8320    6.1820   29.2120 C.3   800  ADP800      0.2570
     16  O2'       76.7360    7.2410   29.4630 O.3   800  ADP800     -0.2130
     17  C1'       76.5900    4.8630   29.0960 C.3   800  ADP800      0.3186
     18  N9        77.1740    4.6150   27.7800 N.pl3 800  ADP800     -0.1439
     19  C8        76.5550    4.6460   26.5550 C.3   800  ADP800      0.3377
     20  N7        77.3550    4.3670   25.5530 N.2   800  ADP800     -0.2095
     21  C5        78.5820    4.1410   26.1580 C.2   800  ADP800      0.2526
     22  C6        79.8460    3.8040   25.6410 C.2   800  ADP800      0.4393
     23  N6        80.0890    3.6120   24.3400 N.pl3 800  ADP800      0.2180
     24  N1        80.8650    3.6620   26.5170 N.2   800  ADP800      0.0021
     25  C2        80.6190    3.8390   27.8200 C.3   800  ADP800      0.5254
     26  N3        79.4760    4.1520   28.4280 N.2   800  ADP800     -0.0055
     27  C4        78.4860    4.2920   27.5300 C.2   800  ADP800      0.3518
@<TRIPOS>BOND
     1    23    22    1
     2    20    21    2
     3    20    19    1
     4    22    21    1
     5    22    24    2
     6    21    27    1
     7    24    25    1
     8    19    18    1
     9    27    18    1
    10    27    26    2
    11    18    17    1
    12    25    26    1
    13     7     5    2
    14    17    15    1
    15    17    12    1
    16    15    16    1
    17    15    13    1
    18    12    11    1
    19     9     5    1
    20     9    10    1
    21     6     5    1
    22     5     8    1
    23    10    11    1
    24    11    13    1
    25    13    14    1
    26     8     1    1
    27     2     1    2
    28     3     1    1
    29     1     4    1
