@<TRIPOS>MOLECULE
2hf4_ATP_A_1.pdb
 31 33 0 0 0
SMALL
GASTEIGER

@<TRIPOS>ATOM
      1  PG        69.7360    1.2780   34.1070 P.3   800  ATP800      0.5373
      2  O1G       70.7990    1.5090   35.1230 O.3   800  ATP800     -0.1143
      3  O2G       69.7530    0.0200   33.3170 O.2   800  ATP800     -0.2221
      4  O3G       68.4070    1.3520   34.8330 O.3   800  ATP800     -0.1143
      5  PB        69.5680    2.5540   31.5240 P.3   800  ATP800      0.2277
      6  O1B       68.7240    1.4010   31.1220 O.2   800  ATP800     -0.5168
      7  O2B       69.1430    3.9330   31.1820 O.3   800  ATP800     -0.4368
      8  O3B       69.7760    2.5030   33.0950 O.3   800  ATP800     -0.2258
      9  PA        71.5700    2.0020   29.4920 P.3   800  ATP800      0.2189
     10  O1A       71.8560    0.5440   29.4290 O.3   800  ATP800     -0.4371
     11  O2A       70.6400    2.6060   28.5020 O.2   800  ATP800     -0.5170
     12  O3A       71.0390    2.3310   30.9560 O.3   800  ATP800     -0.2700
     13  O5'       72.9680    2.7510   29.3580 O.3   800  ATP800     -0.3112
     14  C5'       73.1030    4.1240   29.7150 C.3   800  ATP800      0.1813
     15  C4'       74.4920    4.3900   30.2420 C.3   800  ATP800      0.1821
     16  O4'       75.4710    3.8270   29.3230 O.3   800  ATP800     -0.3135
     17  C3'       74.8610    5.8640   30.4070 C.3   800  ATP800      0.2184
     18  O3'       75.5550    6.0610   31.6370 O.3   800  ATP800     -0.2174
     19  C2'       75.7810    6.1220   29.2140 C.3   800  ATP800      0.2570
     20  O2'       76.7230    7.1550   29.4350 O.3   800  ATP800     -0.2130
     21  C1'       76.4880    4.7770   29.0970 C.3   800  ATP800      0.3186
     22  N9        77.0640    4.5330   27.7770 N.pl3 800  ATP800     -0.1439
     23  C8        76.4400    4.5520   26.5510 C.3   800  ATP800      0.3377
     24  N7        77.2460    4.2980   25.5470 N.2   800  ATP800     -0.2095
     25  C5        78.4790    4.0960   26.1520 C.2   800  ATP800      0.2526
     26  C6        79.7500    3.7930   25.6350 C.2   800  ATP800      0.4393
     27  N6        80.0010    3.6280   24.3320 N.pl3 800  ATP800      0.2180
     28  N1        80.7700    3.6620   26.5130 N.2   800  ATP800      0.0021
     29  C2        80.5200    3.8270   27.8160 C.3   800  ATP800      0.5254
     30  N3        79.3710    4.1140   28.4230 N.2   800  ATP800     -0.0055
     31  C4        78.3800    4.2370   27.5240 C.2   800  ATP800      0.3518
@<TRIPOS>BOND
     1    27    26    1
     2    24    25    2
     3    24    23    1
     4    26    25    1
     5    26    28    2
     6    25    31    1
     7    28    29    1
     8    23    22    1
     9    31    22    1
    10    31    30    2
    11    22    21    1
    12    29    30    1
    13    11     9    2
    14    21    19    1
    15    21    16    1
    16    19    20    1
    17    19    17    1
    18    16    15    1
    19    13     9    1
    20    13    14    1
    21    10     9    1
    22     9    12    1
    23    14    15    1
    24    15    17    1
    25    17    18    1
    26    12     5    1
    27     6     5    2
    28     7     5    1
    29     5     8    1
    30     8     1    1
    31     3     1    2
    32     1     4    1
    33     1     2    1
