@<TRIPOS>MOLECULE
2hf8_GSP_A_1.pdb
 32 34 0 0 0
SMALL
GASTEIGER

@<TRIPOS>ATOM
      1  PG        -7.3620   17.4420  -24.4690 P.3   300  GSP300      0.4340
      2  O3B       -6.5810   17.3940  -25.8740 O.3   300  GSP300     -0.2405
      3  S1G       -6.2640   17.6690  -23.1780 S.3   300  GSP300      0.0416
      4  O2G       -8.3170   18.6550  -24.5170 O.2   300  GSP300     -0.2423
      5  O3G       -8.1380   16.1350  -24.2400 O.3   300  GSP300     -0.1305
      6  PB        -5.9680   16.0760  -26.5760 P.3   300  GSP300      0.2262
      7  O1B       -4.6350   15.7700  -26.0220 O.3   300  GSP300     -0.4369
      8  O2B       -6.8800   14.9110  -26.5080 O.2   300  GSP300     -0.5168
      9  PA        -6.7110   16.3800  -29.3240 P.3   300  GSP300      0.2189
     10  O1A       -6.7330   14.9740  -29.7920 O.2   300  GSP300     -0.5170
     11  O2A       -8.0640   16.8820  -28.9800 O.3   300  GSP300     -0.4371
     12  O3A       -5.7170   16.5840  -28.0770 O.3   300  GSP300     -0.2701
     13  O5'       -5.9680   17.2770  -30.4220 O.3   300  GSP300     -0.3112
     14  C5'       -5.7700   18.6640  -30.2230 C.3   300  GSP300      0.1813
     15  C4'       -5.6540   19.3590  -31.5760 C.3   300  GSP300      0.1799
     16  O4'       -4.4380   19.0100  -32.2080 O.3   300  GSP300     -0.3326
     17  C3'       -6.7480   18.9710  -32.5610 C.3   300  GSP300      0.2158
     18  O3'       -7.0430   20.1570  -33.2650 O.3   300  GSP300     -0.2175
     19  C2'       -6.0920   17.9600  -33.4800 C.3   300  GSP300      0.2310
     20  O2'       -6.6300   17.9660  -34.7760 O.3   300  GSP300     -0.2158
     21  C1'       -4.6710   18.4740  -33.5060 C.3   300  GSP300      0.2293
     22  N9        -3.6100   17.4830  -33.7310 N.pl3 300  GSP300     -0.2354
     23  C8        -3.3420   16.3610  -32.9840 C.3   300  GSP300      0.2246
     24  N7        -2.2410   15.7730  -33.5050 N.2   300  GSP300     -0.2322
     25  C5        -1.8000   16.5120  -34.5520 C.2   300  GSP300      0.2182
     26  C6        -0.7230   16.3750  -35.4240 C.1   300  GSP300      0.2372
     27  O6         0.0420   15.4220  -35.3080 O.2   300  GSP300     -0.2069
     28  N1        -0.5180   17.3160  -36.4160 N.2   300  GSP300     -0.2485
     29  C2        -1.3790   18.3900  -36.5430 C.1   300  GSP300      0.2531
     30  N2        -1.1850   19.2950  -37.4940 N.pl3 300  GSP300     -0.0226
     31  N3        -2.4450   18.5250  -35.6830 N.2   300  GSP300     -0.3074
     32  C4        -2.6490   17.6010  -34.6990 C.2   300  GSP300      0.2300
@<TRIPOS>BOND
     1    30    29    1
     2    29    28    2
     3    29    31    2
     4    28    26    2
     5    31    32    2
     6    26    27    2
     7    26    25    1
     8    20    19    1
     9    32    25    1
    10    32    22    1
    11    25    24    2
    12    22    21    1
    13    22    23    1
    14    21    19    1
    15    21    16    1
    16    24    23    1
    17    19    17    1
    18    18    17    1
    19    17    15    1
    20    16    15    1
    21    15    14    1
    22    13    14    1
    23    13     9    1
    24    10     9    2
    25     9    11    1
    26     9    12    1
    27    12     6    1
    28     6     8    2
    29     6     7    1
    30     6     2    1
    31     2     1    1
    32     4     1    2
    33     1     5    1
    34     1     3    1
