@<TRIPOS>MOLECULE
2hf9_GSP_A_1.pdb
 32 34 0 0 0
SMALL
GASTEIGER

@<TRIPOS>ATOM
      1  PG        -7.5550   17.4000  -24.3760 P.3   300  GSP300      0.4340
      2  O3B       -6.7340   17.3820  -25.7600 O.3   300  GSP300     -0.2405
      3  S1G       -6.4790   17.7160  -23.0670 S.3   300  GSP300      0.0416
      4  O2G       -8.5880   18.5340  -24.5110 O.2   300  GSP300     -0.2423
      5  O3G       -8.2780   16.0540  -24.2020 O.3   300  GSP300     -0.1305
      6  PB        -6.1390   16.0550  -26.4590 P.3   300  GSP300      0.2262
      7  O1B       -4.7810   15.8120  -25.9310 O.3   300  GSP300     -0.4369
      8  O2B       -7.0230   14.8810  -26.3400 O.2   300  GSP300     -0.5168
      9  PA        -6.8660   16.3670  -29.2610 P.3   300  GSP300      0.2189
     10  O1A       -6.8730   14.9650  -29.7420 O.2   300  GSP300     -0.5170
     11  O2A       -8.2400   16.8710  -29.0070 O.3   300  GSP300     -0.4371
     12  O3A       -5.9150   16.5600  -27.9760 O.3   300  GSP300     -0.2701
     13  O5'       -6.0710   17.2590  -30.3280 O.3   300  GSP300     -0.3112
     14  C5'       -5.8650   18.6420  -30.1160 C.3   300  GSP300      0.1813
     15  C4'       -5.7490   19.3590  -31.4570 C.3   300  GSP300      0.1799
     16  O4'       -4.5270   19.0300  -32.0960 O.3   300  GSP300     -0.3326
     17  C3'       -6.8540   18.9930  -32.4340 C.3   300  GSP300      0.2158
     18  O3'       -7.1910   20.1870  -33.1030 O.3   300  GSP300     -0.2175
     19  C2'       -6.1990   18.0210  -33.3910 C.3   300  GSP300      0.2310
     20  O2'       -6.7450   18.0940  -34.6810 O.3   300  GSP300     -0.2158
     21  C1'       -4.7630   18.5070  -33.3940 C.3   300  GSP300      0.2293
     22  N9        -3.7210   17.4940  -33.6260 N.pl3 300  GSP300     -0.2354
     23  C8        -3.4740   16.3460  -32.9140 C.3   300  GSP300      0.2246
     24  N7        -2.3830   15.7520  -33.4470 N.2   300  GSP300     -0.2322
     25  C5        -1.9250   16.5100  -34.4700 C.2   300  GSP300      0.2182
     26  C6        -0.8480   16.3730  -35.3450 C.1   300  GSP300      0.2372
     27  O6        -0.0960   15.4040  -35.2590 O.2   300  GSP300     -0.2069
     28  N1        -0.6290   17.3440  -36.3060 N.2   300  GSP300     -0.2485
     29  C2        -1.4760   18.4360  -36.4020 C.1   300  GSP300      0.2531
     30  N2        -1.2660   19.3630  -37.3310 N.pl3 300  GSP300     -0.0226
     31  N3        -2.5410   18.5700  -35.5300 N.2   300  GSP300     -0.3074
     32  C4        -2.7540   17.6180  -34.5810 C.2   300  GSP300      0.2300
@<TRIPOS>BOND
     1    30    29    1
     2    29    28    2
     3    29    31    2
     4    28    26    2
     5    31    32    2
     6    26    27    2
     7    26    25    1
     8    20    19    1
     9    32    25    1
    10    32    22    1
    11    25    24    2
    12    22    21    1
    13    22    23    1
    14    24    23    1
    15    21    19    1
    16    21    16    1
    17    19    17    1
    18    18    17    1
    19    17    15    1
    20    16    15    1
    21    15    14    1
    22    13    14    1
    23    13     9    1
    24    10     9    2
    25     9    11    1
    26     9    12    1
    27    12     6    1
    28     6     8    2
    29     6     7    1
    30     6     2    1
    31     2     1    1
    32     4     1    2
    33     1     5    1
    34     1     3    1
