@<TRIPOS>MOLECULE
2hfj_YML_A_1.pdb
 17 16 0 0 0
SMALL
GASTEIGER

@<TRIPOS>ATOM
      1  C8        42.5010   48.9560   15.3780 C.3   448  YML448      0.0331
      2  C4        43.6020   52.3420   12.7910 C.3   448  YML448      0.0885
      3  C3        44.1790   51.5210   11.6010 C.2   448  YML448      0.1619
      4  C7        42.7060   50.4770   15.1780 C.3   448  YML448      0.0051
      5  C6        44.1780   50.8350   14.8740 C.3   448  YML448      0.0310
      6  C2        43.5420   50.1870   11.1760 C.3   448  YML448      0.1478
      7  C5        44.3420   52.1900   14.1540 C.3   448  YML448      0.1588
      8  C9        42.7410   48.1560   14.0900 C.3   448  YML448      0.1820
      9  P1        44.7530   48.8480   10.7340 P.3   448  YML448      0.2627
     10  O1P       45.3360   48.2470   12.1210 O.3   448  YML448     -0.1740
     11  O2P       44.1590   47.8060    9.8760 O.3   448  YML448     -0.1740
     12  OC3       45.1200   51.9670   10.9440 O.2   448  YML448     -0.2954
     13  CAC       43.6310   53.8250   12.3800 C.3   448  YML448      0.0104
     14  OC5       43.9260   53.2270   15.0880 O.3   448  YML448     -0.2227
     15  CAB       45.0190   50.8460   16.1600 C.3   448  YML448      0.0026
     16  CAA       41.0900   48.6830   15.8810 C.3   448  YML448      0.0027
     17  OC9       43.5520   47.0060   14.3810 O.3   448  YML448     -0.2204
@<TRIPOS>BOND
     1    11     9    1
     2     9     6    1
     3     9    10    1
     4    12     3    2
     5     6     3    1
     6     3     2    1
     7    13     2    1
     8     2     7    1
     9     8    17    1
    10     8     1    1
    11     7     5    1
    12     7    14    1
    13     5     4    1
    14     5    15    1
    15     4     1    1
    16     1    16    1
