@<TRIPOS>MOLECULE
2hfk_E4H_A_1.pdb
 21 21 0 0 0
SMALL
GASTEIGER

@<TRIPOS>ATOM
      1  CAD       44.5800   50.9950   16.4070 C.3   801  E4H801      0.0026
      2  CAR       43.7020   51.6830   15.3480 C.3   801  E4H801      0.0314
      3  CAL       44.2870   53.0510   14.9430 C.3   801  E4H801      0.0102
      4  CAQ       44.1400   54.0970   16.0800 C.3   801  E4H801      0.0620
      5  CAC       44.8950   55.3870   15.7250 C.3   801  E4H801      0.0081
      6  CAN       42.6600   54.4120   16.3950 C.2   801  E4H801      0.1724
      7  OAF       42.2960   54.5970   17.5520 O.2   801  E4H801     -0.2914
      8  CAI       41.7210   54.4940   15.3700 C.2   801  E4H801      0.0330
      9  CAJ       40.3690   54.7730   15.5760 C.2   801  E4H801     -0.0199
     10  CAP       39.3930   54.8030   14.3840 C.3   801  E4H801      0.0622
     11  CAB       39.8370   55.7770   13.2710 C.3   801  E4H801      0.0084
     12  CAU       39.2330   53.3300   13.8880 C.3   801  E4H801      0.1727
     13  CAK       38.0830   53.0020   12.8840 C.3   801  E4H801      0.0440
     14  CAA       36.7480   53.6240   13.3110 C.3   801  E4H801      0.0038
     15  OAM       40.5070   52.8590   13.3060 O.3   801  E4H801     -0.4519
     16  CAO       41.0670   51.7150   13.8060 C.2   801  E4H801      0.3188
     17  OAG       40.5650   51.1270   14.7620 O.2   801  E4H801     -0.2500
     18  CAS       42.3540   51.1920   13.1340 C.3   801  E4H801      0.1293
     19  CAE       41.9680   50.0580   12.1790 C.3   801  E4H801      0.0143
     20  CAT       43.4580   50.7430   14.1350 C.3   801  E4H801      0.1624
     21  OAH       44.6900   50.5710   13.4180 O.3   801  E4H801     -0.2226
@<TRIPOS>BOND
     1    19    18    1
     2    13    14    1
     3    13    12    1
     4    18    16    1
     5    18    20    1
     6    11    10    1
     7    15    16    1
     8    15    12    1
     9    21    20    1
    10    16    17    2
    11    12    10    1
    12    20     2    1
    13    10     9    1
    14     3     2    1
    15     3     4    1
    16     2     1    1
    17     8     9    2
    18     8     6    1
    19     5     4    1
    20     4     6    1
    21     6     7    2
