@<TRIPOS>MOLECULE
2hfn_FMN_A_1.pdb
 31 33 0 0 0
SMALL
GASTEIGER

@<TRIPOS>ATOM
      1  N1       -86.0050   30.8450   58.1020 N.2   201  FMN201     -0.2887
      2  C2       -85.8530   30.9410   59.4540 C.1   201  FMN201      0.3669
      3  O2       -86.8450   31.1000   60.1550 O.2   201  FMN201     -0.1744
      4  N3       -84.5820   30.8190   60.0290 N.2   201  FMN201     -0.2300
      5  C4       -83.4560   30.6010   59.2520 C.1   201  FMN201      0.2513
      6  O4       -82.3280   30.5840   59.7980 O.2   201  FMN201     -0.2057
      7  C4A      -83.6150   30.5200   57.8640 C.2   201  FMN201      0.2703
      8  N5       -82.5310   30.3400   57.0180 N.2   201  FMN201     -0.3882
      9  C5A      -82.7190   30.2260   55.6360 C.2   201  FMN201      0.1277
     10  C6       -81.6230   29.9800   54.8070 C.3   201  FMN201      0.0820
     11  C7       -81.8060   29.8930   53.4200 C.2   201  FMN201     -0.0408
     12  C7M      -80.6500   29.4180   52.5800 C.3   201  FMN201      0.0265
     13  C8       -83.0970   30.0350   52.8630 C.2   201  FMN201     -0.0280
     14  C8M      -83.3540   29.7470   51.3990 C.3   201  FMN201      0.0304
     15  C9       -84.1950   30.2520   53.6950 C.2   201  FMN201      0.0123
     16  C9A      -84.0110   30.3550   55.0810 C.2   201  FMN201      0.0793
     17  N10      -85.0900   30.5860   55.9270 N.pl3 201  FMN201     -0.2545
     18  C10      -84.8990   30.6500   57.2970 C.2   201  FMN201      0.2449
     19  C1'      -86.3880   31.1490   55.3830 C.3   201  FMN201      0.1336
     20  C2'      -87.5080   30.1020   55.3740 C.3   201  FMN201      0.2048
     21  O2'      -87.2650   29.1360   54.3780 O.3   201  FMN201     -0.2185
     22  C3'      -88.9060   30.7210   55.1330 C.3   201  FMN201      0.2165
     23  O3'      -88.8430   31.5330   53.9840 O.3   201  FMN201     -0.2175
     24  C4'      -89.3450   31.5910   56.3020 C.3   201  FMN201      0.2147
     25  O4'      -89.2120   30.8870   57.5110 O.3   201  FMN201     -0.2176
     26  C5'      -90.8020   32.0570   56.2030 C.3   201  FMN201      0.1892
     27  O5'      -91.0080   32.9710   57.2560 O.3   201  FMN201     -0.2674
     28  P        -91.8910   34.2820   57.0060 P.3   201  FMN201      0.5327
     29  O1P      -93.1110   33.7850   56.2840 O.3   201  FMN201     -0.1145
     30  O2P      -91.1790   35.2820   56.1480 O.2   201  FMN201     -0.2224
     31  O3P      -92.1690   34.9210   58.3420 O.3   201  FMN201     -0.1145
@<TRIPOS>BOND
     1    14    13    1
     2    12    11    1
     3    13    11    2
     4    13    15    1
     5    11    10    1
     6    15    16    2
     7    23    22    1
     8    21    20    1
     9    10     9    1
    10    16     9    1
    11    16    17    1
    12    22    20    1
    13    22    24    1
    14    20    19    1
    15    19    17    1
    16     9     8    2
    17    17    18    1
    18    30    28    2
    19    26    24    1
    20    26    27    1
    21    29    28    1
    22    24    25    1
    23    28    27    1
    24    28    31    1
    25     8     7    2
    26    18     7    1
    27    18     1    2
    28     7     5    1
    29     1     2    2
    30     5     6    2
    31     5     4    2
    32     2     4    2
    33     2     3    2
