@<TRIPOS>MOLECULE
2hfo_FMN_A_1.pdb
 31 33 0 0 0
SMALL
GASTEIGER

@<TRIPOS>ATOM
      1  N1         5.4130   19.5910   19.3400 N.2   154  FMN154     -0.2887
      2  C2         5.3790   20.1870   20.5760 C.1   154  FMN154      0.3669
      3  O2         5.2140   19.4690   21.5420 O.2   154  FMN154     -0.1744
      4  N3         5.5560   21.5510   20.7290 N.2   154  FMN154     -0.2300
      5  C4         5.7430   22.3290   19.6060 C.1   154  FMN154      0.2513
      6  O4         5.8490   23.5490   19.7300 O.2   154  FMN154     -0.2057
      7  C4A        5.7560   21.7330   18.3330 C.2   154  FMN154      0.2706
      8  N5         5.9120   22.4850   17.1800 N.2   154  FMN154     -0.3841
      9  C5A        5.9440   21.8540   15.9340 C.2   154  FMN154      0.1452
     10  C6         6.1710   22.5930   14.7810 C.2   154  FMN154      0.0252
     11  C7         6.2120   21.9820   13.5370 C.2   154  FMN154     -0.0375
     12  C7M        6.6800   22.8080   12.3650 C.3   154  FMN154      0.0268
     13  C8         6.0340   20.6000   13.4320 C.3   154  FMN154      0.0417
     14  C8M        6.3220   19.8890   12.1410 C.3   154  FMN154      0.0091
     15  C9         5.8580   19.8540   14.5890 C.2   154  FMN154     -0.0049
     16  C9A        5.7880   20.4770   15.8320 C.2   154  FMN154      0.0795
     17  N10        5.5820   19.7440   16.9790 N.pl3 154  FMN154     -0.2545
     18  C10        5.5680   20.3670   18.2150 C.2   154  FMN154      0.2449
     19  C1'        5.0550   18.3260   16.8930 C.3   154  FMN154      0.1336
     20  C2'        6.1380   17.3460   17.3340 C.3   154  FMN154      0.2048
     21  O2'        7.0760   17.1850   16.2840 O.3   154  FMN154     -0.2185
     22  C3'        5.5600   15.9640   17.6830 C.3   154  FMN154      0.2165
     23  O3'        4.6470   15.5980   16.6610 O.3   154  FMN154     -0.2175
     24  C4'        4.7790   15.9550   19.0010 C.3   154  FMN154      0.2147
     25  O4'        5.3750   16.7140   20.0300 O.3   154  FMN154     -0.2176
     26  C5'        4.5660   14.5490   19.5590 C.3   154  FMN154      0.1892
     27  O5'        3.4930   14.6170   20.4740 O.3   154  FMN154     -0.2674
     28  P          2.4210   13.4280   20.5980 P.3   154  FMN154      0.5327
     29  O1P        2.5720   12.4470   19.4730 O.2   154  FMN154     -0.2224
     30  O2P        1.0310   14.0100   20.6030 O.3   154  FMN154     -0.1145
     31  O3P        2.6950   12.7080   21.8990 O.3   154  FMN154     -0.1145
@<TRIPOS>BOND
     1    14    13    1
     2    12    11    1
     3    13    11    1
     4    13    15    1
     5    11    10    2
     6    15    16    2
     7    10     9    1
     8    16     9    1
     9    16    17    1
    10     9     8    2
    11    21    20    1
    12    23    22    1
    13    19    17    1
    14    19    20    1
    15    17    18    1
    16     8     7    2
    17    20    22    1
    18    22    24    1
    19    18     7    1
    20    18     1    2
    21     7     5    1
    22    24    26    1
    23    24    25    1
    24     1     2    2
    25    29    28    2
    26    26    27    1
    27     5     6    2
    28     5     4    2
    29    27    28    1
    30     2     4    2
    31     2     3    2
    32    28    30    1
    33    28    31    1
