@<TRIPOS>MOLECULE
2hfp_NSI_A_1.pdb
 40 44 0 0 0
SMALL
GASTEIGER

@<TRIPOS>ATOM
      1  O52       18.6300  -12.1930    2.2430 O.2   478  NSI478     -0.1482
      2  S48       19.8850  -12.8410    2.3100 S.O2  478  NSI478      0.0957
      3  O50       19.6860  -14.1030    2.9310 O.2   478  NSI478     -0.1482
      4  C51       20.3800  -12.9830    0.7680 C.ar  478  NSI478      0.1271
      5  C55       20.0170  -12.0190   -0.1920 C.ar  478  NSI478      0.0203
      6  C56       20.4520  -12.1560   -1.5110 C.ar  478  NSI478      0.0014
      7  C53       21.2590  -13.2390   -1.9100 C.ar  478  NSI478      0.0001
      8  C57       21.6340  -14.1850   -0.9550 C.ar  478  NSI478      0.0014
      9  C54       21.1880  -14.0430    0.3650 C.ar  478  NSI478      0.0203
     10  N17       21.0210  -12.0120    2.9340 N.am  478  NSI478     -0.0536
     11  C15       21.2540  -11.9070    4.2260 C.2   478  NSI478      0.3015
     12  O16       20.3150  -11.8370    5.0300 O.2   478  NSI478     -0.2651
     13  C13       22.5620  -11.3060    4.6190 C.ar  478  NSI478      0.1175
     14  N10       22.7430  -10.3940    5.6120 N.ar  478  NSI478     -0.3193
     15  C12       21.6530   -9.7380    6.3450 C.3   478  NSI478      0.1328
     16  C34       21.4350   -8.3340    5.8210 C.ar  478  NSI478      0.0003
     17  C37       22.1530   -7.8060    4.7660 C.ar  478  NSI478     -0.0024
     18  C38       21.9180   -6.4880    4.3520 C.ar  478  NSI478     -0.0003
     19  C36       20.4830   -7.5450    6.4930 C.ar  478  NSI478      0.0015
     20  C39       20.2240   -6.2510    6.0640 C.ar  478  NSI478      0.0712
     21  C43       19.2010   -5.4210    6.7960 C.3   478  NSI478      0.4186
     22  F47       18.1640   -6.0570    7.2290 F     478  NSI478     -0.1659
     23  F46       19.7160   -4.9140    7.8500 F     478  NSI478     -0.1659
     24  F45       18.8200   -4.4300    6.0920 F     478  NSI478     -0.1659
     25  C35       20.9260   -5.7280    4.9950 C.ar  478  NSI478      0.0038
     26  C6        24.0480  -10.1710    5.7600 C.ar  478  NSI478      0.0603
     27  C2        24.7620   -9.3550    6.6540 C.ar  478  NSI478      0.0172
     28  C5        26.1510   -9.3320    6.6300 C.ar  478  NSI478      0.0015
     29  C4        26.8200  -10.1560    5.7320 C.ar  478  NSI478      0.0001
     30  C1        26.1190  -10.9990    4.8420 C.ar  478  NSI478      0.0015
     31  C7        23.7910  -11.7290    4.1010 C.ar  478  NSI478      0.0218
     32  C3        24.7210  -10.9780    4.8370 C.ar  478  NSI478      0.0173
     33  C14       24.0360  -12.7150    3.0990 C.ar  478  NSI478      0.0018
     34  C20       24.6700  -12.3090    1.9430 C.ar  478  NSI478      0.0032
     35  C21       25.0560  -13.2180    0.9460 C.ar  478  NSI478      0.0369
     36  C19       23.7830  -14.1030    3.2470 C.ar  478  NSI478      0.0032
     37  C22       24.1610  -15.0320    2.2410 C.ar  478  NSI478      0.0369
     38  C18       24.8180  -14.5680    1.0780 C.ar  478  NSI478      0.1387
     39  O27       25.2390  -15.3930    0.0480 O.3   478  NSI478     -0.4714
     40  C28       25.0830  -16.7950    0.2370 C.3   478  NSI478      0.2525
@<TRIPOS>BOND
     1     7     6   ar
     2     7     8   ar
     3     6     5   ar
     4     8     9   ar
     5     5     4   ar
     6    39    40    1
     7    39    38    1
     8     9     4   ar
     9     4     2    1
    10    35    38   ar
    11    35    34   ar
    12    38    37   ar
    13    34    33   ar
    14    37    36   ar
    15     1     2    2
    16     2     3    2
    17     2    10    1
    18    10    11   am
    19    33    36   ar
    20    33    31    1
    21    31    13   ar
    22    31    32   ar
    23    11    13    1
    24    11    12    2
    25    18    17   ar
    26    18    25   ar
    27    13    14   ar
    28    17    16   ar
    29    32    30   ar
    30    32    26   ar
    31    30    29   ar
    32    25    20   ar
    33    14    26   ar
    34    14    15    1
    35    29    28   ar
    36    26    27   ar
    37    16    15    1
    38    16    19   ar
    39    20    19   ar
    40    20    21    1
    41    24    21    1
    42    28    27   ar
    43    21    22    1
    44    21    23    1
