@<TRIPOS>MOLECULE
2hfu_MEV_A_1.pdb
 10 9 0 0 0
SMALL
GASTEIGER

@<TRIPOS>ATOM
      1  C8        15.6200   -6.9730   13.1800 C.3   400  MEV400      0.1846
      2  O8        15.5530   -6.0680   12.0720 O.3   400  MEV400     -0.2203
      3  C2        14.2960   -6.9500   13.9430 C.3   400  MEV400      0.0665
      4  C3        14.0770   -8.1390   14.8890 C.3   400  MEV400      0.1400
      5  O7        12.8880   -7.8900   15.6450 O.3   400  MEV400     -0.2250
      6  C4        13.9290   -9.4760   14.1480 C.3   400  MEV400      0.1444
      7  C5        12.6270   -9.6450   13.3850 C.2   400  MEV400      0.3674
      8  O3        12.5450  -10.5960   12.5800 O.co2 400  MEV400     -0.2456
      9  O4        11.6740   -8.8550   13.5670 O.co2 400  MEV400     -0.2456
     10  C6        15.2230   -8.2430   15.8900 C.3   400  MEV400      0.0336
@<TRIPOS>BOND
     1     2     1    1
     2     8     7   ar
     3     1     3    1
     4     7     9   ar
     5     7     6    1
     6     3     4    1
     7     6     4    1
     8     4     5    1
     9     4    10    1
