@<TRIPOS>MOLECULE
2hg1_N5O_A_1.pdb
 23 25 0 0 0
SMALL
GASTEIGER

@<TRIPOS>ATOM
      1  O53     -118.1080  -37.3560   63.6310 O.3   401  N5O401     -0.2184
      2  C52     -118.4610  -36.2290   62.8240 C.3   401  N5O401      0.2054
      3  C51     -119.4870  -36.6480   61.7690 C.3   401  N5O401      0.1507
      4  N5'     -119.1490  -37.9790   61.2440 N.am  401  N5O401     -0.2005
      5  C5'     -118.7100  -37.9180   59.9890 C.2   401  N5O401      0.2715
      6  O5'     -118.7100  -36.7440   59.3020 O.2   401  N5O401     -0.2706
      7  C4'     -118.2010  -39.1900   59.3070 C.3   401  N5O401      0.2293
      8  O4'     -119.1810  -39.6490   58.3610 O.3   401  N5O401     -0.3067
      9  C3'     -116.9330  -38.8720   58.5130 C.3   401  N5O401      0.2249
     10  O3'     -115.7870  -39.1960   59.3040 O.3   401  N5O401     -0.2170
     11  C2'     -117.0260  -39.8390   57.3340 C.3   401  N5O401      0.2574
     12  O2'     -116.4820  -41.1080   57.7050 O.3   401  N5O401     -0.2130
     13  C1'     -118.5350  -39.9720   57.1180 C.3   401  N5O401      0.3190
     14  N9      -118.9950  -39.0460   56.0560 N.pl3 401  N5O401     -0.1438
     15  C8      -119.5110  -37.8320   56.2400 C.3   401  N5O401      0.3377
     16  N7      -119.8350  -37.2990   55.0640 N.2   401  N5O401     -0.2095
     17  C5      -119.5220  -38.1840   54.1230 C.2   401  N5O401      0.2526
     18  C4      -118.9850  -39.2980   54.7500 C.2   401  N5O401      0.3518
     19  N3      -118.5990  -40.3510   54.0120 N.2   401  N5O401     -0.0055
     20  C2      -118.7160  -40.3710   52.6940 C.3   401  N5O401      0.5254
     21  N1      -119.2160  -39.3560   52.0100 N.2   401  N5O401      0.0021
     22  C6      -119.6340  -38.2410   52.6260 C.2   401  N5O401      0.4393
     23  N6      -120.1110  -37.2090   51.9360 N.pl3 401  N5O401      0.2180
@<TRIPOS>BOND
     1    23    22    1
     2    21    22    2
     3    21    20    1
     4    22    17    1
     5    20    19    1
     6    19    18    2
     7    17    18    1
     8    17    16    2
     9    18    14    1
    10    16    15    1
    11    14    15    1
    12    14    13    1
    13    13    11    1
    14    13     8    1
    15    11    12    1
    16    11     9    1
    17     8     7    1
    18     9    10    1
    19     9     7    1
    20     6     5    2
    21     7     5    1
    22     5     4   am
    23     4     3    1
    24     3     2    1
    25     2     1    1
