@<TRIPOS>MOLECULE
2hg3_U10_L_1.pdb
 48 48 0 0 0
SMALL
GASTEIGER

@<TRIPOS>ATOM
      1  C1        47.0710   67.4180   64.6890 C.2   502  U10502      0.0198
      2  C2        46.7760   66.6120   65.8770 C.2   502  U10502      0.2282
      3  C3        45.5060   66.0320   66.1480 C.2   502  U10502      0.2140
      4  C4        44.5220   66.2190   65.2820 C.2   502  U10502      0.2140
      5  C5        44.7460   67.0550   64.0920 C.2   502  U10502      0.2285
      6  C6        46.0540   67.6380   63.8130 C.2   502  U10502      0.0235
      7  C1M       48.4280   68.0040   64.4520 C.3   502  U10502      0.0343
      8  C3M       45.0570   65.6750   68.6970 C.3   502  U10502      0.2528
      9  C4M       42.3510   66.4170   66.4010 C.3   502  U10502      0.2528
     10  C7        46.2060   68.4910   62.5780 C.3   502  U10502      0.0548
     11  C8        46.6640   67.7730   61.3390 C.2   502  U10502     -0.0298
     12  C9        46.1730   68.1360   60.1300 C.2   502  U10502     -0.0475
     13  C10       45.1760   69.2330   59.9890 C.3   502  U10502      0.0260
     14  C11       46.6500   67.4820   58.8650 C.3   502  U10502      0.0264
     15  C12       48.1200   67.8650   58.7480 C.3   502  U10502      0.0297
     16  C13       48.7630   67.4550   57.4290 C.2   502  U10502     -0.0342
     17  C14       50.1340   67.5130   57.3190 C.2   502  U10502     -0.0478
     18  C15       50.9750   67.9940   58.4790 C.3   502  U10502      0.0260
     19  C16       50.8400   67.1060   56.0300 C.3   502  U10502      0.0263
     20  C17       50.2580   65.9030   55.2700 C.3   502  U10502      0.0297
     21  C18       51.0500   65.7400   53.9970 C.2   502  U10502     -0.0342
     22  C19       51.0090   64.6510   53.1960 C.2   502  U10502     -0.0478
     23  C20       50.1410   63.4560   53.4660 C.3   502  U10502      0.0260
     24  C21       51.8520   64.5980   51.9360 C.3   502  U10502      0.0263
     25  C22       53.2540   65.1870   52.0730 C.3   502  U10502      0.0297
     26  C23       53.9420   64.9230   50.7550 C.2   502  U10502     -0.0342
     27  C24       55.2780   64.7750   50.6630 C.2   502  U10502     -0.0478
     28  C25       56.0150   64.9080   51.9670 C.3   502  U10502      0.0260
     29  C26       55.9340   64.4900   49.2790 C.3   502  U10502      0.0263
     30  C27       56.5730   65.7520   48.6550 C.3   502  U10502      0.0297
     31  C28       57.0440   65.6440   47.1950 C.2   502  U10502     -0.0342
     32  C29       58.1350   66.3040   46.6460 C.2   502  U10502     -0.0478
     33  C30       58.9870   67.2320   47.4520 C.3   502  U10502      0.0260
     34  C31       58.4830   66.1240   45.1480 C.3   502  U10502      0.0263
     35  C32       59.9770   66.0500   44.7430 C.3   502  U10502      0.0297
     36  C33       60.1610   66.1310   43.2300 C.2   502  U10502     -0.0342
     37  C34       60.0850   65.1030   42.3470 C.2   502  U10502     -0.0478
     38  C35       60.2550   65.4050   40.8990 C.3   502  U10502      0.0260
     39  C36       59.7820   63.6670   42.6550 C.3   502  U10502      0.0263
     40  C37       60.6380   62.6610   41.8850 C.3   502  U10502      0.0297
     41  C38       60.1450   62.1640   40.5130 C.2   502  U10502     -0.0342
     42  C39       60.3400   60.8660   40.0860 C.2   502  U10502     -0.0478
     43  C40       61.0140   59.8110   40.9680 C.3   502  U10502      0.0260
     44  C41       59.8560   60.4350   38.7050 C.3   502  U10502      0.0260
     45  O2        47.6080   66.3630   66.7090 O.2   502  U10502     -0.2836
     46  O3        45.2710   65.2110   67.3480 O.2   502  U10502     -0.4652
     47  O4        43.2380   65.6210   65.6330 O.2   502  U10502     -0.4652
     48  O5        43.8410   67.2680   63.2940 O.2   502  U10502     -0.2835
@<TRIPOS>BOND
     1    44    42    1
     2    42    41    2
     3    42    43    1
     4    41    40    1
     5    38    37    1
     6    40    39    1
     7    37    39    1
     8    37    36    2
     9    36    35    1
    10    35    34    1
    11    34    32    1
    12    32    31    2
    13    32    33    1
    14    31    30    1
    15    30    29    1
    16    29    27    1
    17    27    26    2
    18    27    28    1
    19    26    25    1
    20    24    25    1
    21    24    22    1
    22    22    23    1
    23    22    21    2
    24    21    20    1
    25    20    19    1
    26    19    17    1
    27    17    16    2
    28    17    18    1
    29    16    15    1
    30    15    14    1
    31    14    12    1
    32    13    12    1
    33    12    11    2
    34    11    10    1
    35    10     6    1
    36    48     5    2
    37     6     5    1
    38     6     1    2
    39     5     4    1
    40     7     1    1
    41     1     2    1
    42     4    47    1
    43     4     3    2
    44    47     9    1
    45     2     3    1
    46     2    45    2
    47     3    46    1
    48    46     8    1
