@<TRIPOS>MOLECULE
2hg8_PLP_A_1.pdb
 15 15 0 0 0
SMALL
GASTEIGER

@<TRIPOS>ATOM
      1  N1        10.0570    9.8180   14.0860 N.ar  400  PLP400     -0.2452
      2  C2        10.8860    8.7780   13.8170 C.ar  400  PLP400      0.0978
      3  C2A       11.3400    7.9020   14.9790 C.3   400  PLP400      0.0555
      4  C3        11.2830    8.5540   12.4890 C.ar  400  PLP400      0.2049
      5  O3        12.0930    7.5370   12.2210 O.3   400  PLP400     -0.2857
      6  C4        10.8450    9.3910   11.4480 C.ar  400  PLP400      0.0182
      7  C4A       11.3270    9.1140    9.9780 C.3   400  PLP400      0.0342
      8  C5         9.9740   10.4570   11.7900 C.ar  400  PLP400      0.0261
      9  C6         9.6030   10.6470   13.0910 C.ar  400  PLP400      0.0965
     10  C5A        9.3820   11.3980   10.8050 C.3   400  PLP400      0.1815
     11  O4P       10.2800   12.0910   10.0170 O.3   400  PLP400     -0.2653
     12  P          9.8150   12.5970    8.6060 P.3   400  PLP400      0.5329
     13  O1P        9.5670   11.5060    7.7040 O.2   400  PLP400     -0.2224
     14  O2P       11.0820   13.3090    8.1290 O.3   400  PLP400     -0.1145
     15  O3P        8.7830   13.6370    8.8150 O.3   400  PLP400     -0.1145
@<TRIPOS>BOND
     1    13    12    2
     2    14    12    1
     3    12    15    1
     4    12    11    1
     5     7     6    1
     6    11    10    1
     7    10     8    1
     8     6     8   ar
     9     6     4   ar
    10     8     9   ar
    11     5     4    1
    12     4     2   ar
    13     9     1   ar
    14     2     1   ar
    15     2     3    1
