@<TRIPOS>MOLECULE
2hg8_MLE_A_1.pdb
 10 9 0 0 0
SMALL
GASTEIGER

@<TRIPOS>ATOM
      1  N         -0.5660    3.4870    8.9760 N.3   1414  MLE1414    -0.2068
      2  CN        -1.4940    3.7860   10.0100 C.3   1414  MLE1414     0.1080
      3  CA         0.6230    2.6330    9.2290 C.3   1414  MLE1414     0.1758
      4  CB         1.3240    2.5680    7.8560 C.3   1414  MLE1414     0.0289
      5  CG         0.6030    2.1100    6.5750 C.3   1414  MLE1414     0.0020
      6  CD1        1.6370    2.0560    5.4510 C.3   1414  MLE1414     0.0001
      7  CD2       -0.0570    0.7240    6.7770 C.3   1414  MLE1414     0.0001
      8  C          1.5910    3.2270   10.2830 C.2   1414  MLE1414     0.3803
      9  O          2.1900    2.4310   11.0390 O.co2 1414  MLE1414    -0.2441
     10  OXT        1.7380    4.4700   10.3410 O.co2 1414  MLE1414    -0.2441
@<TRIPOS>BOND
     1     6     5    1
     2     5     7    1
     3     5     4    1
     4     4     3    1
     5     1     3    1
     6     1     2    1
     7     3     8    1
     8     8    10   ar
     9     8     9   ar
