@<TRIPOS>MOLECULE
2hg9_U10_L_1.pdb
 48 48 0 0 0
SMALL
GASTEIGER

@<TRIPOS>ATOM
      1  C1        46.8340   67.2720   65.0270 C.2   502  U10502      0.0198
      2  C2        46.5920   66.4320   66.2370 C.2   502  U10502      0.2282
      3  C3        45.2980   65.8360   66.4430 C.2   502  U10502      0.2140
      4  C4        44.3430   66.0080   65.5210 C.2   502  U10502      0.2140
      5  C5        44.5630   66.8330   64.3350 C.2   502  U10502      0.2285
      6  C6        45.8440   67.4650   64.0990 C.2   502  U10502      0.0235
      7  C1M       48.1440   67.9290   64.8200 C.3   502  U10502      0.0343
      8  C3M       45.0280   65.5600   68.9960 C.3   502  U10502      0.2528
      9  C4M       42.2940   66.1840   66.7410 C.3   502  U10502      0.2528
     10  C7        45.9150   68.3110   62.8300 C.3   502  U10502      0.0548
     11  C8        46.4980   67.6360   61.6430 C.2   502  U10502     -0.0298
     12  C9        46.0960   67.8290   60.3860 C.2   502  U10502     -0.0475
     13  C10       44.9760   68.7190   60.0050 C.3   502  U10502      0.0260
     14  C11       46.8270   67.1040   59.2770 C.3   502  U10502      0.0264
     15  C12       48.0850   67.8840   58.9200 C.3   502  U10502      0.0297
     16  C13       48.7760   67.3990   57.6440 C.2   502  U10502     -0.0342
     17  C14       50.1510   67.3500   57.5560 C.2   502  U10502     -0.0478
     18  C15       50.9430   67.7910   58.7280 C.3   502  U10502      0.0260
     19  C16       50.9090   66.9040   56.3160 C.3   502  U10502      0.0263
     20  C17       50.3010   65.7360   55.5170 C.3   502  U10502      0.0297
     21  C18       50.9330   65.7100   54.1560 C.2   502  U10502     -0.0342
     22  C19       51.1420   64.6000   53.4120 C.2   502  U10502     -0.0478
     23  C20       50.7550   63.2030   53.8220 C.3   502  U10502      0.0260
     24  C21       51.8280   64.7860   52.0830 C.3   502  U10502      0.0263
     25  C22       53.2340   65.3840   52.2800 C.3   502  U10502      0.0297
     26  C23       54.0060   65.1240   51.0070 C.2   502  U10502     -0.0342
     27  C24       55.2030   64.5130   51.0000 C.2   502  U10502     -0.0478
     28  C25       55.8120   64.0940   52.3010 C.3   502  U10502      0.0260
     29  C26       55.9300   64.2350   49.6770 C.3   502  U10502      0.0263
     30  C27       56.0510   65.4610   48.7420 C.3   502  U10502      0.0297
     31  C28       57.3410   65.3790   47.9510 C.2   502  U10502     -0.0342
     32  C29       57.9410   66.3860   47.2440 C.2   502  U10502     -0.0478
     33  C30       57.4010   67.7960   47.1240 C.3   502  U10502      0.0260
     34  C31       59.2290   65.9510   46.5680 C.3   502  U10502      0.0263
     35  C32       59.7640   66.8600   45.4540 C.3   502  U10502      0.0297
     36  C33       59.0760   66.6580   44.1130 C.2   502  U10502     -0.0342
     37  C34       59.4390   65.7940   43.1430 C.2   502  U10502     -0.0478
     38  C35       58.5720   65.8120   41.9160 C.3   502  U10502      0.0260
     39  C36       60.6080   64.8430   43.2100 C.3   502  U10502      0.0263
     40  C37       60.2790   63.4240   42.7070 C.3   502  U10502      0.0297
     41  C38       59.9130   63.3120   41.2450 C.2   502  U10502     -0.0342
     42  C39       59.8670   62.1310   40.5780 C.2   502  U10502     -0.0478
     43  C40       60.1870   60.8040   41.2340 C.3   502  U10502      0.0260
     44  C41       59.4820   62.1330   39.1070 C.3   502  U10502      0.0260
     45  O2        47.3960   66.2150   67.1620 O.2   502  U10502     -0.2836
     46  O3        45.0510   65.0290   67.6430 O.2   502  U10502     -0.4652
     47  O4        43.0420   65.4380   65.7680 O.2   502  U10502     -0.4652
     48  O5        43.6630   67.0290   63.5190 O.2   502  U10502     -0.2835
@<TRIPOS>BOND
     1    44    42    1
     2    42    43    1
     3    42    41    2
     4    41    40    1
     5    38    37    1
     6    40    39    1
     7    37    39    1
     8    37    36    2
     9    36    35    1
    10    35    34    1
    11    34    32    1
    12    33    32    1
    13    32    31    2
    14    31    30    1
    15    30    29    1
    16    29    27    1
    17    27    26    2
    18    27    28    1
    19    26    25    1
    20    24    25    1
    21    24    22    1
    22    22    23    1
    23    22    21    2
    24    21    20    1
    25    20    19    1
    26    19    17    1
    27    17    16    2
    28    17    18    1
    29    16    15    1
    30    15    14    1
    31    14    12    1
    32    13    12    1
    33    12    11    2
    34    11    10    1
    35    10     6    1
    36    48     5    2
    37     6     5    1
    38     6     1    2
    39     5     4    1
    40     7     1    1
    41     1     2    1
    42     4    47    1
    43     4     3    2
    44    47     9    1
    45     2     3    1
    46     2    45    2
    47     3    46    1
    48    46     8    1
