@<TRIPOS>MOLECULE
2hgs_ADP_A_1.pdb
 27 29 0 0 0
SMALL
GASTEIGER

@<TRIPOS>ATOM
      1  PB        50.2530    8.8520   26.4150 P.3   500  ADP500      0.5373
      2  O1B       50.7410    8.1880   25.1780 O.2   500  ADP500     -0.2221
      3  O2B       50.1940   10.2850   26.4750 O.3   500  ADP500     -0.1143
      4  O3B       49.0750    8.0440   27.0940 O.3   500  ADP500     -0.1143
      5  PA        52.8330    7.8490   27.2620 P.3   500  ADP500      0.2231
      6  O1A       53.3810    7.3220   28.5600 O.3   500  ADP500     -0.4370
      7  O2A       52.7880    6.7200   26.3500 O.2   500  ADP500     -0.5169
      8  O3A       51.4740    8.5950   27.5020 O.3   500  ADP500     -0.2261
      9  O5'       53.9200    8.9040   26.7220 O.3   500  ADP500     -0.3111
     10  C5'       53.9170    9.4580   25.3830 C.3   500  ADP500      0.1813
     11  C4'       55.2160    9.2330   24.6280 C.3   500  ADP500      0.1821
     12  O4'       56.2920    9.8800   25.3570 O.3   500  ADP500     -0.3135
     13  C3'       55.6530    7.8070   24.4120 C.3   500  ADP500      0.2184
     14  O3'       55.0280    7.1370   23.2780 O.3   500  ADP500     -0.2174
     15  C2'       57.1860    8.0250   24.2920 C.3   500  ADP500      0.2570
     16  O2'       57.5120    8.6520   23.0090 O.3   500  ADP500     -0.2130
     17  C1'       57.4200    9.0940   25.3960 C.3   500  ADP500      0.3186
     18  N9        57.6680    8.4500   26.6880 N.pl3 500  ADP500     -0.1439
     19  C8        56.9740    8.3280   27.8200 C.3   500  ADP500      0.3377
     20  N7        57.6290    7.6130   28.7960 N.2   500  ADP500     -0.2095
     21  C5        58.7720    7.3330   28.2070 C.2   500  ADP500      0.2526
     22  C6        59.7200    6.6040   28.8820 C.2   500  ADP500      0.4393
     23  N6        59.4920    6.1600   30.1090 N.pl3 500  ADP500      0.2180
     24  N1        60.8290    6.4680   28.1220 N.2   500  ADP500      0.0021
     25  C2        60.8120    6.9620   26.8450 C.3   500  ADP500      0.5254
     26  N3        59.9350    7.6510   26.1450 N.2   500  ADP500     -0.0055
     27  C4        58.8610    7.8020   26.9520 C.2   500  ADP500      0.3518
@<TRIPOS>BOND
     1    16    15    1
     2    14    13    1
     3    15    13    1
     4    15    17    1
     5    13    11    1
     6    11    12    1
     7    11    10    1
     8     2     1    2
     9    12    17    1
    10    10     9    1
    11    17    18    1
    12    26    25    1
    13    26    27    2
    14     7     5    2
    15     1     3    1
    16     1     4    1
    17     1     8    1
    18    18    27    1
    19    18    19    1
    20     9     5    1
    21    25    24    1
    22    27    21    1
    23     5     8    1
    24     5     6    1
    25    19    20    1
    26    24    22    2
    27    21    20    2
    28    21    22    1
    29    22    23    1
