@<TRIPOS>MOLECULE
2hgs_GSH_A_1.pdb
 20 19 0 0 0
SMALL
GASTEIGER

@<TRIPOS>ATOM
      1  N1        40.0670   10.1010   17.8870 N.3   503  GSH503     -0.1208
      2  CA1       41.1270    9.0830   17.8510 C.3   503  GSH503      0.1948
      3  C1        40.3000    7.7730   17.8350 C.2   503  GSH503      0.3819
      4  O11       39.3260    6.9810   18.2070 O.co2 503  GSH503     -0.2441
      5  O12       40.9800    7.2370   16.8850 O.co2 503  GSH503     -0.2441
      6  CB1       42.3040    9.1980   18.7770 C.3   503  GSH503      0.0402
      7  CG1       42.2570    8.3920   20.1040 C.3   503  GSH503      0.0889
      8  CD1       43.6540    8.1540   20.6760 C.2   503  GSH503      0.2418
      9  OE1       44.5200    8.9890   20.3610 O.2   503  GSH503     -0.2733
     10  N2        43.7110    6.9780   21.3350 N.am  503  GSH503     -0.1968
     11  CA2       44.8930    6.7110   22.1070 C.3   503  GSH503      0.1843
     12  C2        45.7790    5.8890   21.2110 C.2   503  GSH503      0.2627
     13  O2        45.5880    4.7010   20.8450 O.2   503  GSH503     -0.2714
     14  CB2       44.5310    5.9850   23.4640 C.3   503  GSH503      0.0997
     15  SG2       43.9110    7.3530   24.4710 S.3   503  GSH503     -0.0797
     16  N3        46.4810    6.6360   20.2970 N.am  503  GSH503     -0.1917
     17  CA3       47.4970    6.0790   19.4770 C.3   503  GSH503      0.2285
     18  C3        48.1980    7.0710   18.5820 C.2   503  GSH503      0.3865
     19  O31       49.4280    6.7880   18.3770 O.co2 503  GSH503     -0.2437
     20  O32       47.7870    8.2710   18.6300 O.co2 503  GSH503     -0.2437
@<TRIPOS>BOND
     1     5     3   ar
     2     3     2    1
     3     3     4   ar
     4     2     1    1
     5     2     6    1
     6    19    18   ar
     7    18    20   ar
     8    18    17    1
     9     6     7    1
    10    17    16    1
    11     7     8    1
    12    16    12   am
    13     9     8    2
    14     8    10   am
    15    13    12    2
    16    12    11    1
    17    10    11    1
    18    11    14    1
    19    14    15    1
