@<TRIPOS>MOLECULE
2hgt_III_I_1.pdb
 30 31 0 0 0
SMALL
GASTEIGER

@<TRIPOS>ATOM
      1  N         15.9360  -16.7930   23.4570 N.3     1  DPN1       -0.1227
      2  CA        17.3000  -16.2000   23.4190 C.3     1  DPN1        0.1725
      3  C         17.2370  -14.8080   22.7890 C.2     1  DPN1        0.2475
      4  O         16.2950  -14.0900   23.1290 O.2     1  DPN1       -0.2730
      5  CB        17.8470  -16.2270   24.8410 C.3     1  DPN1        0.0547
      6  CG        19.2570  -15.6460   24.9660 C.ar    1  DPN1       -0.0202
      7  CD1       20.3430  -16.4150   24.5090 C.ar    1  DPN1       -0.0042
      8  CD2       19.4730  -14.3960   25.5470 C.ar    1  DPN1       -0.0042
      9  CE1       21.6310  -15.9010   24.6600 C.ar    1  DPN1       -0.0003
     10  CE2       20.8000  -13.8990   25.6590 C.ar    1  DPN1       -0.0003
     11  CZ        21.9180  -14.6350   25.2250 C.ar    1  DPN1       -0.0000
     12  N         18.1380  -14.4440   21.9040 N.am    2  PRO2       -0.2492
     13  CA        18.0720  -13.0960   21.3070 C.3     2  PRO2        0.1619
     14  C         16.7530  -13.0680   20.5230 C.2     2  PRO2        0.2606
     15  O         16.4020  -14.0900   19.8770 O.2     2  PRO2       -0.2715
     16  CB        19.3080  -12.9700   20.4490 C.3     2  PRO2        0.0570
     17  CG        20.0420  -14.2850   20.4750 C.2     2  PRO2       -0.0077
     18  CD        19.2690  -15.2230   21.3910 C.2     2  PRO2        0.0634
     19  N         15.9680  -11.9950   20.5660 N.am    3  ARG3       -0.1942
     20  CA        14.6750  -11.8480   19.8420 C.3     3  ARG3        0.1979
     21  C         14.8390  -11.0520   18.5190 C.2     3  ARG3        0.3842
     22  O         13.8080  -10.6500   17.9090 O.co2   3  ARG3       -0.2437
     23  CB        13.6270  -11.1250   20.7110 C.3     3  ARG3        0.0370
     24  CG        13.0720  -12.0870   21.7060 C.3     3  ARG3        0.0493
     25  CD        12.2250  -11.3760   22.6750 C.3     3  ARG3        0.2205
     26  NE        11.5570  -12.3000   23.5710 N.pl3   3  ARG3       -0.0865
     27  CZ        10.6570  -12.0220   24.4930 C.cat   3  ARG3        0.5346
     28  NH1       10.2930  -10.7570   24.8110 N.pl3   3  ARG3        0.1354
     29  NH2        9.9760  -13.0770   25.0530 N.pl3   3  ARG3        0.1354
     30  OXT       16.0110  -10.8360   18.0200 O.co2   3  ARG3       -0.2437
@<TRIPOS>BOND
     1    22    21   ar
     2    30    21   ar
     3    21    20    1
     4    20    19    1
     5    20    23    1
     6    15    14    2
     7    16    17    1
     8    16    13    1
     9    17    18    2
    10    14    19   am
    11    14    13    1
    12    23    24    1
    13    13    12    1
    14    18    12    1
    15    24    25    1
    16    12     3   am
    17    25    26    1
    18     3     4    2
    19     3     2    1
    20     2     1    1
    21     2     5    1
    22    26    27    2
    23    27    28    1
    24    27    29    1
    25     7     9   ar
    26     7     6   ar
    27     9    11   ar
    28     5     6    1
    29     6     8   ar
    30    11    10   ar
    31     8    10   ar
