@<TRIPOS>MOLECULE
2hgw_PLP_A_1.pdb
 15 15 0 0 0
SMALL
GASTEIGER

@<TRIPOS>ATOM
      1  N1        21.3260   42.1590   17.5100 N.ar  400  PLP400     -0.2452
      2  C2        20.6270   43.2130   17.0350 C.ar  400  PLP400      0.0978
      3  C2A       19.7470   43.9930   18.0030 C.3   400  PLP400      0.0555
      4  C3        20.7350   43.5380   15.6800 C.ar  400  PLP400      0.2049
      5  O3        20.0400   44.5850   15.2130 O.3   400  PLP400     -0.2857
      6  C4        21.5640   42.7770   14.8160 C.ar  400  PLP400      0.0182
      7  C4A       21.6510   43.1610   13.3100 C.3   400  PLP400      0.0342
      8  C5        22.2810   41.6820   15.3830 C.ar  400  PLP400      0.0261
      9  C6        22.1450   41.4030   16.7140 C.ar  400  PLP400      0.0965
     10  C5A       23.2420   40.8130   14.6420 C.3   400  PLP400      0.1815
     11  O4P       22.7710   40.2160   13.4830 O.3   400  PLP400     -0.2653
     12  P         23.7800   39.8040   12.3560 P.3   400  PLP400      0.5329
     13  O1P       24.2880   40.9340   11.6490 O.3   400  PLP400     -0.1145
     14  O2P       22.8270   39.0790   11.3850 O.2   400  PLP400     -0.2224
     15  O3P       24.6990   38.7950   12.9000 O.3   400  PLP400     -0.1145
@<TRIPOS>BOND
     1    14    12    2
     2    13    12    1
     3    12    15    1
     4    12    11    1
     5     7     6    1
     6    11    10    1
     7    10     8    1
     8     6     8   ar
     9     6     4   ar
    10     5     4    1
    11     8     9   ar
    12     4     2   ar
    13     9     1   ar
    14     2     1   ar
    15     2     3    1
