@<TRIPOS>MOLECULE
2hgx_PLP_A_1.pdb
 15 15 0 0 0
SMALL
GASTEIGER

@<TRIPOS>ATOM
      1  N1         9.9580   10.1270   14.2790 N.ar  400  PLP400     -0.2452
      2  C2        10.7460    9.0520   14.0480 C.ar  400  PLP400      0.0978
      3  C2A       11.1760    8.2010   15.2420 C.3   400  PLP400      0.0555
      4  C3        11.1350    8.7690   12.7280 C.ar  400  PLP400      0.2049
      5  O3        11.9070    7.7140   12.5040 O.3   400  PLP400     -0.2857
      6  C4        10.7170    9.5840   11.6510 C.ar  400  PLP400      0.0182
      7  C4A       11.1820    9.2440   10.1950 C.3   400  PLP400      0.0342
      8  C5         9.8810   10.6940   11.9560 C.ar  400  PLP400      0.0261
      9  C6         9.5240   10.9360   13.2540 C.ar  400  PLP400      0.0965
     10  C5A        9.2970   11.6140   10.9380 C.3   400  PLP400      0.1815
     11  O4P       10.1850   12.2290   10.0760 O.3   400  PLP400     -0.2653
     12  P          9.6770   12.7480    8.6850 P.3   400  PLP400      0.5329
     13  O1P        9.4040   11.6750    7.7760 O.2   400  PLP400     -0.2224
     14  O2P       10.9390   13.4500    8.1810 O.3   400  PLP400     -0.1145
     15  O3P        8.6530   13.7910    8.9260 O.3   400  PLP400     -0.1145
@<TRIPOS>BOND
     1    13    12    2
     2    14    12    1
     3    12    15    1
     4    12    11    1
     5    11    10    1
     6     7     6    1
     7    10     8    1
     8     6     8   ar
     9     6     4   ar
    10     8     9   ar
    11     5     4    1
    12     4     2   ar
    13     9     1   ar
    14     2     1   ar
    15     2     3    1
