@<TRIPOS>MOLECULE
2hgz_PBF_A_1.pdb
 20 21 0 0 0
SMALL
GASTEIGER

@<TRIPOS>ATOM
      1  N         24.3520   12.6700   22.0590 N.3   308  PBF308     -0.1205
      2  C         23.9280   13.2560   19.6560 C.2   308  PBF308      0.3822
      3  O         24.5060   14.3890   19.9110 O.co2 308  PBF308     -0.2440
      4  CA        24.0620   12.1200   20.7230 C.3   308  PBF308      0.1986
      5  CB        22.7320   11.4410   20.7930 C.3   308  PBF308      0.0569
      6  CG        22.6580   10.2750   21.7800 C.ar  308  PBF308     -0.0202
      7  CD1       21.5540   10.1130   22.6800 C.ar  308  PBF308     -0.0041
      8  CD2       23.7010    9.3500   21.7860 C.ar  308  PBF308     -0.0041
      9  CE1       21.5800    8.9830   23.5590 C.ar  308  PBF308      0.0029
     10  CE2       23.7200    8.2760   22.6250 C.ar  308  PBF308      0.0029
     11  CZ        22.6610    8.0880   23.5130 C.ar  308  PBF308      0.0389
     12  CN1       22.7540    6.8650   24.4230 C.2   308  PBF308      0.1955
     13  ON2       22.5730    6.9490   25.6080 O.2   308  PBF308     -0.2866
     14  CT        23.0690    5.4840   23.9470 C.ar  308  PBF308      0.0390
     15  CI1       22.5170    4.9690   22.7920 C.ar  308  PBF308      0.0032
     16  CI2       23.9350    4.7920   24.7420 C.ar  308  PBF308      0.0032
     17  CK1       22.8530    3.6630   22.3970 C.ar  308  PBF308      0.0001
     18  CK2       24.2770    3.5030   24.3710 C.ar  308  PBF308      0.0001
     19  CL        23.7450    2.9210   23.1990 C.ar  308  PBF308      0.0000
     20  OXT       23.2400   12.9400   18.5720 O.co2 308  PBF308     -0.2440
@<TRIPOS>BOND
     1    20     2   ar
     2     2     3   ar
     3     2     4    1
     4     4     5    1
     5     4     1    1
     6     5     6    1
     7     6     8   ar
     8     6     7   ar
     9     8    10   ar
    10    17    15   ar
    11    17    19   ar
    12    10    11   ar
    13     7     9   ar
    14    15    14   ar
    15    19    18   ar
    16    11     9   ar
    17    11    12    1
    18    14    12    1
    19    14    16   ar
    20    18    16   ar
    21    12    13    2
