@<TRIPOS>MOLECULE
2hh1_U10_L_1.pdb
 48 48 0 0 0
SMALL
GASTEIGER

@<TRIPOS>ATOM
      1  C1        46.6050   67.1890   64.6940 C.2   502  U10502      0.0198
      2  C2        46.3630   66.3530   65.8950 C.2   502  U10502      0.2282
      3  C3        45.0910   65.7150   66.1470 C.2   502  U10502      0.2140
      4  C4        44.1090   65.8800   65.2280 C.2   502  U10502      0.2140
      5  C5        44.3070   66.7050   64.0410 C.2   502  U10502      0.2285
      6  C6        45.5940   67.3470   63.7760 C.2   502  U10502      0.0235
      7  C1M       47.9210   67.8590   64.4660 C.3   502  U10502      0.0343
      8  C3M       44.8450   65.3850   68.7000 C.3   502  U10502      0.2528
      9  C4M       42.1170   65.9730   66.5190 C.3   502  U10502      0.2528
     10  C7        45.6690   68.1900   62.5120 C.3   502  U10502      0.0548
     11  C8        46.2000   67.4640   61.3230 C.2   502  U10502     -0.0298
     12  C9        45.8950   67.7750   60.0630 C.2   502  U10502     -0.0475
     13  C10       44.9650   68.8750   59.7190 C.3   502  U10502      0.0260
     14  C11       46.5630   67.0060   58.9280 C.3   502  U10502      0.0264
     15  C12       47.8860   67.6980   58.6310 C.3   502  U10502      0.0297
     16  C13       48.5390   67.2980   57.3120 C.2   502  U10502     -0.0342
     17  C14       49.9160   67.2350   57.1850 C.2   502  U10502     -0.0478
     18  C15       50.8360   67.5550   58.3240 C.3   502  U10502      0.0260
     19  C16       50.5940   66.8640   55.8910 C.3   502  U10502      0.0263
     20  C17       49.9630   65.7110   55.1230 C.3   502  U10502      0.0297
     21  C18       50.8160   65.5590   53.8880 C.2   502  U10502     -0.0342
     22  C19       50.9910   64.4000   53.2110 C.2   502  U10502     -0.0478
     23  C20       50.2910   63.1350   53.6020 C.3   502  U10502      0.0260
     24  C21       51.8840   64.3430   51.9880 C.3   502  U10502      0.0263
     25  C22       53.0210   65.3720   51.9570 C.3   502  U10502      0.0297
     26  C23       53.7490   65.0670   50.6700 C.2   502  U10502     -0.0342
     27  C24       55.0360   64.7020   50.6430 C.2   502  U10502     -0.0478
     28  C25       55.7940   64.6180   51.9310 C.3   502  U10502      0.0260
     29  C26       55.6750   64.3550   49.3000 C.3   502  U10502      0.0263
     30  C27       56.0140   65.6050   48.4840 C.3   502  U10502      0.0297
     31  C28       57.1490   65.3070   47.5400 C.2   502  U10502     -0.0342
     32  C29       57.8570   66.2530   46.8660 C.2   502  U10502     -0.0478
     33  C30       57.5860   67.7320   46.9700 C.3   502  U10502      0.0260
     34  C31       58.9380   65.6780   45.9720 C.3   502  U10502      0.0263
     35  C32       59.7150   66.6730   45.1160 C.3   502  U10502      0.0297
     36  C33       59.2450   66.7110   43.6770 C.2   502  U10502     -0.0342
     37  C34       59.5780   65.8250   42.7250 C.2   502  U10502     -0.0478
     38  C35       58.9800   66.1080   41.3710 C.3   502  U10502      0.0260
     39  C36       60.4740   64.6290   42.9400 C.3   502  U10502      0.0263
     40  C37       60.0050   63.3410   42.2420 C.3   502  U10502      0.0297
     41  C38       59.7900   63.4550   40.7470 C.2   502  U10502     -0.0342
     42  C39       59.5780   62.3810   39.9560 C.2   502  U10502     -0.0478
     43  C40       59.5490   60.9770   40.5100 C.3   502  U10502      0.0260
     44  C41       59.3770   62.5870   38.4660 C.3   502  U10502      0.0260
     45  O2        47.1760   66.1700   66.7640 O.2   502  U10502     -0.2836
     46  O3        44.8670   64.8950   67.3410 O.2   502  U10502     -0.4652
     47  O4        42.8400   65.2900   65.4850 O.2   502  U10502     -0.4652
     48  O5        43.4000   66.8620   63.2430 O.2   502  U10502     -0.2835
@<TRIPOS>BOND
     1    44    42    1
     2    42    43    1
     3    42    41    2
     4    41    40    1
     5    38    37    1
     6    40    39    1
     7    37    39    1
     8    37    36    2
     9    36    35    1
    10    35    34    1
    11    34    32    1
    12    32    33    1
    13    32    31    2
    14    31    30    1
    15    30    29    1
    16    29    27    1
    17    27    26    2
    18    27    28    1
    19    26    25    1
    20    25    24    1
    21    24    22    1
    22    22    23    1
    23    22    21    2
    24    21    20    1
    25    20    19    1
    26    19    17    1
    27    17    16    2
    28    17    18    1
    29    16    15    1
    30    15    14    1
    31    14    12    1
    32    13    12    1
    33    12    11    2
    34    11    10    1
    35    10     6    1
    36    48     5    2
    37     6     5    1
    38     6     1    2
    39     5     4    1
    40     7     1    1
    41     1     2    1
    42     4    47    1
    43     4     3    2
    44    47     9    1
    45     2     3    1
    46     2    45    2
    47     3    46    1
    48    46     8    1
