@<TRIPOS>MOLECULE
2hh5_GNQ_A_1.pdb
 39 41 0 0 0
SMALL
GASTEIGER

@<TRIPOS>ATOM
      1  O5        10.6850   10.4800  -29.6620 O.2   401  GNQ401     -0.1726
      2  S          9.7580   11.1160  -28.7280 S.O2  401  GNQ401     -0.0036
      3  O4         9.0390   10.1590  -27.9620 O.2   401  GNQ401     -0.1726
      4  C17        8.6650   12.0890  -29.6140 C.3   401  GNQ401      0.1772
      5  C18        7.8050   11.3900  -30.6450 C.ar  401  GNQ401      0.0013
      6  C20        6.5280   10.9720  -30.3240 C.ar  401  GNQ401     -0.0026
      7  C21        5.7220   10.3170  -31.2540 C.ar  401  GNQ401     -0.0003
      8  C22        6.1960   10.0870  -32.5250 C.ar  401  GNQ401     -0.0000
      9  C23        7.4830   10.5010  -32.8600 C.ar  401  GNQ401     -0.0003
     10  C19        8.2910   11.1490  -31.9240 C.ar  401  GNQ401     -0.0026
     11  C16       10.6960   12.1700  -27.7960 C.3   401  GNQ401      0.1822
     12  CA        10.0680   12.6080  -26.4490 C.3   401  GNQ401      0.1977
     13  N          9.0110   13.6250  -26.6430 N.am  401  GNQ401     -0.1789
     14  C11        8.2090   13.9720  -25.6100 C.2   401  GNQ401      0.3238
     15  O3         8.3080   13.4050  -24.4980 O.2   401  GNQ401     -0.2508
     16  N3         7.2650   14.9260  -25.7310 N.am  401  GNQ401     -0.2577
     17  C15        6.4100   15.2240  -24.5490 C.3   401  GNQ401      0.1271
     18  C14        6.1740   16.7240  -24.4540 C.3   401  GNQ401      0.1637
     19  O2         5.6520   17.1340  -25.7230 O.3   401  GNQ401     -0.3501
     20  C13        6.6710   17.0960  -26.7000 C.3   401  GNQ401      0.1637
     21  C12        6.9730   15.6330  -26.9800 C.3   401  GNQ401      0.1271
     22  C         11.1540   13.1640  -25.5620 C.2   401  GNQ401      0.2631
     23  O         11.7130   14.2240  -25.8470 O.2   401  GNQ401     -0.2714
     24  N2        11.4220   12.4900  -24.4180 N.am  401  GNQ401     -0.2039
     25  C9        12.4310   12.9160  -23.4460 C.3   401  GNQ401      0.1169
     26  C10       11.8940   14.0670  -22.5930 C.3   401  GNQ401      0.0253
     27  C8        12.7380   11.7820  -22.4900 C.3   401  GNQ401      0.1337
     28  N1        13.0670   10.5150  -23.1680 N.pl3 401  GNQ401     -0.2358
     29  C7        13.2820    9.4860  -22.2900 C.ar  401  GNQ401      0.0656
     30  C6        12.4540    8.3870  -22.3400 C.ar  401  GNQ401      0.0192
     31  C5        12.6200    7.3160  -21.4730 C.ar  401  GNQ401      0.0385
     32  C4        14.2690    9.5240  -21.2950 C.ar  401  GNQ401      0.0192
     33  C3        14.4330    8.4320  -20.4150 C.ar  401  GNQ401      0.0385
     34  C2        13.5880    7.3220  -20.5060 C.ar  401  GNQ401      0.1469
     35  O1        13.6760    6.2230  -19.6450 O.3   401  GNQ401     -0.4045
     36  C1        14.8930    5.7960  -19.0460 C.3   401  GNQ401      0.5753
     37  F1        15.2170    6.7340  -18.1580 F     401  GNQ401     -0.1328
     38  F2        14.7690    4.5870  -18.5110 F     401  GNQ401     -0.1328
     39  F3        15.8300    5.6580  -19.9530 F     401  GNQ401     -0.1328
@<TRIPOS>BOND
     1     9     8   ar
     2     9    10   ar
     3     8     7   ar
     4    10     5   ar
     5     7     6   ar
     6     5     6   ar
     7     5     4    1
     8     1     2    2
     9     4     2    1
    10     2     3    2
    11     2    11    1
    12    11    12    1
    13    21    20    1
    14    21    16    1
    15    20    19    1
    16    13    12    1
    17    13    14   am
    18    12    22    1
    19    23    22    2
    20    16    14   am
    21    16    17    1
    22    19    18    1
    23    14    15    2
    24    22    24   am
    25    17    18    1
    26    24    25    1
    27    25    26    1
    28    25    27    1
    29    28    27    1
    30    28    29    1
    31    30    29   ar
    32    30    31   ar
    33    29    32   ar
    34    31    34   ar
    35    32    33   ar
    36    34    33   ar
    37    34    35    1
    38    39    36    1
    39    35    36    1
    40    36    38    1
    41    36    37    1
