@<TRIPOS>MOLECULE
2hh9_VIB_A_1.pdb
 18 19 0 0 0
SMALL
GASTEIGER

@<TRIPOS>ATOM
      1  CM2       16.4920   44.6320   21.6320 C.3   702  VIB702      0.1291
      2  N4A       18.7910   43.3800   25.6550 N.pl3 702  VIB702     -0.0925
      3  CM4       23.8930   44.0400   25.2490 C.3   702  VIB702      0.0473
      4  O1        27.2240   46.8100   27.8190 O.3   702  VIB702     -0.2200
      5  C7        26.0380   46.9680   27.0370 C.3   702  VIB702      0.1873
      6  C6        24.9910   45.9320   27.4680 C.3   702  VIB702      0.0691
      7  C2        21.5900   46.9530   25.3330 C.3   702  VIB702      0.1543
      8  S1        22.6410   47.5150   26.6220 S.3   702  VIB702     -0.0951
      9  C5        23.7770   46.1410   26.6100 C.2   702  VIB702      0.0165
     10  C4        23.2400   45.3660   25.6270 C.2   702  VIB702      0.0279
     11  N3        22.0860   45.8300   24.9820 N.pl3 702  VIB702     -0.2970
     12  C7A       20.9790   44.9290   25.2040 C.3   702  VIB702      0.1237
     13  C4A       18.7760   44.0960   24.4710 C.2   702  VIB702      0.2292
     14  N3A       17.7260   44.0400   23.6340 N.2   702  VIB702     -0.3368
     15  C2A       17.7020   44.7330   22.5050 C.1   702  VIB702      0.0663
     16  N1A       18.7310   45.5140   22.1470 N.2   702  VIB702     -0.1861
     17  C6A       19.8170   45.6280   22.9430 C.2   702  VIB702      0.1115
     18  C5A       19.8590   44.8960   24.1640 C.2   702  VIB702      0.0654
@<TRIPOS>BOND
     1     1    15    1
     2    16    15    2
     3    16    17    1
     4    15    14    2
     5    17    18    2
     6    14    13    2
     7    18    13    1
     8    18    12    1
     9    13     2    1
    10    11    12    1
    11    11     7    1
    12    11    10    1
    13     3    10    1
    14     7     8    1
    15    10     9    2
    16     9     8    1
    17     9     6    1
    18     5     6    1
    19     5     4    1
