@<TRIPOS>MOLECULE
2hha_3TP_A_1.pdb
 26 28 0 0 0
SMALL
GASTEIGER

@<TRIPOS>ATOM
      1  C2        38.4020   51.0630   35.1160 C.3   1000  3TP1000     0.1806
      2  C3        37.0120   51.0180   35.8440 C.2   1000  3TP1000     0.2593
      3  O5        36.6180   51.9990   36.4760 O.2   1000  3TP1000    -0.2700
      4  C10       36.6780   48.6550   34.9980 C.ar  1000  3TP1000     0.0828
      5  C11       35.5290   47.6620   35.1590 C.ar  1000  3TP1000     0.0206
      6  C12       34.4530   48.3520   36.0060 C.ar  1000  3TP1000     0.0206
      7  C13       34.9680   49.7490   36.3440 C.ar  1000  3TP1000     0.0828
      8  C20       40.0500   50.3780   36.8840 C.2   1000  3TP1000     0.2952
      9  C22       40.6580   49.0770   38.4290 C.1   1000  3TP1000     0.1268
     10  C25       40.9620   48.5040   39.7470 C.ar  1000  3TP1000     0.0771
     11  C26       40.0550   48.7580   40.8130 C.ar  1000  3TP1000     0.0124
     12  C27       40.2580   48.1900   42.0740 C.ar  1000  3TP1000     0.0191
     13  C29       42.3150   47.1040   41.2420 C.ar  1000  3TP1000     0.0191
     14  C30       42.0990   47.6780   39.9640 C.ar  1000  3TP1000     0.0124
     15  C1        39.5680   51.5510   36.0190 C.3   1000  3TP1000     0.1192
     16  N4        36.2740   49.8650   35.7310 N.ar  1000  3TP1000    -0.2740
     17  N6        38.1850   51.9180   33.9660 N.3   1000  3TP1000    -0.1223
     18  N21       40.2190   50.3410   38.2170 N.2   1000  3TP1000    -0.3126
     19  N23       40.7570   48.3590   37.2740 N.2   1000  3TP1000    -0.0072
     20  O24       40.3510   49.2300   36.2410 O.2   1000  3TP1000    -0.3155
     21  C28       41.3770   47.3580   42.2880 C.ar  1000  3TP1000     0.1058
     22  S34       41.5720   46.6140   43.8760 S.O2  1000  3TP1000     0.0104
     23  O35       41.7080   45.2180   43.7070 O.2   1000  3TP1000    -0.1686
     24  O36       40.4330   47.0260   44.6760 O.2   1000  3TP1000    -0.1686
     25  C37       43.0480   47.3780   44.5050 C.3   1000  3TP1000     0.1816
     26  C44       40.7430   52.1060   35.1530 C.3   1000  3TP1000     0.0131
@<TRIPOS>BOND
     1    17     1    1
     2     4     5   ar
     3     4    16   ar
     4     1     2    1
     5     1    15    1
     6    26    15    1
     7     5     6   ar
     8    16     2   am
     9    16     7   ar
    10     2     3    2
    11     6     7   ar
    12    15     8    1
    13    20     8    1
    14    20    19    1
    15     8    18    2
    16    19     9    2
    17    18     9    2
    18     9    10    1
    19    10    14   ar
    20    10    11   ar
    21    14    13   ar
    22    11    12   ar
    23    13    21   ar
    24    12    21   ar
    25    21    22    1
    26    23    22    2
    27    22    25    1
    28    22    24    2
