@<TRIPOS>MOLECULE
2hhb_HEM_A_1.pdb
 43 50 0 0 0
SMALL
GASTEIGER

@<TRIPOS>ATOM
      1  CHA        8.6340    7.8980  -18.3340 C.2   142  HEM142      0.0000
      2  CHB       10.3860    9.9650  -14.2760 C.2   142  HEM142      0.0000
      3  CHC        8.3370    6.4030  -11.6110 C.2   142  HEM142      0.0000
      4  CHD        6.9840    4.1170  -15.7160 C.2   142  HEM142      0.0000
      5  C1A        9.2770    8.7760  -17.4790 C.2   142  HEM142      0.0000
      6  C2A       10.1000    9.9290  -17.8860 C.2   142  HEM142      0.0000
      7  C3A       10.5930   10.5070  -16.7490 C.2   142  HEM142      0.0000
      8  C4A       10.1130    9.7080  -15.6260 C.2   142  HEM142      0.0000
      9  CMA       11.6100   11.6180  -16.6900 C.3   142  HEM142      0.0000
     10  CAA       10.4420   10.3480  -19.2920 C.3   142  HEM142      0.0000
     11  CBA        9.4080   11.3150  -19.8450 C.3   142  HEM142      0.0000
     12  CGA        9.7960   11.9680  -21.1890 C.2   142  HEM142      0.0000
     13  O1A       10.2090   11.2850  -22.1210 O.co2 142  HEM142      0.0000
     14  O2A        9.5750   13.1650  -21.3280 O.co2 142  HEM142      0.0000
     15  C1B        9.9780    9.1600  -13.2030 C.ar  142  HEM142      0.0000
     16  C2B       10.3230    9.4110  -11.8250 C.ar  142  HEM142      0.0000
     17  C3B        9.7380    8.4110  -11.0570 C.ar  142  HEM142      0.0000
     18  C4B        9.0510    7.5430  -11.9910 C.ar  142  HEM142      0.0000
     19  CMB       11.0660   10.6350  -11.3570 C.3   142  HEM142      0.0000
     20  CAB        9.5430    8.4020   -9.5680 C.3   142  HEM142      0.0000
     21  CBB       10.6230    8.4230   -8.7070 C.3   142  HEM142      0.0000
     22  C1C        7.7740    5.4660  -12.5220 C.2   142  HEM142      0.0000
     23  C2C        7.2560    4.1780  -12.1510 C.2   142  HEM142      0.0000
     24  C3C        6.9060    3.5280  -13.3050 C.2   142  HEM142      0.0000
     25  C4C        7.2070    4.4300  -14.3970 C.2   142  HEM142      0.0000
     26  CMC        7.0580    3.6800  -10.7520 C.3   142  HEM142      0.0000
     27  CAC        6.3720    2.1600  -13.5020 C.2   142  HEM142      0.0000
     28  CBC        6.7270    1.0770  -12.7470 C.2   142  HEM142      0.0000
     29  C1D        7.2810    4.9730  -16.8010 C.ar  142  HEM142      0.0000
     30  C2D        7.0820    4.6420  -18.2040 C.ar  142  HEM142      0.0000
     31  C3D        7.5320    5.6960  -18.9200 C.ar  142  HEM142      0.0000
     32  C4D        7.9950    6.6870  -17.9820 C.ar  142  HEM142      0.0000
     33  CMD        6.3500    3.4520  -18.7860 C.3   142  HEM142      0.0000
     34  CAD        7.6100    5.7610  -20.4240 C.3   142  HEM142      0.0000
     35  CBD        8.9690    5.3000  -20.9440 C.3   142  HEM142      0.0000
     36  CGD        9.0150    5.2410  -22.4800 C.2   142  HEM142      0.0000
     37  O1D       10.1220    5.3710  -22.9370 O.co2 142  HEM142      0.0000
     38  O2D        8.0120    5.0410  -23.1800 O.co2 142  HEM142      0.0000
     39  NA         9.2990    8.6690  -16.1040 N.2   142  HEM142      0.0000
     40  NB         9.2590    8.0010  -13.2970 N.ar  142  HEM142      0.0000
     41  NC         7.6740    5.6180  -13.9220 N.2   142  HEM142      0.0000
     42  ND         7.7820    6.2200  -16.6940 N.ar  142  HEM142      0.0000
     43 FE          8.1360    7.3950  -15.0380 Fe    142  HEM142      0.0000
@<TRIPOS>BOND
     1    38    36   ar
     2    37    36   ar
     3    36    35    1
     4    13    12   ar
     5    14    12   ar
     6    12    11    1
     7    35    34    1
     8    34    31    1
     9    11    10    1
    10    10     6    1
    11    31    30   ar
    12    31    32   ar
    13    33    30    1
    14     1    32    2
    15     1     5    1
    16    30    29   ar
    17    32    42   ar
    18     6     5    1
    19     6     7    2
    20     5    39    2
    21    29    42   ar
    22    29     4    2
    23     7     9    1
    24     7     8    1
    25    42    43    1
    26    39     8    1
    27    39    43    1
    28     4    25    1
    29     8     2    2
    30    43    41    1
    31    43    40    1
    32    25    41    2
    33    25    24    1
    34     2    15    1
    35    41    22    1
    36    27    24    1
    37    27    28    2
    38    24    23    2
    39    40    15   ar
    40    40    18   ar
    41    15    16   ar
    42    22    23    1
    43    22     3    2
    44    23    26    1
    45    18     3    1
    46    18    17   ar
    47    16    19    1
    48    16    17   ar
    49    17    20    1
    50    20    21    1
