@<TRIPOS>MOLECULE
2hhd_HEM_A_1.pdb
 43 50 0 0 0
SMALL
GASTEIGER

@<TRIPOS>ATOM
      1 FE         18.3260   18.5130   23.8760 Fe    142  HEM142      0.0000
      2  CHA       18.6440   18.6520   20.4400 C.2   142  HEM142      0.0000
      3  CHB       20.9910   20.6730   24.2060 C.2   142  HEM142      0.0000
      4  CHC       18.5100   17.8480   27.1800 C.2   142  HEM142      0.0000
      5  CHD       16.6160   15.4410   23.4670 C.2   142  HEM142      0.0000
      6  NA        19.5270   19.4820   22.5850 N.2   142  HEM142      0.0000
      7  C1A       19.5070   19.4240   21.1880 C.2   142  HEM142      0.0000
      8  C2A       20.5420   20.3030   20.6840 C.2   142  HEM142      0.0000
      9  C3A       21.1300   20.8860   21.7140 C.2   142  HEM142      0.0000
     10  C4A       20.5340   20.3690   22.9360 C.2   142  HEM142      0.0000
     11  CMA       22.2490   21.9540   21.7890 C.3   142  HEM142      0.0000
     12  CAA       20.7640   20.5910   19.1810 C.3   142  HEM142      0.0000
     13  CBA       19.8750   21.7240   18.6760 C.3   142  HEM142      0.0000
     14  CGA       20.2050   22.2820   17.3160 C.2   142  HEM142      0.0000
     15  O1A       20.8640   21.5270   16.5350 O.co2 142  HEM142      0.0000
     16  O2A       19.8460   23.4980   17.0610 O.co2 142  HEM142      0.0000
     17  NB        19.5880   19.1040   25.3530 N.ar  142  HEM142      0.0000
     18  C1B       20.5710   20.0240   25.3370 C.ar  142  HEM142      0.0000
     19  C2B       21.0870   20.2460   26.6760 C.ar  142  HEM142      0.0000
     20  C3B       20.3490   19.4990   27.5250 C.ar  142  HEM142      0.0000
     21  C4B       19.4420   18.7180   26.6910 C.ar  142  HEM142      0.0000
     22  CMB       22.2580   21.1820   27.0580 C.3   142  HEM142      0.0000
     23  CAB       20.3350   19.3840   29.0550 C.2   142  HEM142      0.0000
     24  CBB       21.4160   19.3340   29.8470 C.2   142  HEM142      0.0000
     25  NC        17.7120   16.9850   25.0930 N.2   142  HEM142      0.0000
     26  C1C       17.8430   16.9280   26.4520 C.2   142  HEM142      0.0000
     27  C2C       17.2110   15.7290   26.9780 C.2   142  HEM142      0.0000
     28  C3C       16.7670   15.0140   25.9420 C.2   142  HEM142      0.0000
     29  C4C       17.0000   15.8190   24.7310 C.2   142  HEM142      0.0000
     30  CMC       17.2460   15.3510   28.4760 C.3   142  HEM142      0.0000
     31  CAC       16.0230   13.6750   25.9480 C.2   142  HEM142      0.0000
     32  CBC       16.1810   12.7470   26.8990 C.2   142  HEM142      0.0000
     33  ND        17.7940   17.2640   22.3250 N.ar  142  HEM142      0.0000
     34  C1D       16.9870   16.1640   22.3730 C.ar  142  HEM142      0.0000
     35  C2D       16.7520   15.7040   21.0400 C.ar  142  HEM142      0.0000
     36  C3D       17.3080   16.5580   20.1950 C.ar  142  HEM142      0.0000
     37  C4D       17.9700   17.5850   20.9970 C.ar  142  HEM142      0.0000
     38  CMD       15.9880   14.3980   20.6470 C.3   142  HEM142      0.0000
     39  CAD       17.3760   16.5090   18.6390 C.3   142  HEM142      0.0000
     40  CBD       18.0970   15.2690   18.1020 C.3   142  HEM142      0.0000
     41  CGD       18.3370   15.2600   16.5990 C.2   142  HEM142      0.0000
     42  O1D       19.5350   15.4160   16.2110 O.co2 142  HEM142      0.0000
     43  O2D       17.2840   15.1450   15.8660 O.co2 142  HEM142      0.0000
@<TRIPOS>BOND
     1    43    41   ar
     2    42    41   ar
     3    15    14   ar
     4    41    40    1
     5    16    14   ar
     6    14    13    1
     7    40    39    1
     8    39    36    1
     9    13    12    1
    10    12     8    1
    11    36    37   ar
    12    36    35   ar
    13     2    37    2
    14     2     7    1
    15    38    35    1
    16     8     7    1
    17     8     9    2
    18    37    33   ar
    19    35    34   ar
    20     7     6    2
    21     9    11    1
    22     9    10    1
    23    33    34   ar
    24    33     1    1
    25    34     5    2
    26     6    10    1
    27     6     1    1
    28    10     3    2
    29     5    29    1
    30     1    25    1
    31     1    17    1
    32     3    18    1
    33    29    25    2
    34    29    28    1
    35    25    26    1
    36    18    17   ar
    37    18    19   ar
    38    17    21   ar
    39    28    31    1
    40    28    27    2
    41    31    32    2
    42    26    27    1
    43    26     4    2
    44    19    22    1
    45    19    20   ar
    46    21     4    1
    47    21    20   ar
    48    27    30    1
    49    20    23    1
    50    23    24    2
