@<TRIPOS>MOLECULE
2hhe_HEM_A_1.pdb
 43 50 0 0 0
SMALL
GASTEIGER

@<TRIPOS>ATOM
      1 FE         18.4780   18.0540   23.5370 Fe    142  HEM142      0.0000
      2  CHA       18.9470   18.1420   20.1040 C.2   142  HEM142      0.0000
      3  CHB       20.9870   20.4060   23.8700 C.2   142  HEM142      0.0000
      4  CHC       18.5950   17.5090   26.9310 C.2   142  HEM142      0.0000
      5  CHD       16.7360   15.1540   23.1600 C.2   142  HEM142      0.0000
      6  NA        19.6870   19.0610   22.2800 N.2   142  HEM142      0.0000
      7  C1A       19.6690   18.9770   20.9140 C.2   142  HEM142      0.0000
      8  C2A       20.5760   19.9960   20.3770 C.2   142  HEM142      0.0000
      9  C3A       21.0840   20.6850   21.3790 C.2   142  HEM142      0.0000
     10  C4A       20.6130   20.0490   22.5960 C.2   142  HEM142      0.0000
     11  CMA       22.1050   21.8420   21.3290 C.3   142  HEM142      0.0000
     12  CAA       20.7010   20.1840   18.8450 C.3   142  HEM142      0.0000
     13  CBA       20.1300   21.5270   18.3840 C.3   142  HEM142      0.0000
     14  CGA       20.3260   21.7170   16.9050 C.2   142  HEM142      0.0000
     15  O1A       20.5930   20.7120   16.2330 O.co2 142  HEM142      0.0000
     16  O2A       20.3500   22.9360   16.6050 O.co2 142  HEM142      0.0000
     17  NB        19.6310   18.7320   25.0860 N.ar  142  HEM142      0.0000
     18  C1B       20.5720   19.7600   25.0180 C.ar  142  HEM142      0.0000
     19  C2B       20.9530   20.1430   26.3370 C.ar  142  HEM142      0.0000
     20  C3B       20.3020   19.3440   27.1820 C.ar  142  HEM142      0.0000
     21  C4B       19.4720   18.4470   26.4050 C.ar  142  HEM142      0.0000
     22  CMB       21.9120   21.3180   26.6510 C.3   142  HEM142      0.0000
     23  CAB       20.3510   19.3120   28.7480 C.2   142  HEM142      0.0000
     24  CBB       21.5850   19.0560   29.3040 C.2   142  HEM142      0.0000
     25  NC        17.7710   16.6530   24.7900 N.2   142  HEM142      0.0000
     26  C1C       17.9270   16.5810   26.1540 C.2   142  HEM142      0.0000
     27  C2C       17.3330   15.3630   26.6490 C.2   142  HEM142      0.0000
     28  C3C       16.8600   14.6730   25.6220 C.2   142  HEM142      0.0000
     29  C4C       17.0980   15.5020   24.4280 C.2   142  HEM142      0.0000
     30  CMC       17.3170   14.9760   28.1420 C.3   142  HEM142      0.0000
     31  CAC       16.1460   13.3160   25.5570 C.2   142  HEM142      0.0000
     32  CBC       15.9150   12.4370   26.4950 C.2   142  HEM142      0.0000
     33  ND        18.0010   16.8580   21.9930 N.ar  142  HEM142      0.0000
     34  C1D       17.1620   15.7760   22.0410 C.ar  142  HEM142      0.0000
     35  C2D       16.8850   15.3140   20.6780 C.ar  142  HEM142      0.0000
     36  C3D       17.4780   16.1360   19.8320 C.ar  142  HEM142      0.0000
     37  C4D       18.2110   17.1180   20.6480 C.ar  142  HEM142      0.0000
     38  CMD       15.9010   14.1490   20.3730 C.3   142  HEM142      0.0000
     39  CAD       17.4180   16.2010   18.2980 C.3   142  HEM142      0.0000
     40  CBD       17.8440   15.0340   17.4280 C.3   142  HEM142      0.0000
     41  CGD       18.6060   15.3890   16.1810 C.2   142  HEM142      0.0000
     42  O1D       18.9970   16.5590   15.9980 O.co2 142  HEM142      0.0000
     43  O2D       18.8100   14.5540   15.2670 O.co2 142  HEM142      0.0000
@<TRIPOS>BOND
     1    43    41   ar
     2    42    41   ar
     3    41    40    1
     4    15    14   ar
     5    16    14   ar
     6    14    13    1
     7    40    39    1
     8    39    36    1
     9    13    12    1
    10    12     8    1
    11    36    37   ar
    12    36    35   ar
    13     2    37    2
    14     2     7    1
    15    38    35    1
    16     8     7    1
    17     8     9    2
    18    37    33   ar
    19    35    34   ar
    20     7     6    2
    21    11     9    1
    22     9    10    1
    23    33    34   ar
    24    33     1    1
    25    34     5    2
    26     6    10    1
    27     6     1    1
    28    10     3    2
    29     5    29    1
    30     1    25    1
    31     1    17    1
    32     3    18    1
    33    29    25    2
    34    29    28    1
    35    25    26    1
    36    18    17   ar
    37    18    19   ar
    38    17    21   ar
    39    31    28    1
    40    31    32    2
    41    28    27    2
    42    26    27    1
    43    26     4    2
    44    19    22    1
    45    19    20   ar
    46    21     4    1
    47    21    20   ar
    48    27    30    1
    49    20    23    1
    50    23    24    2
