@<TRIPOS>MOLECULE
2hhf_PLP_A_1.pdb
 15 15 0 0 0
SMALL
GASTEIGER

@<TRIPOS>ATOM
      1  N1        13.0820   -9.4840   18.9800 N.ar  400  PLP400     -0.2452
      2  C2        13.4800   -8.4290   18.2350 C.ar  400  PLP400      0.0978
      3  C2A       12.3840   -7.5250   17.5970 C.3   400  PLP400      0.0555
      4  C3        14.8560   -8.1950   18.0680 C.ar  400  PLP400      0.2049
      5  O3        15.2450   -7.1540   17.3350 O.3   400  PLP400     -0.2857
      6  C4        15.8150   -9.0450   18.6600 C.ar  400  PLP400      0.0182
      7  C4A       17.3390   -8.7590   18.4350 C.3   400  PLP400      0.0342
      8  C5        15.3330  -10.1340   19.4430 C.ar  400  PLP400      0.0261
      9  C6        13.9850  -10.3240   19.5820 C.ar  400  PLP400      0.0965
     10  C5A       16.1940  -11.0860   20.1990 C.3   400  PLP400      0.1815
     11  O4P       17.2060  -11.6870   19.4880 O.3   400  PLP400     -0.2653
     12  P         18.4870  -12.2040   20.2250 P.3   400  PLP400      0.5329
     13  O1P       19.3500  -11.1260   20.6340 O.3   400  PLP400     -0.1145
     14  O2P       19.1760  -12.9160   19.0570 O.2   400  PLP400     -0.2224
     15  O3P       18.0790  -13.2450   21.1990 O.3   400  PLP400     -0.1145
@<TRIPOS>BOND
     1     5     4    1
     2     3     2    1
     3     4     2   ar
     4     4     6   ar
     5     2     1   ar
     6     7     6    1
     7     6     8   ar
     8     1     9   ar
     9    14    12    2
    10     8     9   ar
    11     8    10    1
    12    11    10    1
    13    11    12    1
    14    12    13    1
    15    12    15    1
