@<TRIPOS>MOLECULE
2hhj_DG2_A_1.pdb
 15 14 0 0 0
SMALL
GASTEIGER

@<TRIPOS>ATOM
      1  C3        40.5710   31.3570   69.3950 C.3   2201  DG22201     0.2583
      2  C4        41.0450   32.1680   68.1870 C.3   2201  DG22201     0.1954
      3  O2        40.0000   32.2350   70.3690 O.3   2201  DG22201    -0.2584
      4  O5        41.5320   31.3100   67.1520 O.3   2201  DG22201    -0.2670
      5  O7        38.4050   30.7770   68.6020 O.co2 2201  DG22201    -0.2428
      6  O8        39.8830   29.1400   68.9070 O.co2 2201  DG22201    -0.2428
      7  O9        39.6630   32.1440   72.9310 O.3   2201  DG22201    -0.1145
      8  O10       41.9340   31.4870   71.9330 O.3   2201  DG22201    -0.1145
      9  O11       41.1820   33.9340   71.9050 O.2   2201  DG22201    -0.2224
     10  P1        40.7190   32.5330   71.7800 P.3   2201  DG22201     0.5331
     11  C7        39.5270   30.3370   68.9340 C.2   2201  DG22201     0.3945
     12  P6        42.1080   31.9360   65.7850 P.3   2201  DG22201     0.5327
     13  O15       40.9310   32.8240   65.1390 O.3   2201  DG22201    -0.1145
     14  O14       43.2680   32.9600   66.2280 O.3   2201  DG22201    -0.1145
     15  O13       42.6030   30.8870   64.8660 O.2   2201  DG22201    -0.2224
@<TRIPOS>BOND
     1    15    12    2
     2    13    12    1
     3    12    14    1
     4    12     4    1
     5     4     2    1
     6     2     1    1
     7     5    11   ar
     8     6    11   ar
     9    11     1    1
    10     1     3    1
    11     3    10    1
    12    10     9    2
    13    10     8    1
    14    10     7    1
