@<TRIPOS>MOLECULE
2hhk_U10_L_1.pdb
 48 48 0 0 0
SMALL
GASTEIGER

@<TRIPOS>ATOM
      1  C1        46.7010   67.3750   64.5190 C.2   502  U10502      0.0198
      2  C2        46.4290   66.5400   65.7310 C.2   502  U10502      0.2282
      3  C3        45.1550   65.9120   65.9270 C.2   502  U10502      0.2140
      4  C4        44.2120   66.0630   64.9680 C.2   502  U10502      0.2140
      5  C5        44.4240   66.8920   63.7950 C.2   502  U10502      0.2285
      6  C6        45.7150   67.5430   63.5720 C.2   502  U10502      0.0235
      7  C1M       48.0260   68.0430   64.3410 C.3   502  U10502      0.0343
      8  C3M       44.6950   65.5700   68.4790 C.3   502  U10502      0.2528
      9  C4M       42.2000   66.2160   66.1700 C.3   502  U10502      0.2528
     10  C7        45.8110   68.3680   62.2990 C.3   502  U10502      0.0548
     11  C8        46.3260   67.6140   61.1050 C.2   502  U10502     -0.0298
     12  C9        45.9970   67.8770   59.8280 C.2   502  U10502     -0.0475
     13  C10       45.0230   68.9290   59.4210 C.3   502  U10502      0.0260
     14  C11       46.6460   67.0810   58.7030 C.3   502  U10502      0.0264
     15  C12       47.9630   67.7410   58.3220 C.3   502  U10502      0.0297
     16  C13       48.6220   67.2240   57.0420 C.2   502  U10502     -0.0342
     17  C14       50.0110   67.2470   56.9290 C.2   502  U10502     -0.0478
     18  C15       50.8890   67.7590   58.0490 C.3   502  U10502      0.0260
     19  C16       50.7530   66.7740   55.6970 C.3   502  U10502      0.0263
     20  C17       50.0570   65.6620   54.9220 C.3   502  U10502      0.0297
     21  C18       50.9190   65.3530   53.7260 C.2   502  U10502     -0.0342
     22  C19       50.9460   64.1610   53.0820 C.2   502  U10502     -0.0478
     23  C20       50.1130   62.9790   53.4750 C.3   502  U10502      0.0260
     24  C21       51.8430   63.9430   51.9020 C.3   502  U10502      0.0263
     25  C22       52.4360   65.2420   51.3490 C.3   502  U10502      0.0297
     26  C23       53.8380   65.4040   51.9000 C.2   502  U10502     -0.0342
     27  C24       54.9040   64.9850   51.1990 C.2   502  U10502     -0.0478
     28  C25       56.2220   65.1740   51.8420 C.3   502  U10502      0.0260
     29  C26       54.7320   64.3340   49.8400 C.3   502  U10502      0.0263
     30  C27       56.0070   63.9960   49.0680 C.3   502  U10502      0.0297
     31  C28       56.5460   65.2880   48.4890 C.2   502  U10502     -0.0342
     32  C29       56.6110   65.5340   47.1780 C.2   502  U10502     -0.0478
     33  C30       56.1190   64.4950   46.1880 C.3   502  U10502      0.0260
     34  C31       57.1570   66.8830   46.6910 C.3   502  U10502      0.0263
     35  C32       58.6800   66.9910   46.6290 C.3   502  U10502      0.0297
     36  C33       59.3610   66.1600   45.5500 C.2   502  U10502     -0.0342
     37  C34       59.6780   66.5770   44.2750 C.2   502  U10502     -0.0478
     38  C35       59.3600   67.9530   43.7540 C.3   502  U10502      0.0260
     39  C36       60.4140   65.6260   43.3460 C.3   502  U10502      0.0263
     40  C37       59.6030   65.1470   42.1550 C.3   502  U10502      0.0297
     41  C38       59.8370   63.6640   41.9330 C.2   502  U10502     -0.0342
     42  C39       59.8280   63.0910   40.7120 C.2   502  U10502     -0.0478
     43  C40       59.6010   63.8830   39.4440 C.3   502  U10502      0.0260
     44  C41       60.0650   61.5970   40.6160 C.3   502  U10502      0.0260
     45  O2        47.1970   66.3210   66.6580 O.2   502  U10502     -0.2836
     46  O3        44.8760   65.1090   67.1210 O.2   502  U10502     -0.4652
     47  O4        42.9270   65.4830   65.1900 O.2   502  U10502     -0.4652
     48  O5        43.5030   67.0280   62.9940 O.2   502  U10502     -0.2835
@<TRIPOS>BOND
     1    43    42    1
     2    44    42    1
     3    42    41    2
     4    41    40    1
     5    40    39    1
     6    39    37    1
     7    38    37    1
     8    37    36    2
     9    36    35    1
    10    33    32    1
    11    35    34    1
    12    34    32    1
    13    32    31    2
    14    31    30    1
    15    30    29    1
    16    29    27    1
    17    27    28    1
    18    27    26    2
    19    25    26    1
    20    25    24    1
    21    24    22    1
    22    22    23    1
    23    22    21    2
    24    21    20    1
    25    20    19    1
    26    19    17    1
    27    17    16    2
    28    17    18    1
    29    16    15    1
    30    15    14    1
    31    14    12    1
    32    13    12    1
    33    12    11    2
    34    11    10    1
    35    10     6    1
    36    48     5    2
    37     6     5    1
    38     6     1    2
    39     5     4    1
    40     7     1    1
    41     1     2    1
    42     4    47    1
    43     4     3    2
    44    47     9    1
    45     2     3    1
    46     2    45    2
    47     3    46    1
    48    46     8    1
