@<TRIPOS>MOLECULE
2hhn_GNQ_B_1.pdb
 39 41 0 0 0
SMALL
GASTEIGER

@<TRIPOS>ATOM
      1  O5        34.1220   27.9400   19.3370 O.2   901  GNQ901     -0.1726
      2  S         33.9880   28.4750   18.0000 S.O2  901  GNQ901     -0.0036
      3  O4        34.0520   29.9080   17.8990 O.2   901  GNQ901     -0.1726
      4  C17       32.6020   27.8750   17.2930 C.3   901  GNQ901      0.1772
      5  C18       31.3200   28.3370   17.9180 C.ar  901  GNQ901      0.0013
      6  C20       30.7470   29.5180   17.4540 C.ar  901  GNQ901     -0.0026
      7  C21       29.5420   29.9710   17.9850 C.ar  901  GNQ901     -0.0003
      8  C22       28.9300   29.2080   18.9620 C.ar  901  GNQ901     -0.0000
      9  C23       29.5020   28.0230   19.4190 C.ar  901  GNQ901     -0.0003
     10  C19       30.7110   27.5610   18.8970 C.ar  901  GNQ901     -0.0026
     11  C16       35.2280   27.7880   17.1020 C.3   901  GNQ901      0.1822
     12  CA        35.5670   28.5690   15.8250 C.3   901  GNQ901      0.1977
     13  N         34.5390   28.3870   14.7760 N.am  901  GNQ901     -0.1789
     14  C11       34.6030   29.1490   13.6610 C.2   901  GNQ901      0.3238
     15  O3        35.5030   29.9920   13.5350 O.2   901  GNQ901     -0.2508
     16  N3        33.7260   28.9910   12.6560 N.am  901  GNQ901     -0.2577
     17  C15       33.8170   29.8720   11.4820 C.3   901  GNQ901      0.1271
     18  C14       33.5300   29.0900   10.2090 C.3   901  GNQ901      0.1637
     19  O2        32.2310   28.5240   10.3400 O.3   901  GNQ901     -0.3501
     20  C13       32.2790   27.4860   11.3390 C.3   901  GNQ901      0.1637
     21  C12       32.5760   28.0830   12.7180 C.3   901  GNQ901      0.1271
     22  C         36.8460   28.0560   15.2090 C.2   901  GNQ901      0.2631
     23  O         36.8530   26.9900   14.6090 O.2   901  GNQ901     -0.2714
     24  N2        37.9390   28.8090   15.3160 N.am  901  GNQ901     -0.2039
     25  C9        39.1680   28.3760   14.6600 C.3   901  GNQ901      0.1169
     26  C10       39.2250   29.1560   13.3420 C.3   901  GNQ901      0.0253
     27  C8        40.3760   28.6320   15.5440 C.3   901  GNQ901      0.1337
     28  N1        41.2080   29.5600   14.7840 N.pl3 901  GNQ901     -0.2358
     29  C7        42.5290   29.6450   15.0440 C.ar  901  GNQ901      0.0656
     30  C6        42.9240   29.4380   16.3410 C.ar  901  GNQ901      0.0192
     31  C5        44.2510   29.5220   16.6440 C.ar  901  GNQ901      0.0385
     32  C4        43.4830   29.9300   14.0630 C.ar  901  GNQ901      0.0192
     33  C3        44.8400   30.0120   14.4000 C.ar  901  GNQ901      0.0385
     34  C2        45.2510   29.7860   15.7140 C.ar  901  GNQ901      0.1469
     35  O1        46.5770   29.8530   16.1350 O.3   901  GNQ901     -0.4045
     36  C1        47.6720   28.9570   15.8070 C.3   901  GNQ901      0.5753
     37  F1        47.5130   27.7430   16.3110 F     901  GNQ901     -0.1328
     38  F2        47.7860   28.8460   14.4970 F     901  GNQ901     -0.1328
     39  F3        48.8070   29.4480   16.2940 F     901  GNQ901     -0.1328
@<TRIPOS>BOND
     1    18    19    1
     2    18    17    1
     3    19    20    1
     4    20    21    1
     5    17    16    1
     6    16    21    1
     7    16    14   am
     8    26    25    1
     9    15    14    2
    10    14    13   am
    11    32    33   ar
    12    32    29   ar
    13    33    34   ar
    14    38    36    1
    15    23    22    2
    16    25    24    1
    17    25    27    1
    18    13    12    1
    19    28    29    1
    20    28    27    1
    21    29    30   ar
    22    22    24   am
    23    22    12    1
    24    34    35    1
    25    34    31   ar
    26    36    35    1
    27    36    39    1
    28    36    37    1
    29    12    11    1
    30    30    31   ar
    31    11     2    1
    32     4     5    1
    33     4     2    1
    34     6     5   ar
    35     6     7   ar
    36     3     2    2
    37     5    10   ar
    38     7     8   ar
    39     2     1    2
    40    10     9   ar
    41     8     9   ar
