@<TRIPOS>MOLECULE
2hhp_FLC_A_1.pdb
 13 12 0 0 0
SMALL
GASTEIGER

@<TRIPOS>ATOM
      1  CAC      -21.6100    2.4310   -8.5630 C.2   531  FLC531      0.3680
      2  CA       -22.9920    2.5830   -7.9510 C.3   531  FLC531      0.1560
      3  CB       -23.1720    3.6360   -6.8460 C.3   531  FLC531      0.2402
      4  CBC      -23.2960    5.0540   -7.4040 C.2   531  FLC531      0.3927
      5  CG       -24.4540    3.3230   -6.0590 C.3   531  FLC531      0.1560
      6  CGC      -24.4050    2.1220   -5.1320 C.2   531  FLC531      0.3680
      7  OA1      -20.7230    3.2830   -8.3310 O.co2 531  FLC531     -0.2455
      8  OA2      -21.3950    1.4390   -9.2980 O.co2 531  FLC531     -0.2455
      9  OB1      -22.5500    5.4330   -8.3430 O.co2 531  FLC531     -0.2429
     10  OB2      -24.1440    5.8400   -6.9030 O.co2 531  FLC531     -0.2429
     11  OG1      -25.3230    1.2710   -5.2090 O.co2 531  FLC531     -0.2455
     12  OG2      -23.4780    2.0330   -4.3050 O.co2 531  FLC531     -0.2455
     13  OHB      -22.0450    3.5930   -5.9580 O.3   531  FLC531     -0.2129
@<TRIPOS>BOND
     1     8     1   ar
     2     1     7   ar
     3     1     2    1
     4     9     4   ar
     5     2     3    1
     6     4    10   ar
     7     4     3    1
     8     3     5    1
     9     3    13    1
    10     5     6    1
    11    11     6   ar
    12     6    12   ar
