@<TRIPOS>MOLECULE
2hhu_DCP_A_1.pdb
 28 29 0 0 0
SMALL
GASTEIGER

@<TRIPOS>ATOM
      1  N1        -7.7070   35.1830   23.2350 N.am  113  DCP113     -0.1802
      2  C2        -7.1860   34.3750   22.2040 C.1   113  DCP113      0.2756
      3  N3        -8.0630   33.6360   21.3890 N.2   113  DCP113     -0.3024
      4  C4        -9.4580   33.7020   21.6010 C.2   113  DCP113      0.2346
      5  C5        -9.9820   34.5040   22.6240 C.2   113  DCP113      0.0687
      6  C6        -9.1110   35.2420   23.4390 C.2   113  DCP113      0.0835
      7  O2        -5.9750   34.3130   22.0210 O.2   113  DCP113     -0.1925
      8  N4       -10.2750   32.9920   20.8250 N.pl3 113  DCP113     -0.0921
      9  C1'       -6.7690   35.9500   24.1110 C.3   113  DCP113      0.2090
     10  C2'       -6.3380   37.2430   23.4030 C.3   113  DCP113      0.0874
     11  C3'       -7.3900   38.2190   23.8360 C.3   113  DCP113      0.1857
     12  C4'       -7.6020   37.8490   25.2860 C.3   113  DCP113      0.1773
     13  O4'       -7.4880   36.3920   25.3220 O.3   113  DCP113     -0.3339
     14  O3'       -6.8730   39.5520   23.7510 O.3   113  DCP113     -0.2203
     15  C5'       -8.9290   38.3610   25.8380 C.3   113  DCP113      0.1812
     16  O5'      -10.0320   37.7820   25.1360 O.3   113  DCP113     -0.3112
     17  PA       -11.5180   38.3430   25.3730 P.3   113  DCP113      0.2189
     18  O1A      -11.5010   39.8200   25.2700 O.3   113  DCP113     -0.4371
     19  O2A      -12.4640   37.5880   24.5160 O.2   113  DCP113     -0.5170
     20  O3A      -11.8100   37.9360   26.9070 O.3   113  DCP113     -0.2700
     21  PB       -12.5160   36.5280   27.2700 P.3   113  DCP113      0.2277
     22  O1B      -11.5000   35.6350   26.6570 O.2   113  DCP113     -0.5168
     23  O2B      -13.8370   36.8320   26.6890 O.3   113  DCP113     -0.4368
     24  O3B      -12.3210   36.7830   28.8630 O.3   113  DCP113     -0.2258
     25  PG       -11.1160   36.0730   29.6760 P.3   113  DCP113      0.5373
     26  O1G      -11.2750   36.3510   31.1210 O.3   113  DCP113     -0.1143
     27  O2G      -10.9940   34.6590   29.2410 O.3   113  DCP113     -0.1143
     28  O3G       -9.8170   36.8610   29.1430 O.2   113  DCP113     -0.2221
@<TRIPOS>BOND
     1     8     4    1
     2     3     4    2
     3     3     2    2
     4     4     5    1
     5     7     2    2
     6     2     1   am
     7     5     6    2
     8     1     6    1
     9     1     9    1
    10    10    11    1
    11    10     9    1
    12    14    11    1
    13    11    12    1
    14     9    13    1
    15    19    17    2
    16    16    17    1
    17    16    15    1
    18    18    17    1
    19    12    13    1
    20    12    15    1
    21    17    20    1
    22    22    21    2
    23    23    21    1
    24    20    21    1
    25    21    24    1
    26    24    25    1
    27    28    25    2
    28    27    25    1
    29    25    26    1
