@<TRIPOS>MOLECULE
2hhw_23T_A_1.pdb
 28 29 0 0 0
SMALL
GASTEIGER

@<TRIPOS>ATOM
      1  PA       128.8760  -26.8290   42.2540 P.3   881  23T881      0.2189
      2  O1A      129.7220  -27.8840   42.8550 O.2   881  23T881     -0.5170
      3  O2A      127.8190  -26.2210   43.3040 O.3   881  23T881     -0.4371
      4  O5'      128.0140  -27.3370   40.9920 O.3   881  23T881     -0.3113
      5  C5'      128.6700  -27.9730   39.8920 C.3   881  23T881      0.1785
      6  C4'      128.3080  -27.2840   38.5750 C.3   881  23T881      0.1472
      7  O4'      126.8890  -27.2700   38.3410 O.3   881  23T881     -0.3366
      8  C1'      126.5790  -26.0650   37.6180 C.3   881  23T881      0.2063
      9  N1       125.8170  -25.1440   38.4910 N.am  881  23T881     -0.1795
     10  C6       125.8520  -25.2740   39.8850 C.2   881  23T881      0.0877
     11  C2       125.0990  -24.0950   37.9050 C.1   881  23T881      0.2844
     12  O2       125.0470  -23.9970   36.6800 O.2   881  23T881     -0.1918
     13  N3       124.4310  -23.1700   38.7140 N.2   881  23T881     -0.2455
     14  C4       124.4860  -23.3000   40.1080 C.1   881  23T881      0.2134
     15  O4       123.9320  -22.4620   40.8170 O.2   881  23T881     -0.2088
     16  C5       125.1880  -24.3510   40.6860 C.2   881  23T881      0.0891
     17  C5M      125.2220  -24.5020   42.2090 C.3   881  23T881      0.0462
     18  C2'      127.9330  -25.4230   37.3020 C.3   881  23T881      0.0545
     19  C3'      128.7060  -25.8100   38.5610 C.3   881  23T881      0.0366
     20  O3A      129.7290  -25.5690   41.7230 O.3   881  23T881     -0.2700
     21  PB       131.3220  -25.4360   41.9340 P.3   881  23T881      0.2277
     22  O1B      131.4560  -24.2150   40.8920 O.2   881  23T881     -0.5168
     23  O2B      131.7720  -26.8070   41.6100 O.3   881  23T881     -0.4368
     24  O3B      131.2020  -24.9070   43.4500 O.3   881  23T881     -0.2258
     25  PG       132.0760  -25.5710   44.6280 P.3   881  23T881      0.5373
     26  O1G      133.5470  -24.9310   44.4910 O.3   881  23T881     -0.1143
     27  O2G      132.2280  -27.1330   44.2690 O.2   881  23T881     -0.2221
     28  O3G      131.4730  -25.3490   45.9610 O.3   881  23T881     -0.1143
@<TRIPOS>BOND
     1    12    11    2
     2    18     8    1
     3    18    19    1
     4     8     7    1
     5     8     9    1
     6    11     9   am
     7    11    13    2
     8     7     6    1
     9     9    10    1
    10    19     6    1
    11     6     5    1
    12    13    14    2
    13    10    16    2
    14     5     4    1
    15    14    16    1
    16    14    15    2
    17    16    17    1
    18    22    21    2
    19     4     1    1
    20    23    21    1
    21    20    21    1
    22    20     1    1
    23    21    24    1
    24     1     2    2
    25     1     3    1
    26    24    25    1
    27    27    25    2
    28    26    25    1
    29    25    28    1
