@<TRIPOS>MOLECULE
2hi2_DT6_A_1.pdb
 17 17 0 0 0
SMALL
GASTEIGER

@<TRIPOS>ATOM
      1  C1         3.8050   46.4110    6.6320 C.3   161  DT6161      0.1664
      2  C2         3.0710   46.1680    5.2960 C.3   161  DT6161      0.1568
      3  N2         2.8420   47.4320    4.6220 N.am  161  DT6161     -0.2019
      4  N3         0.8840   43.2910    6.5280 N.am  161  DT6161     -0.2019
      5  C7         3.1810   47.5690    3.3420 C.2   161  DT6161      0.2420
      6  O7         3.6610   46.6470    2.6740 O.2   161  DT6161     -0.2733
      7  O8         1.7060   41.3830    5.5970 O.2   161  DT6161     -0.2733
      8  C8         2.9250   48.9350    2.7220 C.3   161  DT6161      0.0964
      9  C9         0.7950   42.0010    6.1700 C.2   161  DT6161      0.2420
     10  C10       -0.5220   41.3050    6.5090 C.3   161  DT6161      0.0964
     11  C3         1.7500   45.3970    5.5340 C.3   161  DT6161      0.1965
     12  O3         1.0800   45.1270    4.2750 O.3   161  DT6161     -0.2193
     13  C4         2.0860   44.0760    6.2610 C.3   161  DT6161      0.1569
     14  C5         2.8300   44.4070    7.5710 C.3   161  DT6161      0.1705
     15  O5         4.0490   45.1500    7.2930 O.3   161  DT6161     -0.3498
     16  C6         3.2340   43.1750    8.3370 C.3   161  DT6161      0.2133
     17  O6         2.1150   42.6000    8.9870 O.3   161  DT6161     -0.2176
@<TRIPOS>BOND
     1     6     5    2
     2     8     5    1
     3     5     3   am
     4    12    11    1
     5     3     2    1
     6     2    11    1
     7     2     1    1
     8    11    13    1
     9     7     9    2
    10     9    10    1
    11     9     4   am
    12    13     4    1
    13    13    14    1
    14     1    15    1
    15    15    14    1
    16    14    16    1
    17    16    17    1
