@<TRIPOS>MOLECULE
2hi4_BHF_A_1.pdb
 21 24 0 0 0
SMALL
GASTEIGER

@<TRIPOS>ATOM
      1  C8         3.9650   16.7450   21.6010 C.ar  800  BHF800      0.0796
      2  C9         2.9920   15.7620   21.4290 C.ar  800  BHF800      0.2016
      3  O2         3.0940   14.7420   22.1110 O.2   800  BHF800     -0.2864
      4  C10        1.8730   16.0040   20.6260 C.ar  800  BHF800      0.0735
      5  C11        0.9080   15.0350   20.3670 C.ar  800  BHF800      0.0062
      6  C12       -0.1310   15.3030   19.4760 C.ar  800  BHF800      0.0003
      7  C13       -0.2160   16.5300   18.8240 C.ar  800  BHF800      0.0029
      8  C14       -1.2200   16.7780   17.8880 C.ar  800  BHF800      0.0001
      9  C15       -1.2650   18.0070   17.2320 C.ar  800  BHF800      0.0000
     10  C16       -0.3200   18.9940   17.5100 C.ar  800  BHF800      0.0001
     11  C17        0.6870   18.7450   18.4420 C.ar  800  BHF800      0.0030
     12  C18        0.7360   17.5120   19.0910 C.ar  800  BHF800      0.0347
     13  C19        1.7600   17.2370   19.9930 C.ar  800  BHF800      0.1482
     14  O1         2.6110   18.2330   20.3460 O.2   800  BHF800     -0.4533
     15  C7         3.7860   17.9790   20.9830 C.ar  800  BHF800      0.1484
     16  C1         4.6840   19.0340   21.0900 C.ar  800  BHF800      0.0347
     17  C2         5.8140   18.9580   21.9010 C.ar  800  BHF800      0.0030
     18  C3         6.6130   20.0910   22.0220 C.ar  800  BHF800      0.0001
     19  C4         6.3080   21.2740   21.3560 C.ar  800  BHF800      0.0000
     20  C5         5.1790   21.3400   20.5440 C.ar  800  BHF800      0.0001
     21  C6         4.3750   20.2120   20.4190 C.ar  800  BHF800      0.0030
@<TRIPOS>BOND
     1     9    10   ar
     2     9     8   ar
     3    10    11   ar
     4     8     7   ar
     5    11    12   ar
     6     7    12   ar
     7     7     6   ar
     8    12    13   ar
     9     6     5   ar
    10    13    14   ar
    11    13     4   ar
    12    14    15   ar
    13     5     4   ar
    14    21    20   ar
    15    21    16   ar
    16    20    19   ar
    17     4     2   ar
    18    15    16    1
    19    15     1   ar
    20    16    17   ar
    21    19    18   ar
    22     2     1   ar
    23     2     3    2
    24    17    18   ar
