@<TRIPOS>MOLECULE
2hi4_HEM_A_1.pdb
 43 50 0 0 0
SMALL
GASTEIGER

@<TRIPOS>ATOM
      1 FE          4.9160   24.9970   23.9080 Fe    900  HEM900      0.0000
      2  CHA        5.2990   25.5880   20.4970 C.2   900  HEM900      0.0000
      3  CHB        8.1810   24.4350   24.1630 C.2   900  HEM900      0.0000
      4  CHC        4.5320   24.0690   27.1820 C.2   900  HEM900      0.0000
      5  CHD        1.7430   24.8320   23.4530 C.2   900  HEM900      0.0000
      6  NA         6.5090   25.0700   22.5760 N.2   900  HEM900      0.0000
      7  C1A        6.4790   25.3360   21.2110 C.2   900  HEM900      0.0000
      8  C2A        7.8190   25.3410   20.6940 C.2   900  HEM900      0.0000
      9  C3A        8.6560   25.0820   21.7840 C.2   900  HEM900      0.0000
     10  C4A        7.7860   24.9180   22.9170 C.2   900  HEM900      0.0000
     11  CMA       10.2610   24.9950   21.7700 C.3   900  HEM900      0.0000
     12  CAA        8.2700   25.5850   19.2740 C.3   900  HEM900      0.0000
     13  CBA        8.5860   27.0180   18.8670 C.3   900  HEM900      0.0000
     14  CGA        9.1290   27.0440   17.4180 C.2   900  HEM900      0.0000
     15  O1A        9.9800   27.8390   17.0880 O.co2 900  HEM900      0.0000
     16  O2A        8.7710   26.2450   16.5850 O.co2 900  HEM900      0.0000
     17  NB         6.1560   24.2480   25.4440 N.ar  900  HEM900      0.0000
     18  C1B        7.5010   24.1910   25.3530 C.ar  900  HEM900      0.0000
     19  C2B        8.1050   23.8060   26.5880 C.ar  900  HEM900      0.0000
     20  C3B        7.0200   23.6170   27.4710 C.ar  900  HEM900      0.0000
     21  C4B        5.8360   23.9190   26.6850 C.ar  900  HEM900      0.0000
     22  CMB        9.6190   23.6600   26.8390 C.3   900  HEM900      0.0000
     23  CAB        7.0260   23.2290   28.8230 C.3   900  HEM900      0.0000
     24  CBB        8.1320   23.1550   29.8290 C.3   900  HEM900      0.0000
     25  NC         3.3630   24.4140   25.1650 N.2   900  HEM900      0.0000
     26  C1C        3.3770   24.3330   26.4810 C.2   900  HEM900      0.0000
     27  C2C        2.1030   24.2600   26.9930 C.2   900  HEM900      0.0000
     28  C3C        1.2340   24.3100   25.8660 C.2   900  HEM900      0.0000
     29  C4C        2.1010   24.4050   24.7500 C.2   900  HEM900      0.0000
     30  CMC        1.7630   24.1530   28.5150 C.3   900  HEM900      0.0000
     31  CAC       -0.1430   24.2840   25.7030 C.3   900  HEM900      0.0000
     32  CBC       -1.1220   24.4650   26.6570 C.3   900  HEM900      0.0000
     33  ND         3.6970   25.0430   22.1850 N.ar  900  HEM900      0.0000
     34  C1D        2.4180   24.9280   22.2820 C.ar  900  HEM900      0.0000
     35  C2D        1.8100   25.1480   21.0120 C.ar  900  HEM900      0.0000
     36  C3D        2.8200   25.4120   20.1390 C.ar  900  HEM900      0.0000
     37  C4D        3.9980   25.3270   20.9310 C.ar  900  HEM900      0.0000
     38  CMD        0.2980   25.0880   20.6880 C.3   900  HEM900      0.0000
     39  CAD        2.7920   25.7390   18.6180 C.3   900  HEM900      0.0000
     40  CBD        2.7120   27.3010   18.3350 C.3   900  HEM900      0.0000
     41  CGD        2.7590   27.7460   16.8150 C.2   900  HEM900      0.0000
     42  O1D        2.3810   28.9210   16.4360 O.co2 900  HEM900      0.0000
     43  O2D        3.2250   26.8720   15.9620 O.co2 900  HEM900      0.0000
@<TRIPOS>BOND
     1    43    41   ar
     2    42    41   ar
     3    16    14   ar
     4    41    40    1
     5    15    14   ar
     6    14    13    1
     7    40    39    1
     8    39    36    1
     9    13    12    1
    10    12     8    1
    11    36    37   ar
    12    36    35   ar
    13     2    37    2
    14     2     7    1
    15    38    35    1
    16     8     7    1
    17     8     9    2
    18    37    33   ar
    19    35    34   ar
    20     7     6    2
    21    11     9    1
    22     9    10    1
    23    33    34   ar
    24    33     1    1
    25    34     5    2
    26     6    10    1
    27     6     1    1
    28    10     3    2
    29     5    29    1
    30     1    25    1
    31     1    17    1
    32     3    18    1
    33    29    25    2
    34    29    28    1
    35    25    26    1
    36    18    17   ar
    37    18    19   ar
    38    17    21   ar
    39    31    28    1
    40    31    32    1
    41    28    27    2
    42    26    27    1
    43    26     4    2
    44    19    22    1
    45    19    20   ar
    46    21     4    1
    47    21    20   ar
    48    27    30    1
    49    20    23    1
    50    23    24    1
