@<TRIPOS>MOLECULE
2hi7_UQ1_B_1.pdb
 18 18 0 0 0
SMALL
GASTEIGER

@<TRIPOS>ATOM
      1  C1         3.5050   34.4390   19.1920 C.2   501  UQ1501      0.2285
      2  O1         2.8040   33.5420   19.6970 O.2   501  UQ1501     -0.2835
      3  C2         4.9110   34.1110   18.8590 C.2   501  UQ1501      0.2140
      4  O2         5.3470   32.8350   19.1090 O.2   501  UQ1501     -0.4652
      5  CM2        5.3980   32.3140   20.4380 C.3   501  UQ1501      0.2528
      6  C3         5.8020   35.1510   18.2540 C.2   501  UQ1501      0.2140
      7  O3         7.1190   34.8990   17.9300 O.2   501  UQ1501     -0.4652
      8  CM3        7.4700   34.0210   16.8610 C.3   501  UQ1501      0.2528
      9  C4         5.2620   36.5160   18.0040 C.2   501  UQ1501      0.2282
     10  O4         6.0220   37.3800   17.5050 O.2   501  UQ1501     -0.2836
     11  C5         3.8420   36.8430   18.3510 C.2   501  UQ1501      0.0198
     12  CM5        3.2860   38.2250   18.0980 C.3   501  UQ1501      0.0343
     13  C6         2.9520   35.8010   18.9440 C.2   501  UQ1501      0.0235
     14  C7         1.5070   36.1510   19.2850 C.3   501  UQ1501      0.0548
     15  C8         0.5250   35.1490   18.7070 C.2   501  UQ1501     -0.0298
     16  C9        -0.7280   35.4550   18.3260 C.2   501  UQ1501     -0.0475
     17  C10       -1.5970   34.3650   17.7690 C.3   501  UQ1501      0.0260
     18  C11       -1.2710   36.8530   18.4370 C.3   501  UQ1501      0.0260
@<TRIPOS>BOND
     1     8     7    1
     2    10     9    2
     3    17    16    1
     4     7     6    1
     5     9     6    1
     6     9    11    1
     7    12    11    1
     8     6     3    2
     9    16    18    1
    10    16    15    2
    11    11    13    2
    12    15    14    1
    13     3     4    1
    14     3     1    1
    15    13     1    1
    16    13    14    1
    17     4     5    1
    18     1     2    2
