@<TRIPOS>MOLECULE
2hi8_III_P_1.pdb
 38 38 0 0 0
SMALL
GASTEIGER

@<TRIPOS>ATOM
      1  N         29.5820   47.3530   26.2760 N.3     1  CYS1       -0.1221
      2  CA        29.6600   45.9320   25.8270 C.3     1  CYS1        0.1808
      3  C         29.2560   44.9910   26.9490 C.2     1  CYS1        0.2602
      4  O         28.7640   43.8900   26.7120 O.2     1  CYS1       -0.2717
      5  CB        31.0640   45.6210   25.3360 C.3     1  CYS1        0.0970
      6  SG        31.5010   46.6940   23.9800 S.3     1  CYS1       -0.0800
      7  N         29.4800   45.4450   28.1720 N.am    2  THR2       -0.1939
      8  CA        28.9100   44.8230   29.3540 C.3     2  THR2        0.2013
      9  C         28.5760   45.9590   30.3070 C.2     2  THR2        0.2484
     10  O         29.4220   46.8140   30.5750 O.2     2  THR2       -0.2729
     11  CB        29.9060   43.8570   30.0390 C.3     2  THR2        0.1807
     12  OG1       30.1380   42.7150   29.2050 O.3     2  THR2       -0.2208
     13  CG2       29.3700   43.3960   31.3900 C.3     2  THR2        0.0379
     14  N         27.3460   45.9800   30.8250 N.am    3  PRO3       -0.2715
     15  CA        27.0290   47.0220   31.7770 C.3     3  PRO3        0.1536
     16  C         27.7000   46.7370   33.0980 C.2     3  PRO3        0.2599
     17  O         27.8310   45.5740   33.4840 O.2     3  PRO3       -0.2715
     18  CB        25.5110   46.9060   31.9500 C.3     3  PRO3        0.0310
     19  CG        25.0530   45.9430   30.9400 C.3     3  PRO3        0.0237
     20  CD        26.2110   45.0770   30.6070 C.3     3  PRO3        0.0939
     21  N         28.1200   47.7840   33.7930 N.am    4  SER4       -0.1936
     22  CA        28.5860   47.6040   35.1510 C.3     4  SER4        0.2055
     23  C         27.3880   47.4880   36.0790 C.2     4  SER4        0.2644
     24  O         26.3190   48.0490   35.8210 O.2     4  SER4       -0.2714
     25  CB        29.5010   48.7430   35.5940 C.3     4  SER4        0.2130
     26  OG        30.7940   48.5960   35.0400 O.3     4  SER4       -0.2179
     27  N         27.5810   46.7380   37.1550 N.am    5  ARG5       -0.1941
     28  CA        26.5470   46.5380   38.1510 C.3     5  ARG5        0.1979
     29  C         26.0940   47.8830   38.6920 C.2     5  ARG5        0.3842
     30  O         26.9260   48.6950   39.0900 O.co2   5  ARG5       -0.2437
     31  CB        27.0890   45.6800   39.2880 C.3     5  ARG5        0.0370
     32  CG        26.1120   45.4520   40.4150 C.3     5  ARG5        0.0493
     33  CD        26.5510   44.2870   41.2530 C.3     5  ARG5        0.2205
     34  NE        26.4620   43.0250   40.5200 N.pl3   5  ARG5       -0.0865
     35  CZ        25.3350   42.3540   40.2910 C.cat   5  ARG5        0.5346
     36  NH1       24.1660   42.8100   40.7220 N.pl3   5  ARG5        0.1354
     37  NH2       25.3790   41.2150   39.6160 N.pl3   5  ARG5        0.1354
     38  OXT       24.8990   48.1750   38.7430 O.co2   5  ARG5       -0.2437
@<TRIPOS>BOND
     1     6     5    1
     2     5     2    1
     3     2     1    1
     4     2     3    1
     5     4     3    2
     6     3     7   am
     7     7     8    1
     8    12    11    1
     9     8    11    1
    10     8     9    1
    11    11    13    1
    12     9    10    2
    13     9    14   am
    14    20    14    1
    15    20    19    1
    16    14    15    1
    17    19    18    1
    18    15    18    1
    19    15    16    1
    20    16    17    2
    21    16    21   am
    22    21    22    1
    23    26    25    1
    24    22    25    1
    25    22    23    1
    26    24    23    2
    27    23    27   am
    28    27    28    1
    29    28    29    1
    30    28    31    1
    31    29    38   ar
    32    29    30   ar
    33    31    32    1
    34    37    35    1
    35    35    34    2
    36    35    36    1
    37    32    33    1
    38    34    33    1
