@<TRIPOS>MOLECULE
2hil_DT6_A_1.pdb
 17 17 0 0 0
SMALL
GASTEIGER

@<TRIPOS>ATOM
      1  C1        17.3590  -19.1590  -10.1610 C.3   161  DT6161      0.1664
      2  C2        18.6400  -19.9710  -10.3710 C.3   161  DT6161      0.1568
      3  N2        19.7740  -19.0730  -10.3850 N.am  161  DT6161     -0.2019
      4  N3        17.1650  -22.3850  -12.8930 N.am  161  DT6161     -0.2019
      5  C7        20.8280  -19.3190   -9.6100 C.2   161  DT6161      0.2420
      6  O7        20.9090  -20.3130   -8.8790 O.2   161  DT6161     -0.2733
      7  O8        16.7870  -24.3740  -11.8920 O.2   161  DT6161     -0.2733
      8  C8        21.9580  -18.3060   -9.6830 C.3   161  DT6161      0.0964
      9  C9        16.9130  -23.6960  -12.9120 C.2   161  DT6161      0.2420
     10  C10       16.7890  -24.3340  -14.2900 C.3   161  DT6161      0.0964
     11  C3        18.5490  -20.7730  -11.6710 C.3   161  DT6161      0.1965
     12  O3        19.7240  -21.5890  -11.8370 O.3   161  DT6161     -0.2193
     13  C4        17.3020  -21.6620  -11.6380 C.3   161  DT6161      0.1569
     14  C5        16.0660  -20.7820  -11.3910 C.3   161  DT6161      0.1705
     15  O5        16.2100  -20.0370  -10.1560 O.3   161  DT6161     -0.3498
     16  C6        14.8060  -21.5940  -11.2740 C.3   161  DT6161      0.2133
     17  O6        14.4840  -22.2080  -12.5120 O.3   161  DT6161     -0.2176
@<TRIPOS>BOND
     1    10     9    1
     2     9     4   am
     3     9     7    2
     4     4    13    1
     5    17    16    1
     6    12    11    1
     7    11    13    1
     8    11     2    1
     9    13    14    1
    10    14    16    1
    11    14    15    1
    12     3     2    1
    13     3     5   am
    14     2     1    1
    15     1    15    1
    16     8     5    1
    17     5     6    2
