@<TRIPOS>MOLECULE
2his_GLC_A_1.pdb
 11 11 0 0 0
SMALL
GASTEIGER

@<TRIPOS>ATOM
      1  C1        20.9740   67.6620   36.0210 C.3   602  GLC602      0.1777
      2  C2        20.5150   68.7660   37.0140 C.3   602  GLC602      0.2141
      3  C3        19.9210   68.0930   38.2450 C.3   602  GLC602      0.2173
      4  C4        18.7750   67.1800   37.7980 C.3   602  GLC602      0.2142
      5  C5        19.2300   66.2270   36.6670 C.3   602  GLC602      0.1810
      6  C6        18.1080   65.3550   36.1020 C.3   602  GLC602      0.2141
      7  O2        21.5220   69.6990   37.4050 O.3   602  GLC602     -0.2176
      8  O3        19.4310   69.0810   39.1400 O.3   602  GLC602     -0.2175
      9  O4        18.3350   66.4190   38.9290 O.3   602  GLC602     -0.2176
     10  O5        19.7870   66.9950   35.5760 O.3   602  GLC602     -0.3481
     11  O6        17.4530   65.9820   35.0020 O.3   602  GLC602     -0.2176
@<TRIPOS>BOND
     1    11     6    1
     2    10     1    1
     3    10     5    1
     4     1     2    1
     5     6     5    1
     6     5     4    1
     7     2     7    1
     8     2     3    1
     9     4     3    1
    10     4     9    1
    11     3     8    1
