@<TRIPOS>MOLECULE
2his_BGC_A_1.pdb
 11 11 0 0 0
SMALL
GASTEIGER

@<TRIPOS>ATOM
      1  C2        16.6430   65.2810   40.1520 C.3   601  BGC601      0.2141
      2  C3        15.1740   64.8780   40.1230 C.3   601  BGC601      0.2173
      3  C4        14.2580   66.0990   39.9010 C.3   601  BGC601      0.2142
      4  C5        14.7880   67.0830   38.8190 C.3   601  BGC601      0.1810
      5  C6        14.0960   68.4430   38.8090 C.3   601  BGC601      0.2141
      6  C1        16.9440   66.1500   38.9570 C.3   601  BGC601      0.1777
      7  O2        17.4650   64.1260   40.0970 O.3   601  BGC601     -0.2176
      8  O3        14.8290   64.2450   41.3530 O.3   601  BGC601     -0.2175
      9  O4        12.9740   65.6250   39.5030 O.3   601  BGC601     -0.2176
     10  O5        16.1870   67.3370   39.0150 O.3   601  BGC601     -0.3481
     11  O6        14.7020   69.3570   39.7260 O.3   601  BGC601     -0.2176
@<TRIPOS>BOND
     1     5     4    1
     2     5    11    1
     3     4    10    1
     4     4     3    1
     5     6    10    1
     6     6     1    1
     7     9     3    1
     8     3     2    1
     9     7     1    1
    10     2     1    1
    11     2     8    1
