@<TRIPOS>MOLECULE
2hit_U10_L_1.pdb
 48 48 0 0 0
SMALL
GASTEIGER

@<TRIPOS>ATOM
      1  C1        11.9380  113.7560   33.9170 C.2   502  U10502      0.0198
      2  C2        11.0960  113.5910   35.1260 C.2   502  U10502      0.2282
      3  C3        10.0070  114.4840   35.4360 C.2   502  U10502      0.2140
      4  C4         9.7570  115.4810   34.5560 C.2   502  U10502      0.2140
      5  C5        10.5870  115.6680   33.3700 C.2   502  U10502      0.2285
      6  C6        11.6790  114.7890   33.0380 C.2   502  U10502      0.0235
      7  C1M       13.0510  112.7810   33.6760 C.3   502  U10502      0.0343
      8  C3M        9.5360  114.7100   37.9820 C.3   502  U10502      0.2528
      9  C4M        8.8870  117.2320   35.9740 C.3   502  U10502      0.2528
     10  C7        12.4530  115.1310   31.7630 C.3   502  U10502      0.0548
     11  C8        12.0350  114.3790   30.5270 C.2   502  U10502     -0.0298
     12  C9        12.2990  114.8170   29.2780 C.2   502  U10502     -0.0475
     13  C10       13.0370  116.0820   29.0280 C.3   502  U10502      0.0260
     14  C11       11.9030  114.0010   28.0630 C.3   502  U10502      0.0264
     15  C12       12.8010  112.7580   28.0230 C.3   502  U10502      0.0297
     16  C13       12.9090  112.0940   26.6540 C.2   502  U10502     -0.0342
     17  C14       13.6710  110.9590   26.4520 C.2   502  U10502     -0.0478
     18  C15       14.4490  110.3330   27.5600 C.3   502  U10502      0.0260
     19  C16       13.7760  110.3260   25.0820 C.3   502  U10502      0.0263
     20  C17       12.4240  109.9920   24.4630 C.3   502  U10502      0.0297
     21  C18       12.7060  109.2950   23.1590 C.2   502  U10502     -0.0342
     22  C19       11.7620  108.7130   22.3940 C.2   502  U10502     -0.0478
     23  C20       10.3020  108.6940   22.7220 C.3   502  U10502      0.0260
     24  C21       12.1820  108.0670   21.1130 C.3   502  U10502      0.0263
     25  C22       13.3500  107.1100   21.3250 C.3   502  U10502      0.0297
     26  C23       13.4870  106.3790   20.0100 C.2   502  U10502     -0.0342
     27  C24       14.2290  105.2910   19.9270 C.2   502  U10502     -0.0478
     28  C25       14.8740  104.9130   21.2130 C.3   502  U10502      0.0260
     29  C26       14.3570  104.5330   18.5980 C.3   502  U10502      0.0263
     30  C27       15.7260  104.7870   17.9330 C.3   502  U10502      0.0297
     31  C28       15.8180  104.1960   16.5260 C.2   502  U10502     -0.0342
     32  C29       16.9750  103.9080   15.8670 C.2   502  U10502     -0.0478
     33  C30       18.3070  104.1990   16.4670 C.3   502  U10502      0.0260
     34  C31       16.8730  103.3520   14.4310 C.3   502  U10502      0.0263
     35  C32       17.8490  102.2440   14.0110 C.3   502  U10502      0.0297
     36  C33       17.8950  102.0860   12.5100 C.2   502  U10502     -0.0342
     37  C34       16.9150  101.5620   11.7370 C.2   502  U10502     -0.0478
     38  C35       17.1230  101.5200   10.2560 C.3   502  U10502      0.0260
     39  C36       15.5880  101.0560   12.2160 C.3   502  U10502      0.0263
     40  C37       15.1760   99.7590   11.5250 C.3   502  U10502      0.0297
     41  C38       14.4400   99.8510   10.1820 C.2   502  U10502     -0.0342
     42  C39       13.3030   99.1320    9.9210 C.2   502  U10502     -0.0478
     43  C40       12.6500   98.2300   10.9630 C.3   502  U10502      0.0260
     44  C41       12.6260   99.2240    8.5650 C.3   502  U10502      0.0260
     45  O2        11.2700  112.7010   35.9300 O.2   502  U10502     -0.2836
     46  O3         9.1620  114.3240   36.6460 O.2   502  U10502     -0.4652
     47  O4         8.6830  116.4010   34.8380 O.2   502  U10502     -0.4652
     48  O5        10.3470  116.5970   32.6390 O.2   502  U10502     -0.2835
@<TRIPOS>BOND
     1    44    42    1
     2    42    41    2
     3    42    43    1
     4    41    40    1
     5    38    37    1
     6    40    39    1
     7    37    39    1
     8    37    36    2
     9    36    35    1
    10    35    34    1
    11    34    32    1
    12    32    33    1
    13    32    31    2
    14    31    30    1
    15    30    29    1
    16    29    27    1
    17    27    26    2
    18    27    28    1
    19    26    25    1
    20    24    25    1
    21    24    22    1
    22    22    23    1
    23    22    21    2
    24    21    20    1
    25    20    19    1
    26    19    17    1
    27    17    16    2
    28    17    18    1
    29    16    15    1
    30    15    14    1
    31    14    12    1
    32    13    12    1
    33    12    11    2
    34    11    10    1
    35    10     6    1
    36    48     5    2
    37     6     5    1
    38     6     1    2
    39     5     4    1
    40     7     1    1
    41     1     2    1
    42     4    47    1
    43     4     3    2
    44    47     9    1
    45     2     3    1
    46     2    45    2
    47     3    46    1
    48    46     8    1
