@<TRIPOS>MOLECULE
2hit_PEV_H_1.pdb
 49 48 0 0 0
SMALL
GASTEIGER

@<TRIPOS>ATOM
      1  C48       18.8650   99.1590   42.9260 C.3   801  PEV801      0.0000
      2  C47       19.6020   97.8460   43.0190 C.3   801  PEV801      0.0000
      3  C46       18.6600   96.7000   42.6910 C.3   801  PEV801      0.0000
      4  C45       19.2950   95.3410   43.0280 C.3   801  PEV801      0.0000
      5  C44       18.9670   94.2750   41.9820 C.3   801  PEV801      0.0000
      6  C43       19.7850   92.9880   42.2180 C.3   801  PEV801      0.0000
      7  C42       19.8420   92.0530   40.9820 C.3   801  PEV801      0.0000
      8  C41       21.0230   91.0730   41.0560 C.3   801  PEV801      0.0000
      9  C40       20.9110   89.9810   39.9760 C.3   801  PEV801      0.0000
     10  C39       21.9810   88.8920   40.1580 C.3   801  PEV801      0.0000
     11  C38       22.1850   88.0440   38.9000 C.3   801  PEV801      0.0000
     12  C37       23.3850   88.5500   38.0980 C.3   801  PEV801      0.0000
     13  C36       24.6000   87.6400   38.2430 C.3   801  PEV801      0.0000
     14  C35       25.8210   88.2300   37.5090 C.3   801  PEV801      0.0000
     15  C34       26.8770   87.1890   37.1430 C.3   801  PEV801      0.0006
     16  C33       27.3240   86.5010   38.4200 C.3   801  PEV801      0.0116
     17  C32       26.5710   85.1700   38.6420 C.3   801  PEV801      0.1096
     18  C31       27.1490   84.3560   39.8130 C.2   801  PEV801      0.3171
     19  O31       28.0600   83.5580   39.6060 O.2   801  PEV801     -0.2501
     20  O2        26.6320   84.5090   41.0690 O.3   801  PEV801     -0.4457
     21  C2        27.5560   84.5120   42.2340 C.3   801  PEV801      0.2420
     22  C1        27.7460   85.9970   42.6320 C.3   801  PEV801      0.1964
     23  O3P       28.4820   86.1970   43.8680 O.3   801  PEV801     -0.3100
     24  P         27.8000   86.0560   45.3580 P.3   801  PEV801      0.2141
     25  O1P       27.6770   84.4580   45.5390 O.2   801  PEV801     -0.5172
     26  O2P       28.6390   86.6800   46.4180 O.3   801  PEV801     -0.4373
     27  O4P       26.2780   86.6460   45.3450 O.3   801  PEV801     -0.3125
     28  C4        25.1470   85.9040   44.8140 C.3   801  PEV801      0.1696
     29  C5        23.8790   86.1490   45.6560 C.3   801  PEV801      0.1417
     30  N6        22.7390   86.4350   44.7690 N.3   801  PEV801     -0.1286
     31  C3        28.9050   83.7290   42.1230 C.3   801  PEV801      0.2543
     32  O3        28.8050   82.2710   42.1330 O.3   801  PEV801     -0.4444
     33  C11       28.5580   81.6970   43.3630 C.2   801  PEV801      0.3171
     34  O11       28.7230   82.3440   44.4020 O.2   801  PEV801     -0.2501
     35  C12       28.0810   80.2260   43.4340 C.3   801  PEV801      0.1096
     36  C13       26.7650   80.0660   44.2280 C.3   801  PEV801      0.0116
     37  C14       25.5770   79.6260   43.3460 C.3   801  PEV801      0.0006
     38  C15       24.2590   80.3320   43.7480 C.3   801  PEV801      0.0000
     39  C16       23.3300   80.5970   42.5420 C.3   801  PEV801      0.0000
     40  C17       21.9570   81.1380   42.9750 C.3   801  PEV801      0.0000
     41  C18       20.8990   80.0240   43.1150 C.3   801  PEV801      0.0000
     42  C19       19.4650   80.5690   42.9170 C.3   801  PEV801      0.0000
     43  C20       18.4060   79.4500   42.9240 C.3   801  PEV801      0.0000
     44  C21       18.2350   78.7960   41.5390 C.3   801  PEV801      0.0000
     45  C22       18.7960   77.3570   41.4910 C.3   801  PEV801      0.0000
     46  C23       18.2260   76.5300   40.3210 C.3   801  PEV801      0.0000
     47  C24       18.7010   77.0100   38.9350 C.3   801  PEV801      0.0000
     48  C25       17.9830   76.2330   37.8240 C.3   801  PEV801      0.0000
     49  C26       17.8980   77.0790   36.5060 C.3   801  PEV801      0.0000
@<TRIPOS>BOND
     1    49    48    1
     2    15    14    1
     3    15    16    1
     4    14    13    1
     5    48    47    1
     6    12    13    1
     7    12    11    1
     8    16    17    1
     9    17    18    1
    10    11    10    1
    11    47    46    1
    12    19    18    2
    13    18    20    1
    14     9    10    1
    15     9     8    1
    16    46    45    1
    17     7     8    1
    18     7     6    1
    19    20    21    1
    20    45    44    1
    21    44    43    1
    22     5     6    1
    23     5     4    1
    24    31    32    1
    25    31    21    1
    26    32    33    1
    27    21    22    1
    28    39    40    1
    29    39    38    1
    30    22    23    1
    31     3     2    1
    32     3     4    1
    33    42    43    1
    34    42    41    1
    35     1     2    1
    36    40    41    1
    37    37    38    1
    38    37    36    1
    39    33    35    1
    40    33    34    2
    41    35    36    1
    42    23    24    1
    43    30    29    1
    44    28    27    1
    45    28    29    1
    46    27    24    1
    47    24    25    2
    48    24    26    1
