@<TRIPOS>MOLECULE
2hiw_7MP_A_1.pdb
 33 36 0 0 0
SMALL
GASTEIGER

@<TRIPOS>ATOM
      1  OAK       -0.7650    8.9120   34.6580 O.2   531  7MP531     -0.2512
      2  CAH       -1.6310    8.0410   34.8830 C.2   531  7MP531      0.3204
      3  NAG       -2.5920    8.1240   35.9480 N.am  531  7MP531     -0.2154
      4  CAT       -2.5750    9.2780   36.8440 C.3   531  7MP531      0.1242
      5  C4        -3.5800    7.0960   36.1450 C.2   531  7MP531      0.2022
      6  N3        -4.5140    7.1230   37.1120 N.2   531  7MP531     -0.3199
      7  C2        -5.3970    6.1060   37.2150 C.1   531  7MP531      0.1834
      8  NAS       -6.3110    6.1660   38.2060 N.pl3 531  7MP531     -0.0348
      9  N1        -5.3860    5.0410   36.3630 N.2   531  7MP531     -0.1901
     10  C6        -4.4700    4.9620   35.3810 C.3   531  7MP531      0.1702
     11  C5        -3.5640    6.0090   35.2800 C.2   531  7MP531      0.0635
     12  CAJ       -2.6130    6.2280   34.4880 C.2   531  7MP531      0.0751
     13  NAI       -1.6620    6.9720   34.0960 N.am  531  7MP531     -0.2207
     14  CAL       -0.7630    6.8270   33.0290 C.ar  531  7MP531      0.0569
     15  CAQ       -1.0840    7.3470   31.7760 C.ar  531  7MP531     -0.0077
     16  CAR       -2.4090    8.0310   31.5470 C.3   531  7MP531      0.0323
     17  CAP       -0.1760    7.2250   30.7230 C.ar  531  7MP531     -0.0017
     18  CAO        1.0460    6.5970   30.9390 C.ar  531  7MP531      0.0164
     19  CAM        0.4590    6.2070   33.2470 C.ar  531  7MP531      0.0316
     20  CAN        1.3660    6.0800   32.1970 C.ar  531  7MP531      0.0749
     21  NAU        2.5670    5.4710   32.3770 N.am  531  7MP531     -0.1754
     22  CAV        3.0230    4.9250   33.5120 C.2   531  7MP531      0.2690
     23  OAW        2.3800    4.9250   34.5490 O.2   531  7MP531     -0.2680
     24  CAX        4.3950    4.2870   33.4570 C.ar  531  7MP531      0.0553
     25  CBC        4.6880    3.1220   34.1780 C.ar  531  7MP531      0.0084
     26  CAY        5.3770    4.8680   32.6520 C.ar  531  7MP531      0.0046
     27  CAZ        6.6440    4.3040   32.5710 C.ar  531  7MP531      0.0001
     28  CBA        6.9270    3.1480   33.2970 C.ar  531  7MP531      0.0039
     29  CBB        5.9630    2.5480   34.1070 C.ar  531  7MP531      0.0716
     30  CBD        6.3000    1.2910   34.8840 C.3   531  7MP531      0.4186
     31  FBE        6.1140    1.5190   36.1700 F     531  7MP531     -0.1659
     32  FBF        7.5780    0.9680   34.7170 F     531  7MP531     -0.1659
     33  FBG        5.5250    0.2770   34.4930 F     531  7MP531     -0.1659
@<TRIPOS>BOND
     1    17    18   ar
     2    17    15   ar
     3    18    20   ar
     4    16    15    1
     5    15    14   ar
     6    20    21    1
     7    20    19   ar
     8    21    22   am
     9    27    26   ar
    10    27    28   ar
    11    26    24   ar
    12    14    19   ar
    13    14    13    1
    14    28    29   ar
    15    24    22    1
    16    24    25   ar
    17    22    23    2
    18    13    12    1
    19    13     2   am
    20    29    25   ar
    21    29    30    1
    22    12    11    2
    23    33    30    1
    24     1     2    2
    25    32    30    1
    26     2     3   am
    27    30    31    1
    28    11    10    1
    29    11     5    1
    30    10     9    1
    31     3     5    1
    32     3     4    1
    33     5     6    2
    34     9     7    2
    35     6     7    2
    36     7     8    1
