@<TRIPOS>MOLECULE
2hix_ATP_A_1.pdb
 31 33 0 0 0
SMALL
GASTEIGER

@<TRIPOS>ATOM
      1  PG        15.9620   31.0090   24.9040 P.3   602  ATP602      0.5373
      2  O1G       16.9050   31.3020   26.0450 O.3   602  ATP602     -0.1143
      3  O2G       16.3230   31.6710   23.6040 O.2   602  ATP602     -0.2221
      4  O3G       15.5660   29.5770   24.7080 O.3   602  ATP602     -0.1143
      5  PB        13.1450   31.2440   25.1580 P.3   602  ATP602      0.2277
      6  O1B       13.0670   29.8290   25.6790 O.3   602  ATP602     -0.4368
      7  O2B       12.1450   32.2740   25.6360 O.2   602  ATP602     -0.5168
      8  O3B       14.6420   31.7770   25.4160 O.3   602  ATP602     -0.2258
      9  PA        12.0420   30.4890   22.7600 P.3   602  ATP602      0.2189
     10  O1A       10.9560   30.0240   23.7040 O.3   602  ATP602     -0.4371
     11  O2A       11.6650   31.2330   21.5000 O.2   602  ATP602     -0.5170
     12  O3A       13.1430   31.3280   23.5610 O.3   602  ATP602     -0.2700
     13  O5'       12.9270   29.1990   22.4170 O.3   602  ATP602     -0.3112
     14  C5'       13.8800   29.3560   21.3800 C.3   602  ATP602      0.1813
     15  C4'       15.0000   28.3670   21.5880 C.3   602  ATP602      0.1821
     16  O4'       15.0330   27.4800   20.4700 O.3   602  ATP602     -0.3135
     17  C3'       16.2870   29.1450   21.5850 C.3   602  ATP602      0.2184
     18  O3'       17.2130   28.3600   22.3420 O.3   602  ATP602     -0.2174
     19  C2'       16.6290   29.1950   20.1130 C.3   602  ATP602      0.2570
     20  O2'       18.0410   29.3360   19.9030 O.3   602  ATP602     -0.2130
     21  C1'       16.1350   27.8270   19.6370 C.3   602  ATP602      0.3186
     22  N9        15.8890   27.6770   18.1710 N.pl3 602  ATP602     -0.1439
     23  C8        14.8450   27.1000   17.5410 C.3   602  ATP602      0.3377
     24  N7        15.0190   27.0820   16.1950 N.2   602  ATP602     -0.2095
     25  C5        16.2250   27.6510   15.9460 C.2   602  ATP602      0.2526
     26  C6        17.0800   27.9860   14.7630 C.2   602  ATP602      0.4393
     27  N6        16.7350   27.7410   13.4830 N.pl3 602  ATP602      0.2180
     28  N1        18.2680   28.5790   14.9970 N.2   602  ATP602      0.0021
     29  C2        18.7020   28.8810   16.2360 C.3   602  ATP602      0.5254
     30  N3        17.9880   28.6190   17.3410 N.2   602  ATP602     -0.0055
     31  C4        16.7810   28.0230   17.2590 C.2   602  ATP602      0.3518
@<TRIPOS>BOND
     1    27    26    1
     2    26    28    2
     3    26    25    1
     4    28    29    1
     5    25    24    2
     6    25    31    1
     7    24    23    1
     8    29    30    1
     9    31    30    2
    10    31    22    1
    11    23    22    1
    12    22    21    1
    13    21    19    1
    14    21    16    1
    15    20    19    1
    16    19    17    1
    17    16    15    1
    18    14    15    1
    19    14    13    1
    20    11     9    2
    21    17    15    1
    22    17    18    1
    23    13     9    1
    24     9    12    1
    25     9    10    1
    26    12     5    1
    27     3     1    2
    28     4     1    1
    29     1     8    1
    30     1     2    1
    31     5     8    1
    32     5     7    2
    33     5     6    1
