@<TRIPOS>MOLECULE
2hiz_LIJ_A_1.pdb
 47 49 0 0 0
SMALL
GASTEIGER

@<TRIPOS>ATOM
      1  C4       -28.9720   61.4700   68.9070 C.3   801  LIJ801      0.0304
      2  C5       -27.6370   60.8600   68.3590 C.2   801  LIJ801     -0.0287
      3  C6       -26.9190   59.8190   69.3230 C.2   801  LIJ801     -0.0077
      4  C7       -25.7110   58.8680   68.8600 C.3   801  LIJ801      0.1508
      5  C10      -25.0580   56.8600   64.9690 C.3   801  LIJ801      0.1995
      6  N12      -22.6760   56.8680   64.3170 N.am  801  LIJ801     -0.2027
      7  C13      -21.4930   57.0370   63.4830 C.3   801  LIJ801      0.1314
      8  C15      -21.2070   59.3930   64.5900 C.ar  801  LIJ801     -0.0204
      9  C17      -21.4870   61.3910   66.1680 C.ar  801  LIJ801     -0.0003
     10  C20      -22.1690   60.0390   63.6610 C.ar  801  LIJ801     -0.0042
     11  C21      -20.8110   55.6870   63.2010 C.3   801  LIJ801      0.1894
     12  C22      -21.7130   54.7810   62.3930 C.3   801  LIJ801      0.1237
     13  C24      -21.8660   52.6050   61.2140 C.3   801  LIJ801      0.1152
     14  C26      -20.7150   53.9260   59.2390 C.ar  801  LIJ801      0.0340
     15  C28      -22.0490   54.8190   57.2770 C.ar  801  LIJ801      0.0369
     16  C1       -21.8530   59.5650   69.3610 C.3   801  LIJ801      0.0001
     17  C2       -23.1920   58.8050   69.4790 C.3   801  LIJ801      0.0021
     18  C3       -24.3340   59.5460   68.7380 C.3   801  LIJ801      0.0281
     19  S8       -26.0970   57.7740   67.4080 S.O2  801  LIJ801     -0.0056
     20  O8B      -26.1500   56.4120   67.8580 O.2   801  LIJ801     -0.1727
     21  O8A      -27.3460   58.2550   66.8690 O.2   801  LIJ801     -0.1727
     22  C9       -24.8120   57.8290   66.1200 C.3   801  LIJ801      0.1822
     23  C11      -23.9550   57.0510   63.9640 C.2   801  LIJ801      0.2632
     24  O11      -24.3390   57.3950   62.8220 O.2   801  LIJ801     -0.2714
     25  C14      -20.5750   58.0180   64.2650 C.3   801  LIJ801      0.0506
     26  C16      -20.8750   60.0900   65.8510 C.ar  801  LIJ801     -0.0042
     27  C18      -22.4370   62.0070   65.2310 C.ar  801  LIJ801     -0.0000
     28  C19      -22.7710   61.3280   63.9860 C.ar  801  LIJ801     -0.0003
     29  O21      -19.6610   55.8900   62.4240 O.3   801  LIJ801     -0.2197
     30  N23      -21.0450   53.4740   62.0710 N.3   801  LIJ801     -0.2105
     31  C25      -21.9330   53.3520   59.8510 C.ar  801  LIJ801     -0.0018
     32  C27      -20.7340   54.6610   57.9640 C.ar  801  LIJ801      0.1385
     33  O27      -19.5370   55.1800   57.4810 O.3   801  LIJ801     -0.4714
     34  C29      -23.2700   54.2550   57.8690 C.ar  801  LIJ801      0.0028
     35  C30      -23.2160   53.5290   59.1470 C.ar  801  LIJ801     -0.0027
     36  C31      -18.2640   54.4780   57.4980 C.3   801  LIJ801      0.2525
     37  N40      -26.3740   57.0980   64.5110 N.am  801  LIJ801     -0.1592
     38  C41      -27.4630   56.2270   64.6180 C.2   801  LIJ801      0.4219
     39  O42      -27.3850   55.1220   65.1530 O.2   801  LIJ801     -0.2245
     40  O43      -28.6140   56.7470   64.0870 O.3   801  LIJ801     -0.4285
     41  C44      -29.8500   56.0100   64.1020 C.3   801  LIJ801      0.2368
     42  C45      -30.9340   56.8310   63.4650 C.ar  801  LIJ801      0.0213
     43  C46      -31.0260   56.9230   62.0210 C.ar  801  LIJ801     -0.0007
     44  C47      -32.0630   57.7160   61.4060 C.ar  801  LIJ801     -0.0002
     45  C48      -33.0280   58.4310   62.2310 C.ar  801  LIJ801     -0.0000
     46  C49      -32.9470   58.3460   63.6750 C.ar  801  LIJ801     -0.0002
     47  C50      -31.9090   57.5520   64.2990 C.ar  801  LIJ801     -0.0007
@<TRIPOS>BOND
     1    15    34   ar
     2    15    32   ar
     3    33    36    1
     4    33    32    1
     5    34    35   ar
     6    32    14   ar
     7    35    31   ar
     8    14    31   ar
     9    31    13    1
    10    13    30    1
    11    44    43   ar
    12    44    45   ar
    13    43    42   ar
    14    30    12    1
    15    45    46   ar
    16    12    11    1
    17    29    11    1
    18    24    23    2
    19    11     7    1
    20    42    41    1
    21    42    47   ar
    22     7    25    1
    23     7     6    1
    24    10    28   ar
    25    10     8   ar
    26    46    47   ar
    27    23     6   am
    28    23     5    1
    29    28    27   ar
    30    40    41    1
    31    40    38    1
    32    25     8    1
    33    37    38   am
    34    37     5    1
    35     8    26   ar
    36    38    39    2
    37     5    22    1
    38    27     9   ar
    39    26     9   ar
    40    22    19    1
    41    21    19    2
    42    19    20    2
    43    19     4    1
    44     2     1    1
    45     2     3    2
    46    18     4    1
    47    18    17    1
    48     4     3    1
    49    16    17    1
