@<TRIPOS>MOLECULE
2hj0_CIT_A_1.pdb
 13 12 0 0 0
SMALL
GASTEIGER

@<TRIPOS>ATOM
      1  C1       -29.4440   53.6360   12.3160 C.2   601  CIT601      0.3680
      2  O1       -30.2550   54.6140   12.5510 O.co2 601  CIT601     -0.2455
      3  O2       -28.1930   53.8940   12.0060 O.co2 601  CIT601     -0.2455
      4  C2       -29.9710   52.2470   12.4150 C.3   601  CIT601      0.1560
      5  C3       -31.2250   51.8770   11.5490 C.3   601  CIT601      0.2402
      6  O7       -32.1860   52.9050   11.9310 O.3   601  CIT601     -0.2129
      7  C4       -31.8250   50.5370   11.9000 C.3   601  CIT601      0.1560
      8  C5       -32.4580   50.2410   13.2280 C.2   601  CIT601      0.3680
      9  O3       -33.5640   50.9100   13.5350 O.co2 601  CIT601     -0.2455
     10  O4       -31.9280   49.3890   13.9160 O.co2 601  CIT601     -0.2455
     11  C6       -30.9220   51.8900   10.0000 C.2   601  CIT601      0.3927
     12  O5       -31.6060   52.7950    9.3200 O.co2 601  CIT601     -0.2429
     13  O6       -30.1140   51.0620    9.5700 O.co2 601  CIT601     -0.2429
@<TRIPOS>BOND
     1    12    11   ar
     2    13    11   ar
     3    11     5    1
     4     5     7    1
     5     5     6    1
     6     5     4    1
     7     7     8    1
     8     3     1   ar
     9     1     4    1
    10     1     2   ar
    11     8     9   ar
    12     8    10   ar
