@<TRIPOS>MOLECULE
2hj4_PNZ_A_1.pdb
 11 11 0 0 0
SMALL
GASTEIGER

@<TRIPOS>ATOM
      1  C6        50.0350   22.9820   31.6990 C.ar  1203  PNZ1203     0.1429
      2  C7        49.9010   23.4220   30.4040 C.ar  1203  PNZ1203     0.0238
      3  C8        50.8500   22.8540   29.3530 C.ar  1203  PNZ1203    -0.0011
      4  C9        51.8030   21.9290   29.7390 C.ar  1203  PNZ1203    -0.0031
      5  C4        51.8920   21.5650   31.0870 C.ar  1203  PNZ1203    -0.0011
      6  C5        51.0270   22.0750   32.0400 C.ar  1203  PNZ1203     0.0238
      7  N2        54.0740   22.0660   28.5510 N.3   1203  PNZ1203    -0.1262
      8  C3        52.7670   21.3940   28.7440 C.3   1203  PNZ1203     0.1356
      9  N10       49.1940   23.4980   32.6570 N.pl3 1203  PNZ1203     0.0577
     10  O11       48.4180   24.3160   32.3180 O.2   1203  PNZ1203    -0.1261
     11  O12       49.2740   23.1080   33.8000 O.2   1203  PNZ1203    -0.1261
@<TRIPOS>BOND
     1     7     8    1
     2     8     4    1
     3     3     4   ar
     4     3     2   ar
     5     4     5   ar
     6     2     1   ar
     7     5     6   ar
     8     1     6   ar
     9     1     9    1
    10    10     9    2
    11     9    11    2
