@<TRIPOS>MOLECULE
2hj6_U10_L_1.pdb
 48 48 0 0 0
SMALL
GASTEIGER

@<TRIPOS>ATOM
      1  C1        46.3500   67.2760   64.2450 C.2   502  U10502      0.0198
      2  C2        46.1760   66.4490   65.4680 C.2   502  U10502      0.2282
      3  C3        44.8830   65.8210   65.7900 C.2   502  U10502      0.2140
      4  C4        43.8330   65.9950   64.9390 C.2   502  U10502      0.2140
      5  C5        43.9980   66.8130   63.7260 C.2   502  U10502      0.2285
      6  C6        45.2810   67.4590   63.3980 C.2   502  U10502      0.0235
      7  C1M       47.6810   67.9160   63.9680 C.3   502  U10502      0.0343
      8  C3M       44.1370   65.5540   68.2170 C.3   502  U10502      0.2528
      9  C4M       41.7930   65.7520   66.3550 C.3   502  U10502      0.2528
     10  C7        45.3430   68.3000   62.1310 C.3   502  U10502      0.0548
     11  C8        45.8740   67.5500   60.9250 C.2   502  U10502     -0.0298
     12  C9        45.6860   68.0300   59.6920 C.2   502  U10502     -0.0475
     13  C10       44.9800   69.3100   59.5000 C.3   502  U10502      0.0260
     14  C11       46.2320   67.3510   58.4820 C.3   502  U10502      0.0264
     15  C12       47.7090   67.7620   58.4480 C.3   502  U10502      0.0297
     16  C13       48.4490   67.3360   57.1890 C.2   502  U10502     -0.0342
     17  C14       49.8090   67.4200   57.0750 C.2   502  U10502     -0.0478
     18  C15       50.5600   67.9520   58.2530 C.3   502  U10502      0.0260
     19  C16       50.5890   67.0060   55.8050 C.3   502  U10502      0.0263
     20  C17       49.9100   65.9760   54.8700 C.3   502  U10502      0.0297
     21  C18       50.6960   65.7940   53.5880 C.2   502  U10502     -0.0342
     22  C19       50.7500   64.6480   52.8420 C.2   502  U10502     -0.0478
     23  C20       50.0140   63.3870   53.1630 C.3   502  U10502      0.0260
     24  C21       51.6000   64.6150   51.6000 C.3   502  U10502      0.0263
     25  C22       53.0590   65.0160   51.8760 C.3   502  U10502      0.0297
     26  C23       53.8070   64.8750   50.5770 C.2   502  U10502     -0.0342
     27  C24       55.1290   64.8340   50.4990 C.2   502  U10502     -0.0478
     28  C25       55.9220   64.9200   51.7580 C.3   502  U10502      0.0260
     29  C26       55.7660   64.6580   49.1250 C.3   502  U10502      0.0263
     30  C27       56.2120   66.0000   48.5260 C.3   502  U10502      0.0297
     31  C28       56.8640   65.8050   47.1570 C.2   502  U10502     -0.0342
     32  C29       57.3620   66.8110   46.3870 C.2   502  U10502     -0.0478
     33  C30       57.2760   68.2590   46.7940 C.3   502  U10502      0.0260
     34  C31       57.9290   66.4030   45.0310 C.3   502  U10502      0.0263
     35  C32       59.3360   66.8980   44.6710 C.3   502  U10502      0.0297
     36  C33       59.4980   67.0440   43.1620 C.2   502  U10502     -0.0342
     37  C34       59.5200   66.0050   42.3060 C.2   502  U10502     -0.0478
     38  C35       59.6620   66.3270   40.8530 C.3   502  U10502      0.0260
     39  C36       59.3880   64.5500   42.6910 C.3   502  U10502      0.0263
     40  C37       60.2000   63.6300   41.7670 C.3   502  U10502      0.0297
     41  C38       59.5220   63.1240   40.4830 C.2   502  U10502     -0.0342
     42  C39       59.4800   61.7950   40.1320 C.2   502  U10502     -0.0478
     43  C40       60.0620   60.6700   40.9920 C.3   502  U10502      0.0260
     44  C41       58.8200   61.3840   38.8250 C.3   502  U10502      0.0260
     45  O2        47.0990   66.2850   66.2550 O.2   502  U10502     -0.2836
     46  O3        44.6990   65.0100   67.0020 O.2   502  U10502     -0.4652
     47  O4        42.5620   65.3610   65.2270 O.2   502  U10502     -0.4652
     48  O5        43.0430   66.9450   62.9720 O.2   502  U10502     -0.2835
@<TRIPOS>BOND
     1    44    42    1
     2    42    41    2
     3    42    43    1
     4    41    40    1
     5    38    37    1
     6    40    39    1
     7    37    39    1
     8    37    36    2
     9    36    35    1
    10    35    34    1
    11    34    32    1
    12    32    33    1
    13    32    31    2
    14    31    30    1
    15    30    29    1
    16    29    27    1
    17    27    26    2
    18    27    28    1
    19    26    25    1
    20    24    25    1
    21    24    22    1
    22    22    23    1
    23    22    21    2
    24    21    20    1
    25    20    19    1
    26    19    17    1
    27    17    16    2
    28    17    18    1
    29    16    15    1
    30    15    14    1
    31    14    12    1
    32    13    12    1
    33    12    11    2
    34    11    10    1
    35    10     6    1
    36    48     5    2
    37     6     5    1
    38     6     1    2
    39     5     4    1
    40     7     1    1
    41     1     2    1
    42     4    47    1
    43     4     3    2
    44    47     9    1
    45     2     3    1
    46     2    45    2
    47     3    46    1
    48    46     8    1
