@<TRIPOS>MOLECULE
2hj9_AI2_A_1.pdb
 13 14 0 0 0
SMALL
GASTEIGER

@<TRIPOS>ATOM
      1  O1        15.0100    2.3860   37.3410 O.3   501  AI2501      0.0000
      2  B2        14.4570    3.5440   36.5620 B     501  AI2501      0.0000
      3  O9        15.5070    4.3460   35.8020 O.3   501  AI2501      0.0000
      4  O10       13.1150    3.3080   35.9260 O.3   501  AI2501      0.0000
      5  O3        14.1140    4.4700   37.7590 O.3   501  AI2501      0.0000
      6  C4        14.7250    4.0630   38.9800 C.3   501  AI2501      0.0000
      7  C11       15.5950    5.1690   39.5080 C.3   501  AI2501      0.0000
      8  O5        13.7590    3.7200   39.9870 O.3   501  AI2501      0.0000
      9  C6        13.6690    2.2920   40.1350 C.3   501  AI2501      0.0000
     10  C7        15.0260    1.7620   39.6970 C.3   501  AI2501      0.0000
     11  O12       15.9150    1.8420   40.8070 O.3   501  AI2501      0.0000
     12  C8        15.4630    2.7710   38.6410 C.3   501  AI2501      0.0000
     13  O13       16.8950    2.9330   38.6280 O.3   501  AI2501      0.0000
@<TRIPOS>BOND
     1     3     2    1
     2     4     2    1
     3     2     1    1
     4     2     5    1
     5     1    12    1
     6     5     6    1
     7    13    12    1
     8    12     6    1
     9    12    10    1
    10     6     7    1
    11     6     8    1
    12    10     9    1
    13    10    11    1
    14     8     9    1
