@<TRIPOS>MOLECULE
2hjb_PZM_A_1.pdb
 10 10 0 0 0
SMALL
GASTEIGER

@<TRIPOS>ATOM
      1  N1        53.8730   22.3300   28.2520 N.3   1101  PZM1101    -0.1262
      2  CB        52.4950   21.8040   28.4060 C.3   1101  PZM1101     0.1356
      3  CG        51.6170   22.3080   29.5140 C.ar  1101  PZM1101    -0.0030
      4  CD1       50.4170   22.9920   29.2560 C.ar  1101  PZM1101     0.0003
      5  CE1       49.5770   23.4960   30.3030 C.ar  1101  PZM1101     0.0366
      6  CZ        49.9260   23.3390   31.6580 C.ar  1101  PZM1101     0.1387
      7  CE2       51.0920   22.6960   31.9910 C.ar  1101  PZM1101     0.0366
      8  CD2       52.0260   22.1390   30.8160 C.ar  1101  PZM1101     0.0003
      9  O1        49.1370   23.8450   32.7260 O.3   1101  PZM1101    -0.4714
     10  CF1       48.4520   25.0640   32.5330 C.3   1101  PZM1101     0.2525
@<TRIPOS>BOND
     1     1     2    1
     2     2     3    1
     3     4     3   ar
     4     4     5   ar
     5     3     8   ar
     6     5     6   ar
     7     8     7   ar
     8     6     7   ar
     9     6     9    1
    10    10     9    1
