@<TRIPOS>MOLECULE
2hjf_TBA_C_1.pdb
 17 16 0 0 0
SMALL
GASTEIGER

@<TRIPOS>ATOM
      1  N1       156.1550  156.2000  -45.3430 N.pl3   1  TBA1       -0.3545
      2  C11      155.3920  157.0720  -44.3130 C.3     1  TBA1        0.0756
      3  C12      154.4340  158.2500  -44.7100 C.3     1  TBA1        0.0200
      4  C21      155.1860  155.3010  -46.0310 C.2     1  TBA1        0.0418
      5  C22      154.5940  154.1320  -45.1770 C.2     1  TBA1       -0.0118
      6  C31      156.9680  157.0580  -46.3220 C.3     1  TBA1        0.0756
      7  C32      158.1640  157.9000  -45.7710 C.3     1  TBA1        0.0200
      8  C41      157.1190  155.2880  -44.5780 C.3     1  TBA1        0.0756
      9  C42      157.9830  154.4810  -45.5700 C.3     1  TBA1        0.0200
     10  C13      152.9800  157.7540  -45.1330 C.3     1  TBA1        0.0017
     11  C14      152.0080  158.8960  -45.1000 C.3     1  TBA1        0.0001
     12  C23      153.5300  153.2480  -45.7980 C.3     1  TBA1        0.0273
     13  C24      153.0600  152.2620  -44.7580 C.3     1  TBA1        0.0051
     14  C33      157.8470  159.3960  -45.6410 C.3     1  TBA1        0.0017
     15  C34      158.9900  160.2200  -45.0770 C.3     1  TBA1        0.0001
     16  C43      158.6720  153.3440  -44.9230 C.3     1  TBA1        0.0017
     17  C44      160.1780  153.3790  -44.9160 C.3     1  TBA1        0.0001
@<TRIPOS>BOND
     1     6     7    1
     2     6     1    1
     3     4     1    1
     4     4     5    2
     5    12     5    1
     6    12    13    1
     7     7    14    1
     8    14    15    1
     9     9    16    1
    10     9     8    1
    11     1     8    1
    12     1     2    1
    13    10    11    1
    14    10     3    1
    15    16    17    1
    16     3     2    1
