@<TRIPOS>MOLECULE
2hjg_GDP_A_1.pdb
 28 30 0 0 0
SMALL
GASTEIGER

@<TRIPOS>ATOM
      1  PB        45.7320   41.8430   77.0780 P.3   500  GDP500      0.5373
      2  O1B       45.7980   40.3350   76.9520 O.3   500  GDP500     -0.1143
      3  O2B       44.4800   42.3500   76.4140 O.2   500  GDP500     -0.2221
      4  O3B       45.7500   42.2920   78.5190 O.3   500  GDP500     -0.1143
      5  O3A       46.9900   42.4740   76.3240 O.3   500  GDP500     -0.2261
      6  PA        48.1600   43.2060   77.1340 P.3   500  GDP500      0.2231
      7  O1A       47.6690   44.3940   77.9410 O.2   500  GDP500     -0.5169
      8  O2A       48.8230   42.1900   78.0180 O.3   500  GDP500     -0.4370
      9  O5'       49.1340   43.6970   75.9590 O.3   500  GDP500     -0.3111
     10  C5'       49.2850   42.9080   74.7940 C.3   500  GDP500      0.1813
     11  C4'       50.5050   43.3460   74.0110 C.3   500  GDP500      0.1799
     12  O4'       50.1560   44.4210   73.1420 O.3   500  GDP500     -0.3326
     13  C3'       51.6310   43.8530   74.8840 C.3   500  GDP500      0.2158
     14  O3'       52.8550   43.4770   74.2620 O.3   500  GDP500     -0.2175
     15  C2'       51.4910   45.3540   74.8600 C.3   500  GDP500      0.2310
     16  O2'       52.7310   46.0410   75.0350 O.3   500  GDP500     -0.2158
     17  C1'       50.9010   45.5870   73.4820 C.3   500  GDP500      0.2293
     18  N9        50.0160   46.7580   73.5020 N.pl3 500  GDP500     -0.2354
     19  C8        49.0290   47.0120   74.3850 C.3   500  GDP500      0.2246
     20  N7        48.4260   48.1870   74.0960 N.2   500  GDP500     -0.2322
     21  C5        49.0340   48.6820   73.0020 C.2   500  GDP500      0.2182
     22  C6        48.8930   49.8890   72.1620 C.1   500  GDP500      0.2372
     23  O6        48.0170   50.7480   72.4170 O.2   500  GDP500     -0.2069
     24  N1        49.7190   50.0320   71.1230 N.2   500  GDP500     -0.2485
     25  C2        50.6600   49.1210   70.8000 C.1   500  GDP500      0.2531
     26  N2        51.4360   49.3550   69.7190 N.pl3 500  GDP500     -0.0226
     27  N3        50.8600   47.9830   71.5260 N.2   500  GDP500     -0.3074
     28  C4        50.0800   47.7310   72.6090 C.2   500  GDP500      0.2300
@<TRIPOS>BOND
     1    26    25    1
     2    25    24    2
     3    25    27    2
     4    24    22    2
     5    27    28    2
     6    22    23    2
     7    22    21    1
     8    28    21    1
     9    28    18    1
    10    21    20    2
    11    12    17    1
    12    12    11    1
    13    17    18    1
    14    17    15    1
    15    18    19    1
    16    11    10    1
    17    11    13    1
    18    20    19    1
    19    14    13    1
    20    10     9    1
    21    15    13    1
    22    15    16    1
    23     9     6    1
    24     5     1    1
    25     5     6    1
    26     3     1    2
    27     2     1    1
    28     1     4    1
    29     6     7    2
    30     6     8    1
