@<TRIPOS>MOLECULE
2hjh_XYQ_A_1.pdb
 38 41 0 0 0
SMALL
GASTEIGER

@<TRIPOS>ATOM
      1  CH        -0.4560   39.1390   85.6830 C.3   1222  XYQ1222     0.1450
      2  CH3        0.7300   39.1550   86.4870 C.3   1222  XYQ1222     0.0347
      3  OH        -1.6980   39.0870   86.3280 O.3   1222  XYQ1222    -0.3286
      4  C1N       -1.6650   38.9330   87.7610 C.3   1222  XYQ1222     0.2695
      5  C2N       -1.9070   37.4390   87.9810 C.3   1222  XYQ1222     0.2404
      6  C3N       -3.3920   37.3450   88.0150 C.3   1222  XYQ1222     0.2167
      7  O3N       -3.8690   36.9830   86.6850 O.3   1222  XYQ1222    -0.2175
      8  O2N       -1.2230   36.5350   87.1610 O.3   1222  XYQ1222    -0.2149
      9  O4N       -2.8270   39.6380   88.0090 O.3   1222  XYQ1222    -0.3257
     10  C4N       -3.9030   38.7150   88.2220 C.3   1222  XYQ1222     0.1806
     11  C5N       -4.3490   38.7840   89.6990 C.3   1222  XYQ1222     0.1813
     12  O5N       -5.6060   38.1390   89.8490 O.3   1222  XYQ1222    -0.3112
     13  PN        -5.8730   37.0120   90.9970 P.3   1222  XYQ1222     0.2189
     14  ON2       -4.7400   36.0780   91.0730 O.3   1222  XYQ1222    -0.4371
     15  ON1       -7.2550   36.6000   90.8340 O.2   1222  XYQ1222    -0.5170
     16  ON3       -5.6810   37.9230   92.3200 O.3   1222  XYQ1222    -0.2703
     17  PA        -6.7980   38.9120   92.9510 P.3   1222  XYQ1222     0.2189
     18  OA2       -6.0030   39.6180   93.9940 O.3   1222  XYQ1222    -0.4371
     19  O5A       -7.9270   37.9890   93.5230 O.3   1222  XYQ1222    -0.3112
     20  C5A       -7.7300   37.2010   94.7080 C.3   1222  XYQ1222     0.1813
     21  C4A       -9.0480   36.5840   95.0720 C.3   1222  XYQ1222     0.1821
     22  O4A       -8.8930   35.5360   96.0520 O.3   1222  XYQ1222    -0.3135
     23  C1A       -9.6180   35.8940   97.2580 C.3   1222  XYQ1222     0.3186
     24  N9        -8.8750   35.3340   98.3870 N.pl3 1222  XYQ1222    -0.1439
     25  C8        -7.7350   35.7800   98.9700 C.3   1222  XYQ1222     0.3377
     26  N7        -7.3500   34.8750   99.9320 N.2   1222  XYQ1222    -0.2095
     27  C5        -8.2450   33.8890   99.8830 C.2   1222  XYQ1222     0.2526
     28  C4        -9.1300   34.1520   98.8990 C.2   1222  XYQ1222     0.3518
     29  N3       -10.2270   33.2910   98.6020 N.2   1222  XYQ1222    -0.0055
     30  C2       -10.3200   32.1220   99.2750 C.3   1222  XYQ1222     0.5254
     31  N1        -9.3740   31.8680  100.2110 N.2   1222  XYQ1222     0.0021
     32  C6        -8.3820   32.6980  100.5190 C.2   1222  XYQ1222     0.4393
     33  N6        -7.3910   32.4650  101.4280 N.pl3 1222  XYQ1222     0.2180
     34  C2A      -10.0530   37.3740   97.1730 C.3   1222  XYQ1222     0.2570
     35  C3A       -9.8980   37.6780   95.6820 C.3   1222  XYQ1222     0.2184
     36  O3A      -11.1870   37.4060   95.0700 O.3   1222  XYQ1222    -0.2174
     37  O2A      -11.3190   37.5420   97.7180 O.3   1222  XYQ1222    -0.2130
     38  OA1       -7.4720   39.7670   91.8810 O.2   1222  XYQ1222    -0.5170
@<TRIPOS>BOND
     1     1     3    1
     2     1     2    1
     3     3     4    1
     4     7     6    1
     5     8     5    1
     6     4     5    1
     7     4     9    1
     8     5     6    1
     9     9    10    1
    10     6    10    1
    11    10    11    1
    12    11    12    1
    13    12    13    1
    14    15    13    2
    15    13    14    1
    16    13    16    1
    17    38    17    2
    18    16    17    1
    19    17    19    1
    20    17    18    1
    21    19    20    1
    22    20    21    1
    23    36    35    1
    24    21    35    1
    25    21    22    1
    26    35    34    1
    27    22    23    1
    28    34    23    1
    29    34    37    1
    30    23    24    1
    31    24    28    1
    32    24    25    1
    33    29    28    2
    34    29    30    1
    35    28    27    1
    36    25    26    1
    37    30    31    1
    38    27    26    2
    39    27    32    1
    40    31    32    2
    41    32    33    1
