@<TRIPOS>MOLECULE
2hjp_PPR_A_1.pdb
 10 9 0 0 0
SMALL
GASTEIGER

@<TRIPOS>ATOM
      1  C1        53.5890   25.1390   41.1010 C.2   291  PPR291      0.3951
      2  O1        54.5570   25.9430   40.7770 O.co2 291  PPR291     -0.2428
      3  O2'       52.6600   25.4330   41.8040 O.co2 291  PPR291     -0.2428
      4  C2        53.7020   23.7700   40.5000 C.3   291  PPR291      0.2612
      5  C3        54.8340   23.0630   40.2140 C.3   291  PPR291      0.1036
      6  O2        52.5150   23.2170   40.2480 O.3   291  PPR291     -0.2104
      7  P         55.3690   22.1820   41.7590 P.3   291  PPR291      0.1203
      8  O1P       54.2020   21.1990   42.0550 O.3   291  PPR291     -0.3570
      9  O2P       55.5590   23.2810   42.8390 O.3   291  PPR291     -0.3570
     10  O3P       56.5690   21.4540   41.3720 O.2   291  PPR291     -0.4600
@<TRIPOS>BOND
     1     5     4    1
     2     5     7    1
     3     6     4    1
     4     4     1    1
     5     2     1   ar
     6     1     3   ar
     7    10     7    2
     8     7     8    1
     9     7     9    1
