@<TRIPOS>MOLECULE
2hjp_XYS_A_1.pdb
 10 10 0 0 0
SMALL
GASTEIGER

@<TRIPOS>ATOM
      1  C1        55.2060   46.1140   27.7100 C.3   293  XYS293      0.3024
      2  C2        54.2360   47.3260   27.6070 C.3   293  XYS293      0.2434
      3  C3        52.9310   46.8410   26.9010 C.3   293  XYS293      0.2199
      4  C4        53.2140   46.1580   25.5170 C.3   293  XYS293      0.2143
      5  C5        54.4620   45.2530   25.4580 C.3   293  XYS293      0.1804
      6  O1        54.7520   45.0100   28.5300 O.3   293  XYS293     -0.1869
      7  O2        53.9120   47.7800   28.9230 O.3   293  XYS293     -0.2148
      8  O3        51.9890   47.9410   26.7600 O.3   293  XYS293     -0.2174
      9  O4        52.0750   45.5640   24.8570 O.3   293  XYS293     -0.2176
     10  O5        55.5680   45.6350   26.4020 O.3   293  XYS293     -0.3237
@<TRIPOS>BOND
     1     9     4    1
     2     5     4    1
     3     5    10    1
     4     4     3    1
     5    10     1    1
     6     8     3    1
     7     3     2    1
     8     2     1    1
     9     2     7    1
    10     1     6    1
