@<TRIPOS>MOLECULE
2hk1_FUD_A_1.pdb
 12 11 0 0 0
SMALL
GASTEIGER

@<TRIPOS>ATOM
      1  C1        48.1260   36.5740  102.3810 C.3   1300  FUD1300     0.2486
      2  C2        47.0490   36.3890  101.2640 C.2   1300  FUD1300     0.2165
      3  C3        45.5600   36.8210  101.5720 C.3   1300  FUD1300     0.2440
      4  C4        44.9510   35.8300  102.6610 C.3   1300  FUD1300     0.2221
      5  C5        43.4730   36.2360  103.0430 C.3   1300  FUD1300     0.2179
      6  C6        42.9120   35.2570  104.1000 C.3   1300  FUD1300     0.2175
      7  O1        49.0150   35.4770  102.3650 O.3   1300  FUD1300    -0.2118
      8  O2        47.3550   35.9120  100.1700 O.2   1300  FUD1300    -0.2905
      9  O3        44.7760   36.7930  100.3580 O.3   1300  FUD1300    -0.2122
     10  O4        44.9550   34.4930  102.1380 O.3   1300  FUD1300    -0.2171
     11  O5        43.4790   37.5840  103.5820 O.3   1300  FUD1300    -0.2175
     12  O6        42.7710   33.9490  103.4980 O.3   1300  FUD1300    -0.2175
@<TRIPOS>BOND
     1     8     2    2
     2     9     3    1
     3     2     3    1
     4     2     1    1
     5     3     4    1
     6    10     4    1
     7     7     1    1
     8     4     5    1
     9     5    11    1
    10     5     6    1
    11    12     6    1
