@<TRIPOS>MOLECULE
2hk5_1BM_A_1.pdb
 32 35 0 0 0
SMALL
GASTEIGER

@<TRIPOS>ATOM
      1  O21       50.8600    8.9450    2.0930 O.3   499  1BM499     -0.2865
      2  C17       49.9570    9.8340    1.6810 C.ar  499  1BM499      0.1970
      3  C13       49.1740   10.5830    2.5600 C.ar  499  1BM499      0.0418
      4  C16       48.2310   11.4750    2.0540 C.ar  499  1BM499      0.0003
      5  C15       48.0640   11.6020    0.6760 C.ar  499  1BM499     -0.0063
      6  C19       47.0630   12.5630    0.0980 C.3   499  1BM499      0.0324
      7  C14       49.7910    9.9970    0.3110 C.ar  499  1BM499      0.0583
      8  C11       48.8480   10.8740   -0.2050 C.ar  499  1BM499      0.0720
      9  N3        48.7100   10.9980   -1.5470 N.pl3 499  1BM499     -0.1863
     10  C2        48.1220   10.0520   -2.3110 C.2   499  1BM499      0.2023
     11  N1        48.0070   10.3040   -3.6290 N.2   499  1BM499     -0.3148
     12  C9        47.6200    8.8480   -1.8150 C.3   499  1BM499      0.1548
     13  C8        47.0360    7.9120   -2.6660 C.2   499  1BM499      0.1982
     14  N10       46.5400    6.7210   -2.2460 N.pl3 499  1BM499     -0.2108
     15  C27       46.5130    6.2580   -0.8700 C.3   499  1BM499      0.1318
     16  C30       47.8170    5.7050   -0.2950 C.3   499  1BM499      0.0958
     17  N34       48.0730    4.3820   -0.8520 N.3   499  1BM499     -0.2712
     18  C36       47.8700    3.2180    0.0070 C.3   499  1BM499      0.0722
     19  C42       47.7360    1.9020   -0.7310 C.3   499  1BM499      0.0188
     20  C35       48.5400    4.2820   -2.2280 C.3   499  1BM499      0.0722
     21  C38       49.8750    4.9660   -2.4050 C.3   499  1BM499      0.0188
     22  N6        46.9420    8.2130   -3.9820 N.2   499  1BM499     -0.3151
     23  C5        47.4250    9.3900   -4.4400 C.1   499  1BM499      0.2103
     24  N7        47.3700    9.7520   -5.7880 N.pl3 499  1BM499     -0.1885
     25  C49       46.7260    9.1750   -6.8850 C.2   499  1BM499      0.0775
     26  C54       45.9370    8.0330   -6.9750 C.2   499  1BM499     -0.0043
     27  C53       46.9940    9.9570   -7.9950 C.2   499  1BM499      0.0917
     28  N51       47.7500   11.0340   -7.6980 N.2   499  1BM499     -0.2458
     29  C50       48.0310   10.9430   -6.2840 C.3   499  1BM499      0.2342
     30  C55       46.4960    9.6290   -9.2480 C.2   499  1BM499      0.0158
     31  C56       45.7160    8.4790   -9.3500 C.2   499  1BM499     -0.0198
     32  C58       45.4430    7.6880   -8.2310 C.3   499  1BM499      0.0534
@<TRIPOS>BOND
     1    31    30    2
     2    31    32    1
     3    30    27    1
     4    32    26    1
     5    27    28    2
     6    27    25    1
     7    28    29    1
     8    26    25    2
     9    25    24    1
    10    29    24    1
    11    24    23    1
    12    23    22    2
    13    23    11    2
    14    22    13    2
    15    11    10    2
    16    13    14    1
    17    13    12    1
    18    21    20    1
    19    10    12    1
    20    10     9    1
    21    14    15    1
    22    20    17    1
    23     9     8    1
    24    15    16    1
    25    17    16    1
    26    17    18    1
    27    19    18    1
    28     8     7   ar
    29     8     5   ar
    30     6     5    1
    31     7     2   ar
    32     5     4   ar
    33     2     1    1
    34     2     3   ar
    35     4     3   ar
