@<TRIPOS>MOLECULE
2hka_C3S_B_1.pdb
 32 35 0 0 0
SMALL
GASTEIGER

@<TRIPOS>ATOM
      1  C65      -29.6460  -63.9870    9.0880 C.3   400  C3S400      0.0000
      2  C63      -30.3320  -65.3760    8.9780 C.3   400  C3S400      0.0000
      3  C69      -31.2700  -65.5120   10.2070 C.3   400  C3S400      0.0000
      4  C60      -31.0940  -65.4220    7.6340 C.3   400  C3S400      0.0000
      5  C57      -31.9590  -66.6750    7.3260 C.3   400  C3S400      0.0000
      6  C54      -32.4510  -66.6530    5.8700 C.3   400  C3S400      0.0000
      7  C48      -31.4570  -67.2030    4.8100 C.3   400  C3S400      0.0000
      8  C50      -31.4630  -68.7540    4.9050 C.3   400  C3S400      0.0000
      9  C38      -31.9220  -66.7570    3.3900 C.3   400  C3S400      0.0000
     10  C35      -31.9200  -65.1730    3.2540 C.3   400  C3S400      0.0000
     11  C29      -31.1420  -67.1710    2.0750 C.3   400  C3S400      0.0000
     12  C26      -31.3520  -68.6110    1.5370 C.3   400  C3S400      0.0000
     13  C40      -29.5820  -66.9230    2.2750 C.3   400  C3S400      0.0000
     14  C30      -31.8540  -66.2320    1.0690 C.3   400  C3S400      0.0003
     15  C32      -31.8530  -64.8370    1.7220 C.3   400  C3S400      0.0000
     16  C18      -31.1920  -66.3360   -0.3740 C.3   400  C3S400      0.0046
     17  C15      -31.8890  -65.3570   -1.3960 C.3   400  C3S400      0.0254
     18  C20      -31.2940  -67.8570   -0.8670 C.3   400  C3S400      0.0038
     19  C23      -30.6250  -68.8330    0.1840 C.3   400  C3S400      0.0003
     20  C22      -30.6940  -68.0340   -2.3200 C.3   400  C3S400      0.0150
     21  C44      -29.1140  -68.0290   -2.3040 C.3   400  C3S400      0.0040
     22  C12      -31.2110  -66.9230   -3.2770 C.2   400  C3S400     -0.0466
     23  C9       -31.1260  -67.1930   -4.7930 C.3   400  C3S400      0.0536
     24  C13      -31.7350  -65.7450   -2.8570 C.2   400  C3S400     -0.0345
     25  C1       -31.2130  -69.4140   -2.8740 C.3   400  C3S400      0.0063
     26  C4       -30.7850  -69.6620   -4.3370 C.3   400  C3S400      0.0326
     27  C7       -31.5790  -68.6330   -5.1730 C.3   400  C3S400      0.1472
     28  O6       -31.3450  -68.7250   -6.5810 O.3   400  C3S400     -0.2434
     29  S1       -32.4910  -68.6370   -7.5690 S.3   400  C3S400     -0.0002
     30  O3       -31.9680  -68.7590   -8.9270 O.2   400  C3S400     -0.3452
     31  O2       -33.2280  -67.4050   -7.3770 O.2   400  C3S400     -0.3452
     32  O4       -33.3640  -69.7860   -7.2570 O.3   400  C3S400     -0.2682
@<TRIPOS>BOND
     1    30    29    2
     2    29    31    2
     3    29    32    1
     4    29    28    1
     5    28    27    1
     6    27    23    1
     7    27    26    1
     8    23    22    1
     9    26    25    1
    10    22    24    2
    11    22    20    1
    12    25    20    1
    13    24    17    1
    14    20    21    1
    15    20    18    1
    16    17    16    1
    17    18    16    1
    18    18    19    1
    19    16    14    1
    20    19    12    1
    21    14    15    1
    22    14    11    1
    23    12    11    1
    24    15    10    1
    25    11    13    1
    26    11     9    1
    27    10     9    1
    28     9     7    1
    29     7     8    1
    30     7     6    1
    31     6     5    1
    32     5     4    1
    33     4     2    1
    34     2     1    1
    35     2     3    1
