@<TRIPOS>MOLECULE
2hkj_RDC_A_1.pdb
 25 27 0 0 0
SMALL
GASTEIGER

@<TRIPOS>ATOM
      1  C1        15.4880   -0.2490   -8.9270 C.2   501  RDC501      0.3440
      2  C2        15.8320   -0.0810  -10.3480 C.ar  501  RDC501      0.1119
      3  C3        14.7940   -0.3280  -11.3700 C.ar  501  RDC501      0.2048
      4  C4        15.0700   -0.1820  -12.7090 C.ar  501  RDC501      0.0851
      5  C5        16.3690    0.1300  -13.1180 C.ar  501  RDC501      0.2090
      6  C6        17.4340    0.3270  -12.1580 C.ar  501  RDC501      0.0933
      7  C7        17.2150    0.2410  -10.7290 C.ar  501  RDC501      0.0086
      8  C8        18.3630    0.5150   -9.7710 C.3   501  RDC501      0.0966
      9  C9        19.6420   -0.2850  -10.0420 C.2   501  RDC501      0.1775
     10  C10       19.6960   -1.7600  -10.0750 C.2   501  RDC501      0.0378
     11  C11       18.6080   -2.5270   -9.9750 C.2   501  RDC501      0.0027
     12  C12       18.7350   -3.9790   -9.9700 C.2   501  RDC501     -0.0020
     13  C13       17.7610   -4.7550   -9.4710 C.2   501  RDC501      0.0053
     14  C14       16.4960   -4.1620   -8.8860 C.3   501  RDC501      0.1643
     15  C15       16.5700   -3.9160   -7.3700 C.3   501  RDC501      0.1504
     16  C16       15.5020   -2.8920   -6.9380 C.3   501  RDC501      0.0760
     17  C17       15.9740   -1.4400   -6.9250 C.3   501  RDC501      0.1718
     18  C18       17.2050   -1.1660   -6.0680 C.3   501  RDC501      0.0474
     19  O1        16.3870   -1.1020   -8.2440 O.3   501  RDC501     -0.4491
     20  O2        14.5230    0.2340   -8.3860 O.2   501  RDC501     -0.2448
     21  O3        13.5420   -0.6130  -10.9570 O.3   501  RDC501     -0.2862
     22  O4        16.7190    0.2160  -14.4330 O.3   501  RDC501     -0.2856
     23 CL1        19.0410    0.7970  -12.7250 Cl    501  RDC501     -0.0792
     24  O5        20.6870    0.3410  -10.1860 O.2   501  RDC501     -0.2910
     25  O6        15.9010   -5.0450   -7.9380 O.3   501  RDC501     -0.3489
@<TRIPOS>BOND
     1    22     5    1
     2     5     4   ar
     3     5     6   ar
     4    23     6    1
     5     4     3   ar
     6     6     7   ar
     7     3    21    1
     8     3     2   ar
     9     7     2   ar
    10     7     8    1
    11     2     1    1
    12    24     9    2
    13    10     9    1
    14    10    11    2
    15     9     8    1
    16    11    12    1
    17    12    13    2
    18    13    14    1
    19     1    20    2
    20     1    19    1
    21    14    25    1
    22    14    15    1
    23    19    17    1
    24    25    15    1
    25    15    16    1
    26    16    17    1
    27    17    18    1
