@<TRIPOS>MOLECULE
2hkk_ALE_A_1.pdb
 13 13 0 0 0
SMALL
GASTEIGER

@<TRIPOS>ATOM
      1  C1        -4.6580    5.4770   10.3990 C.ar  300  ALE300      0.0125
      2  C2        -3.4210    6.1100   10.5150 C.ar  300  ALE300      0.0436
      3  C3        -2.2790    5.3600   10.7890 C.ar  300  ALE300      0.2340
      4  C4        -2.3730    3.9710   10.9410 C.ar  300  ALE300      0.2342
      5  C5        -3.6070    3.3420   10.8220 C.ar  300  ALE300      0.0452
      6  C7        -5.9330    6.2840   10.0970 C.3   300  ALE300      0.1916
      7  C6        -4.7440    4.0950   10.5530 C.ar  300  ALE300      0.0017
      8  O1        -1.0820    6.0000   10.9000 O.3   300  ALE300     -0.2832
      9  O2        -1.2740    3.2130   11.2110 O.3   300  ALE300     -0.2831
     10  O3        -5.8310    6.8590    8.7880 O.3   300  ALE300     -0.2167
     11  C8        -6.1640    7.3690   11.1660 C.3   300  ALE300      0.1261
     12  N1        -6.7710    8.5630   10.5610 N.3   300  ALE300     -0.2135
     13  C9        -5.8460    9.7040   10.6560 C.3   300  ALE300      0.1076
@<TRIPOS>BOND
     1    10     6    1
     2     6     1    1
     3     6    11    1
     4     1     2   ar
     5     1     7   ar
     6     2     3   ar
     7     7     5   ar
     8    12    13    1
     9    12    11    1
    10     3     8    1
    11     3     4   ar
    12     5     4   ar
    13     4     9    1
