@<TRIPOS>MOLECULE
2hkr_ZHH_D_1.pdb
 11 11 0 0 0
SMALL
GASTEIGER

@<TRIPOS>ATOM
      1  N2         2.5110    3.7830    5.2880 N.3   1502  ZHH1502    -0.1310
      2  CA         1.3480    3.6530    6.0020 C.3   1502  ZHH1502     0.1140
      3  CB         1.6380    3.5380    7.4700 C.3   1502  ZHH1502     0.0468
      4  CG         0.4400    2.9320    8.1740 C.ar  1502  ZHH1502    -0.0205
      5  CD2       -0.8350    3.4990    8.0960 C.ar  1502  ZHH1502    -0.0011
      6  CE2       -1.8980    2.8980    8.7800 C.ar  1502  ZHH1502     0.0366
      7  CZ        -1.6790    1.7450    9.5150 C.ar  1502  ZHH1502     0.1387
      8  O1        -2.7500    1.1200   10.2250 O.3   1502  ZHH1502    -0.4714
      9  CF1       -3.2120    1.6830   11.4480 C.3   1502  ZHH1502     0.2525
     10  CE1       -0.4130    1.2010    9.5970 C.ar  1502  ZHH1502     0.0366
     11  CD1        0.6370    1.7820    8.9150 C.ar  1502  ZHH1502    -0.0011
@<TRIPOS>BOND
     1     1     2    1
     2     2     3    1
     3     3     4    1
     4     5     4   ar
     5     5     6   ar
     6     4    11   ar
     7     6     7   ar
     8    11    10   ar
     9     7    10   ar
    10     7     8    1
    11     8     9    1
