@<TRIPOS>MOLECULE
2hkr_ZHZ_H_1.pdb
 12 12 0 0 0
SMALL
GASTEIGER

@<TRIPOS>ATOM
      1  O2         2.9040   -4.0450   39.9260 O.3   1501  ZHZ1501    -0.2018
      2  CA         3.4470   -2.7800   40.2580 C.3   1501  ZHZ1501     0.2461
      3  N2         2.5860   -2.2470   41.3190 N.3   1501  ZHZ1501    -0.0964
      4  CB         3.4710   -1.8800   39.0460 C.3   1501  ZHZ1501     0.0791
      5  CG         4.5380   -2.3480   38.0980 C.ar  1501  ZHZ1501    -0.0179
      6  CD2        5.8530   -1.9740   38.2710 C.ar  1501  ZHZ1501    -0.0010
      7  CE2        7.0030   -2.5770   37.1310 C.ar  1501  ZHZ1501     0.0366
      8  CZ         6.5110   -3.3870   36.1560 C.ar  1501  ZHZ1501     0.1387
      9  O1         7.3720   -3.9230   35.1680 O.3   1501  ZHZ1501    -0.4714
     10  CF1        8.1900   -3.0020   34.4450 C.3   1501  ZHZ1501     0.2525
     11  CE1        5.1230   -3.6870   36.1140 C.ar  1501  ZHZ1501     0.0366
     12  CD1        4.2100   -3.2050   37.0520 C.ar  1501  ZHZ1501    -0.0010
@<TRIPOS>BOND
     1    10     9    1
     2     9     8    1
     3    11     8   ar
     4    11    12   ar
     5     8     7   ar
     6    12     5   ar
     7     7     6   ar
     8     5     6   ar
     9     5     4    1
    10     4     2    1
    11     1     2    1
    12     2     3    1
