@<TRIPOS>MOLECULE
2hkx_HEM_A_1.pdb
 43 50 0 0 0
SMALL
GASTEIGER

@<TRIPOS>ATOM
      1 FE         37.8680   12.5980    6.7820 Fe    300  HEM300      0.0000
      2  CHA       36.0000   15.1150    8.3330 C.2   300  HEM300      0.0000
      3  CHB       36.5690   10.3420    8.8460 C.2   300  HEM300      0.0000
      4  CHC       40.0120   10.2950    5.3710 C.2   300  HEM300      0.0000
      5  CHD       38.7550   14.8080    4.2400 C.2   300  HEM300      0.0000
      6  NA        36.4980   12.7350    8.3590 N.2   300  HEM300      0.0000
      7  C1A       35.8500   13.8460    8.8410 C.2   300  HEM300      0.0000
      8  C2A       35.0320   13.4300    9.9600 C.2   300  HEM300      0.0000
      9  C3A       35.1790   12.1140   10.0890 C.2   300  HEM300      0.0000
     10  C4A       36.1150   11.6410    9.0730 C.2   300  HEM300      0.0000
     11  CMA       34.4950   11.2220   11.1490 C.3   300  HEM300      0.0000
     12  CAA       34.1530   14.3600   10.8460 C.3   300  HEM300      0.0000
     13  CBA       34.8800   15.6990   11.0820 C.3   300  HEM300      0.0000
     14  CGA       34.7710   16.2960   12.4780 C.2   300  HEM300      0.0000
     15  O1A       34.0910   17.3280   12.6280 O.co2 300  HEM300      0.0000
     16  O2A       35.3720   15.7790   13.4530 O.co2 300  HEM300      0.0000
     17  NB        38.2850   10.6950    7.0720 N.ar  300  HEM300      0.0000
     18  C1B       37.5430    9.9100    7.9480 C.ar  300  HEM300      0.0000
     19  C2B       37.9710    8.5350    7.7520 C.ar  300  HEM300      0.0000
     20  C3B       38.9210    8.5270    6.7960 C.ar  300  HEM300      0.0000
     21  C4B       39.1280    9.8900    6.3480 C.ar  300  HEM300      0.0000
     22  CMB       37.4280    7.3100    8.5300 C.3   300  HEM300      0.0000
     23  CAB       39.6830    7.3010    6.2450 C.2   300  HEM300      0.0000
     24  CBB       39.0340    6.1810    5.8610 C.2   300  HEM300      0.0000
     25  NC        39.1730   12.5560    5.0910 N.2   300  HEM300      0.0000
     26  C1C       39.9630   11.4940    4.7060 C.2   300  HEM300      0.0000
     27  C2C       40.6760   11.8600    3.4880 C.2   300  HEM300      0.0000
     28  C3C       40.3330   13.1100    3.1690 C.2   300  HEM300      0.0000
     29  C4C       39.3800   13.5750    4.1840 C.2   300  HEM300      0.0000
     30  CMC       41.6550   10.9810    2.6890 C.3   300  HEM300      0.0000
     31  CAC       40.8570   13.8970    1.9380 C.2   300  HEM300      0.0000
     32  CBC       41.3760   15.1400    2.0740 C.2   300  HEM300      0.0000
     33  ND        37.4200   14.5810    6.3640 N.ar  300  HEM300      0.0000
     34  C1D       37.9460   15.2840    5.2650 C.ar  300  HEM300      0.0000
     35  C2D       37.5220   16.6690    5.3130 C.ar  300  HEM300      0.0000
     36  C3D       36.6660   16.8140    6.5920 C.ar  300  HEM300      0.0000
     37  C4D       36.6470   15.4600    7.1620 C.ar  300  HEM300      0.0000
     38  CMD       37.9070   17.7420    4.2690 C.3   300  HEM300      0.0000
     39  CAD       35.9670   18.1190    7.1030 C.3   300  HEM300      0.0000
     40  CBD       36.9200   19.2420    7.6050 C.3   300  HEM300      0.0000
     41  CGD       37.0730   20.5210    6.7450 C.2   300  HEM300      0.0000
     42  O1D       36.3340   21.5390    6.9210 O.co2 300  HEM300      0.0000
     43  O2D       37.9740   20.5650    5.8600 O.co2 300  HEM300      0.0000
@<TRIPOS>BOND
     1    31    32    2
     2    31    28    1
     3    30    27    1
     4    28    27    2
     5    28    29    1
     6    27    26    1
     7    29     5    1
     8    29    25    2
     9     5    34    2
    10    38    35    1
    11    26    25    1
    12    26     4    2
    13    25     1    1
    14    34    35   ar
    15    34    33   ar
    16    35    36   ar
    17     4    21    1
    18    43    41   ar
    19    24    23    2
    20    23    20    1
    21    21    20   ar
    22    21    17   ar
    23    33     1    1
    24    33    37   ar
    25    36    39    1
    26    36    37   ar
    27    41    42   ar
    28    41    40    1
    29     1    17    1
    30     1     6    1
    31    20    19   ar
    32    17    18   ar
    33    39    40    1
    34    37     2    2
    35    19    18   ar
    36    19    22    1
    37    18     3    1
    38     2     7    1
    39     6     7    2
    40     6    10    1
    41     7     8    1
    42     3    10    2
    43    10     9    1
    44     8     9    2
    45     8    12    1
    46     9    11    1
    47    12    13    1
    48    13    14    1
    49    14    15   ar
    50    14    16   ar
