@<TRIPOS>MOLECULE
2hl0_A3S_A_1.pdb
 25 27 0 0 0
SMALL
GASTEIGER

@<TRIPOS>ATOM
      1  O5'       13.7530   33.6000   22.2330 O.3   500  A3S500     -0.2176
      2  C5'       14.3630   33.4270   20.9500 C.3   500  A3S500      0.2134
      3  C4'       13.8920   32.1150   20.3180 C.3   500  A3S500      0.1747
      4  O4'       14.2380   31.0000   21.1580 O.3   500  A3S500     -0.3143
      5  C1'       13.0580   30.2120   21.4010 C.3   500  A3S500      0.3177
      6  N9        12.6250   30.4460   22.8000 N.pl3 500  A3S500     -0.1439
      7  C4        11.3860   30.4390   23.2900 C.2   500  A3S500      0.3518
      8  N3        10.1700   30.3250   22.7360 N.2   500  A3S500     -0.0055
      9  C2         9.0780   30.3430   23.4820 C.3   500  A3S500      0.5254
     10  N1         9.1460   30.4720   24.7960 N.2   500  A3S500      0.0021
     11  C6        10.3270   30.5910   25.4220 C.2   500  A3S500      0.4393
     12  N6        10.3860   30.7130   26.7450 N.pl3 500  A3S500      0.2180
     13  C5        11.4940   30.5790   24.6670 C.2   500  A3S500      0.2526
     14  N7        12.7850   30.6740   24.9650 N.2   500  A3S500     -0.2095
     15  C8        13.4640   30.5960   23.8230 C.3   500  A3S500      0.3377
     16  C2'       12.0640   30.6180   20.3090 C.3   500  A3S500      0.2466
     17  O2'       12.4210   29.9710   19.0850 O.3   500  A3S500     -0.2139
     18  C3'       12.3660   32.1120   20.2250 C.3   500  A3S500      0.1621
     19  N8        11.9400   32.7250   18.9580 N.am  500  A3S500     -0.2004
     20  N          9.1470   34.3420   17.3240 N.3   500  A3S500     -0.1202
     21  CA        10.5940   34.1320   17.4690 C.3   500  A3S500      0.2020
     22  CB        11.3210   35.4690   17.3060 C.3   500  A3S500      0.2103
     23  OG        11.0930   35.9810   15.9910 O.3   500  A3S500     -0.2182
     24  C         10.9050   33.5540   18.8510 C.2   500  A3S500      0.2616
     25  O         10.0980   33.9030   19.8890 O.2   500  A3S500     -0.2717
@<TRIPOS>BOND
     1    23    22    1
     2    22    21    1
     3    20    21    1
     4    21    24    1
     5    24    19   am
     6    24    25    2
     7    19    18    1
     8    17    16    1
     9    18    16    1
    10    18     3    1
    11    16     5    1
    12     3     2    1
    13     3     4    1
    14     2     1    1
    15     4     5    1
    16     5     6    1
    17     8     7    2
    18     8     9    1
    19     6     7    1
    20     6    15    1
    21     7    13    1
    22     9    10    1
    23    15    14    1
    24    13    14    2
    25    13    11    1
    26    10    11    2
    27    11    12    1
