@<TRIPOS>MOLECULE
2hl1_A3S_A_1.pdb
 25 27 0 0 0
SMALL
GASTEIGER

@<TRIPOS>ATOM
      1  O5'       25.5610    6.6110   -3.4890 O.3   500  A3S500     -0.2176
      2  C5'       24.8780    7.8030   -3.8870 C.3   500  A3S500      0.2134
      3  C4'       23.7100    7.4360   -4.8040 C.3   500  A3S500      0.1747
      4  O4'       24.2130    6.5970   -5.8580 O.3   500  A3S500     -0.3143
      5  C1'       23.3510    5.4540   -6.0120 C.3   500  A3S500      0.3177
      6  N9        24.1360    4.2520   -5.6400 N.pl3 500  A3S500     -0.1439
      7  C4        23.6910    3.1180   -5.1040 C.2   500  A3S500      0.3518
      8  N3        22.4910    2.7060   -4.6690 N.2   500  A3S500     -0.0055
      9  C2        22.3260    1.4870   -4.1830 C.3   500  A3S500      0.5254
     10  N1        23.3320    0.6330   -4.1090 N.2   500  A3S500      0.0021
     11  C6        24.5610    0.9730   -4.5230 C.2   500  A3S500      0.4393
     12  N6        25.5610    0.1000   -4.4570 N.pl3 500  A3S500      0.2180
     13  C5        24.7720    2.2480   -5.0370 C.2   500  A3S500      0.2526
     14  N7        25.8310    2.8860   -5.5230 N.2   500  A3S500     -0.2095
     15  C8        25.4360    4.1040   -5.8840 C.3   500  A3S500      0.3377
     16  C2'       22.1160    5.7250   -5.1500 C.3   500  A3S500      0.2466
     17  O2'       21.1740    6.5140   -5.8810 O.3   500  A3S500     -0.2139
     18  C3'       22.7280    6.5590   -4.0280 C.3   500  A3S500      0.1621
     19  N8        21.7180    7.3950   -3.3630 N.am  500  A3S500     -0.2004
     20  N         19.1800    7.3240   -0.7410 N.3   500  A3S500     -0.1202
     21  CA        20.0850    8.0380   -1.6540 C.3   500  A3S500      0.2020
     22  CB        20.7760    9.1890   -0.9190 C.3   500  A3S500      0.2103
     23  OG        19.8030   10.1310   -0.4590 O.3   500  A3S500     -0.2182
     24  C         21.1280    7.0690   -2.2160 C.2   500  A3S500      0.2616
     25  O         21.3950    5.9300   -1.5220 O.2   500  A3S500     -0.2717
@<TRIPOS>BOND
     1     5     4    1
     2     5     6    1
     3     5    16    1
     4    15     6    1
     5    15    14    1
     6    17    16    1
     7     4     3    1
     8     6     7    1
     9    14    13    2
    10    16    18    1
    11     7    13    1
    12     7     8    2
    13    13    11    1
    14     3    18    1
    15     3     2    1
    16     8     9    1
    17    11    12    1
    18    11    10    2
    19     9    10    1
    20    18    19    1
    21     2     1    1
    22    19    24   am
    23    24    21    1
    24    24    25    2
    25    21    22    1
    26    21    20    1
    27    22    23    1
