@<TRIPOS>MOLECULE
2hl2_SSA_A_1.pdb
 29 31 0 0 0
SMALL
GASTEIGER

@<TRIPOS>ATOM
      1  N10       33.4760    1.5830   -4.1970 N.3   500  SSA500     -0.1202
      2  CA        33.3970    1.6320   -2.7300 C.3   500  SSA500      0.2036
      3  CB        33.6120    3.0620   -2.2290 C.3   500  SSA500      0.2104
      4  OG        32.5690    3.9140   -2.7100 O.3   500  SSA500     -0.2182
      5  C9        32.0310    1.1240   -2.2650 C.2   500  SSA500      0.2825
      6  O9        31.9480    0.3730   -1.2940 O.2   500  SSA500     -0.2700
      7  N8        30.9960    1.5270   -2.9990 N.am  500  SSA500     -0.0576
      8  S1        29.4750    1.0760   -2.6190 S.3   500  SSA500      0.0852
      9  O1S       29.1140    1.6150   -1.2660 O.3   500  SSA500     -0.0508
     10  O2S       29.4100   -0.3520   -2.5840 O.3   500  SSA500     -0.0508
     11  O5'       28.5400    1.5730   -3.5830 O.3   500  SSA500     -0.2230
     12  C5'       28.1580    2.9510   -3.6450 C.3   500  SSA500      0.2064
     13  C4'       26.8310    3.1120   -4.3910 C.3   500  SSA500      0.1842
     14  O4'       26.8580    2.4820   -5.6850 O.3   500  SSA500     -0.3135
     15  C3'       25.6800    2.4450   -3.6350 C.3   500  SSA500      0.2185
     16  O3'       25.1070    3.3640   -2.7000 O.3   500  SSA500     -0.2174
     17  C2'       24.7110    2.2030   -4.7910 C.3   500  SSA500      0.2570
     18  O2'       24.1700    3.4330   -5.2810 O.3   500  SSA500     -0.2130
     19  C1'       25.7020    1.6320   -5.8060 C.3   500  SSA500      0.3186
     20  N9        26.0850    0.2430   -5.4570 N.pl3 500  SSA500     -0.1439
     21  C8        27.3260   -0.2420   -5.4610 C.3   500  SSA500      0.3377
     22  N7        27.3040   -1.5410   -5.1720 N.2   500  SSA500     -0.2095
     23  C5        26.0370   -1.8940   -4.9790 C.2   500  SSA500      0.2526
     24  C6        25.3920   -3.0860   -4.6680 C.2   500  SSA500      0.4393
     25  N6        26.0850   -4.2110   -4.5150 N.pl3 500  SSA500      0.2180
     26  N1        24.0570   -3.0940   -4.5440 N.2   500  SSA500      0.0021
     27  C2        23.3450   -1.9920   -4.7140 C.3   500  SSA500      0.5254
     28  N3        23.9280   -0.8430   -5.0130 N.2   500  SSA500     -0.0055
     29  C4        25.2590   -0.7570   -5.1540 C.2   500  SSA500      0.3518
@<TRIPOS>BOND
     1    19    14    1
     2    19    20    1
     3    19    17    1
     4    14    13    1
     5    21    20    1
     6    21    22    1
     7    20    29    1
     8    18    17    1
     9    22    23    2
    10    29    28    2
    11    29    23    1
    12    28    27    1
    13    23    24    1
    14    17    15    1
    15    27    26    1
    16    24    26    2
    17    24    25    1
    18    13    12    1
    19    13    15    1
    20     1     2    1
    21    12    11    1
    22    15    16    1
    23    11     8    1
    24     7     8    1
    25     7     5   am
    26     2     5    1
    27     2     3    1
    28     4     3    1
    29     8    10    1
    30     8     9    1
    31     5     6    2
