@<TRIPOS>MOLECULE
2hl4_BO1_A_1.pdb
 22 23 0 0 0
SMALL
GASTEIGER

@<TRIPOS>ATOM
      1  S1        -5.9720    0.9500   16.6870 S.O2  264  BO1264      0.0935
      2  O1        -5.4260    1.0860   18.0080 O.2   264  BO1264     -0.1503
      3  O2        -7.3950    1.0440   16.5180 O.2   264  BO1264     -0.1503
      4  N1        -5.4870   -0.4620   16.1140 N.3   264  BO1264      0.0392
      5  C1        -5.2420    2.2240   15.7260 C.ar  264  BO1264      0.1251
      6  C2        -6.0080    3.3220   15.2590 C.ar  264  BO1264      0.0213
      7  C3        -5.4050    4.3220   14.5030 C.ar  264  BO1264      0.0175
      8  C4        -4.0030    4.2580   14.1840 C.ar  264  BO1264      0.0680
      9  C5        -3.2600    3.1490   14.6640 C.ar  264  BO1264      0.0175
     10  C6        -3.8660    2.1560   15.4160 C.ar  264  BO1264      0.0213
     11  N2        -3.3500    5.2310   13.4360 N.pl3 264  BO1264     -0.2084
     12  C7        -3.8590    6.5120   13.1010 C.3   264  BO1264      0.2423
     13  C8        -2.8340    7.3080   12.2910 C.3   264  BO1264      0.2325
     14  C9        -3.4220    8.6770   11.9380 C.3   264  BO1264      0.2190
     15  C10       -4.6740    8.4710   11.1120 C.3   264  BO1264      0.2144
     16  C11       -5.6970    7.6530   11.9440 C.3   264  BO1264      0.1828
     17  C12       -6.9700    7.3730   11.1970 C.3   264  BO1264      0.2142
     18  O3        -5.1070    6.3680   12.3240 O.3   264  BO1264     -0.3315
     19  O4        -1.6550    7.4390   13.0930 O.3   264  BO1264     -0.2157
     20  O5        -2.4590    9.4140   11.1850 O.3   264  BO1264     -0.2174
     21  O6        -5.2430    9.7390   10.7680 O.3   264  BO1264     -0.2176
     22  O7        -6.7370    6.4480   10.1410 O.3   264  BO1264     -0.2176
@<TRIPOS>BOND
     1    22    17    1
     2    21    15    1
     3    15    14    1
     4    15    16    1
     5    20    14    1
     6    17    16    1
     7    14    13    1
     8    16    18    1
     9    13    19    1
    10    13    12    1
    11    18    12    1
    12    12    11    1
    13    11     8    1
    14     8     7   ar
    15     8     9   ar
    16     7     6   ar
    17     9    10   ar
    18     6     5   ar
    19    10     5   ar
    20     5     1    1
    21     4     1    1
    22     3     1    2
    23     1     2    2
