@<TRIPOS>MOLECULE
2hl6_CXS_A_1.pdb
 14 14 0 0 0
SMALL
GASTEIGER

@<TRIPOS>ATOM
      1  S         48.7790   10.6160   29.8050 S.3   280  CXS280     -0.1960
      2  O1        47.6920   11.2130   30.6510 O.3   280  CXS280     -0.3075
      3  O2        49.0790   11.6440   28.5930 O.3   280  CXS280     -0.3075
      4  O3        49.9720   10.2940   30.6290 O.3   280  CXS280     -0.3075
      5  C1        48.1130    9.1520   29.0350 C.3   280  CXS280      0.1067
      6  C2        46.8870    9.5590   28.2080 C.3   280  CXS280      0.0403
      7  C3        46.3470    8.2930   27.5290 C.3   280  CXS280      0.0903
      8  N         45.1720    8.6370   26.7260 N.3   280  CXS280     -0.2194
      9  C4        44.3280    7.5130   26.2160 C.3   280  CXS280      0.0728
     10  C5        45.0360    6.5310   25.2670 C.3   280  CXS280      0.0174
     11  C6        44.0950    5.3400   25.0070 C.3   280  CXS280      0.0014
     12  C7        42.7690    5.8200   24.3350 C.3   280  CXS280      0.0001
     13  C8        42.1260    6.9680   25.1300 C.3   280  CXS280      0.0014
     14  C9        43.1710    8.0940   25.3890 C.3   280  CXS280      0.0174
@<TRIPOS>BOND
     1    12    11    1
     2    12    13    1
     3    11    10    1
     4    13    14    1
     5    10     9    1
     6    14     9    1
     7     9     8    1
     8     8     7    1
     9     7     6    1
    10     6     5    1
    11     3     1    1
    12     5     1    1
    13     1     4    1
    14     1     2    1
