@<TRIPOS>MOLECULE
2hld_ANP_A_1.pdb
 31 33 0 0 0
SMALL
GASTEIGER

@<TRIPOS>ATOM
      1  PG        -3.0490   15.3600   60.2480 P.3   600  ANP600      0.4884
      2  O1G       -2.3190   14.7050   59.0900 O.2   600  ANP600     -0.2331
      3  O2G       -3.2570   14.3600   61.3300 O.3   600  ANP600     -0.1240
      4  O3G       -2.6930   16.7800   60.6730 O.3   600  ANP600     -0.1240
      5  PB        -5.8650   14.3880   59.7420 P.3   600  ANP600      0.4669
      6  O1B       -5.7800   13.4380   58.5650 O.2   600  ANP600     -0.2351
      7  O2B       -5.8380   13.7020   61.0540 O.3   600  ANP600     -0.1253
      8  N3B       -4.6400   15.6180   59.6080 N.3   600  ANP600     -0.0163
      9  PA        -7.9500   16.2410   60.5060 P.3   600  ANP600      0.2220
     10  O1A       -8.9330   15.4350   61.3230 O.3   600  ANP600     -0.4370
     11  O2A       -6.8930   17.0080   61.1990 O.2   600  ANP600     -0.5170
     12  O3A       -7.1790   15.2860   59.4570 O.3   600  ANP600     -0.2360
     13  O5'       -8.7870   17.1540   59.5070 O.3   600  ANP600     -0.3111
     14  C5'       -8.1410   17.7470   58.4070 C.3   600  ANP600      0.1813
     15  C4'       -8.7810   19.0960   58.1500 C.3   600  ANP600      0.1821
     16  O4'      -10.0690   18.8670   57.5840 O.3   600  ANP600     -0.3135
     17  C3'       -9.0140   19.8610   59.4340 C.3   600  ANP600      0.2184
     18  O3'       -8.9360   21.2520   59.1620 O.3   600  ANP600     -0.2174
     19  C2'      -10.4490   19.5120   59.7700 C.3   600  ANP600      0.2570
     20  O2'      -11.0720   20.4570   60.6180 O.3   600  ANP600     -0.2130
     21  C1'      -11.1060   19.4190   58.4140 C.3   600  ANP600      0.3186
     22  N9       -12.2250   18.4640   58.4930 N.pl3 600  ANP600     -0.1439
     23  C8       -12.1540   17.2070   58.9610 C.3   600  ANP600      0.3377
     24  N7       -13.3430   16.5810   58.9010 N.2   600  ANP600     -0.2095
     25  C5       -14.2030   17.4580   58.3820 C.2   600  ANP600      0.2526
     26  C6       -15.6370   17.4460   58.0320 C.2   600  ANP600      0.4393
     27  N6       -16.3840   16.3430   58.2340 N.pl3 600  ANP600      0.2180
     28  N1       -16.1620   18.5680   57.5110 N.2   600  ANP600      0.0021
     29  C2       -15.4180   19.6690   57.2740 C.3   600  ANP600      0.5254
     30  N3       -14.1060   19.7560   57.5530 N.2   600  ANP600     -0.0055
     31  C4       -13.4590   18.6990   58.1080 C.2   600  ANP600      0.3518
@<TRIPOS>BOND
     1    29    28    1
     2    29    30    1
     3    28    26    2
     4    30    31    2
     5    16    15    1
     6    16    21    1
     7    26    27    1
     8    26    25    1
     9    31    25    1
    10    31    22    1
    11    15    14    1
    12    15    17    1
    13    25    24    2
    14    14    13    1
    15    21    22    1
    16    21    19    1
    17    22    23    1
    18     6     5    2
    19    24    23    1
    20     2     1    2
    21    18    17    1
    22    17    19    1
    23    12     5    1
    24    12     9    1
    25    13     9    1
    26     8     5    1
    27     8     1    1
    28     5     7    1
    29    19    20    1
    30     1     4    1
    31     1     3    1
    32     9    11    2
    33     9    10    1
