@<TRIPOS>MOLECULE
2hld_III_I_3.pdb
 45 44 0 0 0
SMALL
GASTEIGER

@<TRIPOS>ATOM
      1  N         -6.7060   29.1480    1.5150 N.3    53  ALA53      -0.1231
      2  CA        -7.5200   30.3040    1.1650 C.3    53  ALA53       0.1694
      3  C         -8.0600   30.9930    2.4160 C.2    53  ALA53       0.2592
      4  O         -8.5830   30.3400    3.3100 O.2    53  ALA53      -0.2718
      5  CB        -8.6580   29.8840    0.2560 C.3    53  ALA53       0.0304
      6  N         -7.9280   32.3130    2.4760 N.am   54  SER54      -0.1966
      7  CA        -8.4630   33.0900    3.5920 C.3    54  SER54       0.1728
      8  C        -10.0020   33.0570    3.5980 C.2    54  SER54       0.2616
      9  O        -10.6160   32.3030    2.8320 O.2    54  SER54      -0.2715
     10  CB        -7.9300   34.5280    3.5520 C.3    54  SER54       0.0334
     11  N        -10.6150   33.8780    4.4520 N.am   55  GLU55      -0.1963
     12  CA       -12.0560   33.8230    4.6880 C.3    55  GLU55       0.1728
     13  C        -12.7090   35.1940    4.9040 C.2    55  GLU55       0.2616
     14  O        -12.0420   36.1390    5.3320 O.2    55  GLU55      -0.2715
     15  CB       -12.3190   32.9460    5.9130 C.3    55  GLU55       0.0334
     16  N        -14.0080   35.2960    4.5990 N.am   56  PRO56      -0.1963
     17  CA       -14.8590   36.3860    5.1070 C.3    56  PRO56       0.1728
     18  C        -15.5970   35.9480    6.3950 C.2    56  PRO56       0.2616
     19  O        -16.4610   35.0670    6.3460 O.2    56  PRO56      -0.2715
     20  CB       -15.8320   36.6390    3.9540 C.3    56  PRO56       0.0334
     21  N        -15.2450   36.5870    7.5150 N.am   57  THR57      -0.1963
     22  CA       -15.5450   36.1460    8.9040 C.3    57  THR57       0.1728
     23  C        -16.8910   35.4510    9.1990 C.2    57  THR57       0.2616
     24  O        -17.9390   35.8460    8.6760 O.2    57  THR57      -0.2715
     25  CB       -15.3170   37.3210    9.9090 C.3    57  THR57       0.0334
     26  N        -16.8260   34.4420   10.0800 N.am   58  PRO58      -0.1963
     27  CA       -17.9200   33.4960   10.3700 C.3    58  PRO58       0.1728
     28  C        -19.2720   34.1330   10.7080 C.2    58  PRO58       0.2616
     29  O        -19.3110   35.1950   11.3300 O.2    58  PRO58      -0.2715
     30  CB       -17.3860   32.7240   11.5790 C.3    58  PRO58       0.0334
     31  N        -20.3620   33.4840   10.2960 N.am   59  ILE59      -0.1963
     32  CA       -21.7210   33.9720   10.5480 C.3    59  ILE59       0.1728
     33  C        -22.6420   32.8150   10.9230 C.2    59  ILE59       0.2616
     34  O        -22.4690   31.7010   10.4330 O.2    59  ILE59      -0.2715
     35  CB       -22.2710   34.7070    9.3070 C.3    59  ILE59       0.0334
     36  N        -23.6180   33.0690   11.7900 N.am   60  THR60      -0.1963
     37  CA       -24.5580   32.0180   12.1970 C.3    60  THR60       0.1728
     38  C        -25.4660   31.5870   11.0320 C.2    60  THR60       0.2616
     39  O        -25.9240   32.4220   10.2550 O.2    60  THR60      -0.2715
     40  CB       -25.3950   32.4680   13.4180 C.3    60  THR60       0.0334
     41  N        -25.7050   30.2820   10.9100 N.am   61  LYS61      -0.1977
     42  CA       -26.5710   29.7400    9.8630 C.3    61  LYS61       0.1597
     43  C        -28.0070   30.2430   10.0080 C.2    61  LYS61       0.2287
     44  O        -28.8670   29.9260    9.1880 O.2    61  LYS61      -0.2864
     45  CB       -26.5300   28.2010    9.8520 C.3    61  LYS61       0.0319
@<TRIPOS>BOND
     1     5     2    1
     2     2     1    1
     3     2     3    1
     4     3     6   am
     5     3     4    2
     6     6     7    1
     7     9     8    2
     8    10     7    1
     9     7     8    1
    10     8    11   am
    11    20    17    1
    12    11    12    1
    13    16    13   am
    14    16    17    1
    15    12    13    1
    16    12    15    1
    17    13    14    2
    18    17    18    1
    19    19    18    2
    20    18    21   am
    21    21    22    1
    22    24    23    2
    23    22    23    1
    24    22    25    1
    25    44    43    2
    26    23    26   am
    27    35    32    1
    28    45    42    1
    29    42    43    1
    30    42    41    1
    31    26    27    1
    32    39    38    2
    33    31    32    1
    34    31    28   am
    35    27    28    1
    36    27    30    1
    37    34    33    2
    38    32    33    1
    39    28    29    2
    40    41    38   am
    41    33    36   am
    42    38    37    1
    43    36    37    1
    44    37    40    1
