@<TRIPOS>MOLECULE
2hln_GLU_A_1.pdb
 10 9 0 0 0
SMALL
GASTEIGER

@<TRIPOS>ATOM
      1  N        -41.7940    2.9590  -94.5700 N.3   3350  GLU3350    -0.1208
      2  CA       -42.3040    4.1630  -95.2820 C.3   3350  GLU3350     0.1949
      3  C        -41.3740    4.5930  -96.3790 C.2   3350  GLU3350     0.3819
      4  O        -40.2020    4.8690  -96.1340 O.co2 3350  GLU3350    -0.2441
      5  CB       -42.4780    5.3040  -94.2900 C.3   3350  GLU3350     0.0424
      6  CG       -43.3080    6.4320  -94.8900 C.3   3350  GLU3350     0.1161
      7  CD       -42.4100    7.4530  -95.5540 C.2   3350  GLU3350     0.3649
      8  OE1      -41.3150    7.7280  -95.0200 O.co2 3350  GLU3350    -0.2457
      9  OE2      -42.7950    7.9800  -96.6200 O.co2 3350  GLU3350    -0.2457
     10  OXT      -41.7680    4.7120  -97.5420 O.co2 3350  GLU3350    -0.2441
@<TRIPOS>BOND
     1    10     3   ar
     2     9     7   ar
     3     3     4   ar
     4     3     2    1
     5     7     8   ar
     6     7     6    1
     7     2     1    1
     8     2     5    1
     9     6     5    1
