@<TRIPOS>MOLECULE
2hlo_III_G_1.pdb
 31 32 0 0 0
SMALL
GASTEIGER

@<TRIPOS>ATOM
      1  N         52.3010  116.1310  131.9960 N.3     1  GLY1       -0.1210
      2  CA        52.2700  117.0810  130.8520 C.3     1  GLY1        0.1940
      3  C         53.5900  117.1130  130.1010 C.2     1  GLY1        0.2455
      4  O         54.5100  116.3550  130.4220 O.2     1  GLY1       -0.2732
      5  N         53.7140  117.9820  129.0880 N.am    2  PRO2       -0.2690
      6  CA        54.9380  118.0990  128.2970 C.3     2  PRO2        0.1562
      7  C         55.8540  119.1890  128.8270 C.2     2  PRO2        0.2599
      8  O         55.4210  120.0690  129.5620 O.2     2  PRO2       -0.2715
      9  CB        54.4050  118.4580  126.9280 C.3     2  PRO2        0.0639
     10  CG        53.3340  119.4300  127.2870 C.3     2  PRO2        0.1739
     11  CD        52.6300  118.7700  128.4700 C.3     2  PRO2        0.1267
     12  OD1       52.4390  119.6140  126.2030 O.3     2  PRO2       -0.2212
     13  N         57.1250  119.1140  128.4500 N.am    3  ARG3       -0.1964
     14  CA        58.1080  120.1160  128.8390 C.3     3  ARG3        0.1714
     15  C         58.5010  120.8030  127.5320 C.2     3  ARG3        0.2458
     16  O         58.7360  120.1360  126.5220 O.2     3  ARG3       -0.2730
     17  CB        59.3240  119.4580  129.5050 C.3     3  ARG3        0.0347
     18  CG        59.0780  118.9920  130.9480 C.3     3  ARG3        0.0492
     19  CD        58.7190  120.1720  131.8560 C.3     3  ARG3        0.2205
     20  NE        58.4810  119.8000  133.2550 N.pl3   3  ARG3       -0.0865
     21  CZ        57.4200  119.1250  133.6960 C.cat   3  ARG3        0.5346
     22  NH1       57.2980  118.8450  134.9880 N.pl3   3  ARG3        0.1354
     23  NH2       56.4800  118.7250  132.8500 N.pl3   3  ARG3        0.1354
     24  N         58.5650  122.1460  127.5280 N.am    4  PRO4       -0.2715
     25  CA        58.9300  122.8590  126.3000 C.3     4  PRO4        0.1552
     26  C         59.9580  122.1030  125.4500 C.2     4  PRO4        0.2788
     27  O         59.5770  121.6410  124.3520 O.2     4  PRO4       -0.2699
     28  CB        59.4570  124.1890  126.8280 C.3     4  PRO4        0.0311
     29  CG        58.5810  124.4260  128.0220 C.3     4  PRO4        0.0237
     30  CD        58.5580  123.0630  128.6850 C.3     4  PRO4        0.0939
     31  N         61.1190  121.9620  125.8960 N.am    5  NH25       -0.0863
@<TRIPOS>BOND
     1    27    26    2
     2    26    31   am
     3    26    25    1
     4    12    10    1
     5    25    28    1
     6    25    24    1
     7    16    15    2
     8    28    29    1
     9     9    10    1
    10     9     6    1
    11    10    11    1
    12    24    15   am
    13    24    30    1
    14    15    14    1
    15    29    30    1
    16     6     7    1
    17     6     5    1
    18    13     7   am
    19    13    14    1
    20    11     5    1
    21     7     8    2
    22    14    17    1
    23     5     3   am
    24    17    18    1
    25     3     4    2
    26     3     2    1
    27     2     1    1
    28    18    19    1
    29    19    20    1
    30    23    21    1
    31    20    21    2
    32    21    22    1
