@<TRIPOS>MOLECULE
2hlv_LIK_A_1.pdb
 14 13 0 0 0
SMALL
GASTEIGER

@<TRIPOS>ATOM
      1  O1        20.0750   42.2770    3.4700 O.co2 999  LIK999     -0.2453
      2  C21       19.7010   43.4270    3.8210 C.2   999  LIK999      0.3689
      3  O2        19.9670   44.5050    3.2340 O.co2 999  LIK999     -0.2453
      4  C14       18.9910   43.5400    5.1290 C.3   999  LIK999      0.1361
      5  C12       17.5340   43.2140    5.2200 C.2   999  LIK999     -0.0328
      6  CC1       16.8080   42.8900    4.1750 C.2   999  LIK999     -0.0086
      7  C7        16.8680   43.2970    6.5550 C.3   999  LIK999      0.0269
      8  C1        17.8650   43.2820    7.7150 C.3   999  LIK999      0.0264
      9  C2        18.7730   42.0600    7.7110 C.2   999  LIK999     -0.0439
     10  CC3       18.3160   40.8800    7.3150 C.2   999  LIK999     -0.0091
     11  C3        20.1970   42.1810    8.1820 C.3   999  LIK999      0.0220
     12  C4        21.1810   41.4370    7.2750 C.3   999  LIK999      0.0043
     13  C5        22.5310   41.2100    7.9140 C.3   999  LIK999      0.0003
     14  C6        23.4040   40.3130    7.0660 C.3   999  LIK999      0.0000
@<TRIPOS>BOND
     1     3     2   ar
     2     1     2   ar
     3     2     4    1
     4     6     5    2
     5     4     5    1
     6     5     7    1
     7     7     8    1
     8    14    13    1
     9    12    13    1
    10    12    11    1
    11    10     9    2
    12     9     8    1
    13     9    11    1
