@<TRIPOS>MOLECULE
2hm1_LIQ_A_1.pdb
 45 47 0 0 0
SMALL
GASTEIGER

@<TRIPOS>ATOM
      1  C7         8.9890   -1.3060   16.7700 C.3   801  LIQ801      0.1509
      2  C10       12.9980   -2.6930   18.4070 C.3   801  LIQ801      0.1964
      3  N12       14.0650   -4.3850   16.9370 N.am  801  LIQ801     -0.2027
      4  C13       14.7490   -5.5930   16.4430 C.3   801  LIQ801      0.1314
      5  C15       12.3400   -6.4720   16.1240 C.ar  801  LIQ801     -0.0159
      6  C17        9.7520   -6.2670   16.1600 C.ar  801  LIQ801      0.1421
      7  C20       12.2540   -7.2140   17.4890 C.ar  801  LIQ801      0.0256
      8  C21       16.1010   -5.2850   15.7960 C.3   801  LIQ801      0.1894
      9  C22       17.0230   -4.7990   16.8000 C.3   801  LIQ801      0.1237
     10  C24       19.2000   -4.0780   17.5270 C.3   801  LIQ801      0.1151
     11  C26       19.8080   -6.7000   17.7130 C.ar  801  LIQ801     -0.0071
     12  C28       20.3670   -9.1630   17.9000 C.3   801  LIQ801      0.0264
     13  C1         8.8770   -3.1350   13.4440 C.3   801  LIQ801      0.0001
     14  C1A       10.1860   -3.1440   12.6670 C.3   801  LIQ801      0.0000
     15  C2         8.9550   -2.0370   14.5040 C.3   801  LIQ801      0.0018
     16  C3         8.8600   -2.5460   15.9570 C.3   801  LIQ801      0.0253
     17  S8        10.5910   -1.3750   17.7340 S.O2  801  LIQ801     -0.0078
     18  O1        11.4130   -0.2940   17.2680 O.2   801  LIQ801     -0.1729
     19  O2        10.2240   -1.1580   19.1310 O.2   801  LIQ801     -0.1729
     20  C9        11.6870   -2.8160   17.5990 C.3   801  LIQ801      0.1817
     21  C11       13.7550   -3.9860   18.2150 C.2   801  LIQ801      0.2631
     22  O3        14.0480   -4.6490   19.2360 O.2   801  LIQ801     -0.2714
     23  C14       13.7070   -6.1790   15.3980 C.3   801  LIQ801      0.0508
     24  C16       11.0730   -6.0150   15.4920 C.ar  801  LIQ801      0.0256
     25  C18        9.6600   -6.9930   17.5000 C.ar  801  LIQ801      0.0592
     26  C19       10.9280   -7.4610   18.1510 C.ar  801  LIQ801      0.1421
     27  O4        16.6300   -6.5100   15.3430 O.3   801  LIQ801     -0.2197
     28  N23       18.4280   -4.4640   16.3520 N.3   801  LIQ801     -0.2105
     29  C25       19.4410   -5.3110   18.3870 C.ar  801  LIQ801     -0.0051
     30  C27       20.0110   -7.8510   18.5870 C.ar  801  LIQ801     -0.0225
     31  C29       19.9210   -7.9030   20.0340 C.ar  801  LIQ801     -0.0043
     32  C30       19.5690   -6.5760   20.7210 C.ar  801  LIQ801     -0.0006
     33  C31       19.3300   -5.2900   19.9130 C.ar  801  LIQ801     -0.0029
     34  C32       19.1470   -9.8580   17.3090 C.3   801  LIQ801      0.0050
     35  N40       12.6720   -2.3500   19.8250 N.am  801  LIQ801     -0.1921
     36  C41       13.3510   -1.3590   20.5580 C.2   801  LIQ801      0.2667
     37  O5        14.3490   -0.7900   20.1000 O.2   801  LIQ801     -0.2683
     38  F19       10.8890   -8.0870   19.2920 F     801  LIQ801     -0.2041
     39  F17        8.7010   -5.8520   15.5710 F     801  LIQ801     -0.2041
     40  C43       12.8470   -0.9920   21.9400 C.ar  801  LIQ801      0.0742
     41  C45       13.5210   -0.0310   22.6710 C.ar  801  LIQ801      0.1034
     42  N44       13.0710    0.3040   23.9330 N.ar  801  LIQ801     -0.2422
     43  C46       11.9270   -0.2890   24.5550 C.ar  801  LIQ801      0.0989
     44  C47       11.2130   -1.2890   23.8110 C.ar  801  LIQ801      0.0208
     45  C48       11.6730   -1.6540   22.4870 C.ar  801  LIQ801      0.0077
@<TRIPOS>BOND
     1    14    13    1
     2    13    15    1
     3    15    16    1
     4    27     8    1
     5    23     5    1
     6    23     4    1
     7    24     5   ar
     8    24     6   ar
     9    39     6    1
    10     8     4    1
    11     8     9    1
    12    16     1    1
    13     5     7   ar
    14     6    25   ar
    15    28     9    1
    16    28    10    1
    17     4     3    1
    18     1    17    1
    19     3    21   am
    20    18    17    2
    21    34    12    1
    22     7    26   ar
    23    25    26   ar
    24    10    29    1
    25    20    17    1
    26    20     2    1
    27    11    29   ar
    28    11    30   ar
    29    17    19    2
    30    12    30    1
    31    26    38    1
    32    21     2    1
    33    21    22    2
    34    29    33   ar
    35     2    35    1
    36    30    31   ar
    37    35    36   am
    38    33    32   ar
    39    31    32   ar
    40    37    36    2
    41    36    40    1
    42    40    45   ar
    43    40    41   ar
    44    45    44   ar
    45    41    42   ar
    46    44    43   ar
    47    42    43   ar
