@<TRIPOS>MOLECULE
2hm9_TRR_A_1.pdb
 40 41 0 0 0
SMALL
GASTEIGER

@<TRIPOS>ATOM
      1  N1         3.0320   -0.1740   -6.0260 N.pl3 170  TRR170     -0.2834
      2  C2         1.9590   -0.8820   -5.5270 C.cat 170  TRR170      0.2366
      3  N2         1.4760   -1.9610   -6.2190 N.pl3 170  TRR170     -0.3207
      4  N3         1.3770   -0.5160   -4.3380 N.2   170  TRR170     -0.3592
      5  C4         1.8580    0.5560   -3.6430 C.2   170  TRR170      0.1762
      6  N4         1.2780    0.9090   -2.4650 N.pl3 170  TRR170     -0.3331
      7  C5         2.9370    1.2710   -4.1320 C.2   170  TRR170      0.0227
      8  C6         3.5270    0.8940   -5.3390 C.2   170  TRR170      0.0049
      9  C7         3.4460    2.4740   -3.3640 C.3   170  TRR170      0.0033
     10  C11        4.8220    2.9060   -3.7370 C.ar  170  TRR170     -0.0357
     11  C12        5.0390    3.6270   -4.9010 C.ar  170  TRR170     -0.0126
     12  C13        6.3270    4.0360   -5.2300 C.ar  170  TRR170      0.1654
     13  C14        7.3870    3.7340   -4.4000 C.ar  170  TRR170      0.2035
     14  C15        7.1780    3.0150   -3.2400 C.ar  170  TRR170      0.1654
     15  C16        5.8760    2.6020   -2.9060 C.ar  170  TRR170     -0.0126
     16  O13        6.5530    4.7540   -6.3900 O.3   170  TRR170     -0.4913
     17  O14        8.6640    4.1440   -4.7350 O.3   170  TRR170     -0.4885
     18  O15        8.2450    2.7180   -2.4080 O.3   170  TRR170     -0.4913
     19  C17        5.4720    5.4210   -6.9680 C.3   170  TRR170      0.0790
     20  C18        9.5650    3.1790   -5.1810 C.3   170  TRR170      0.0791
     21  C19        7.9650    2.3810   -1.0640 C.3   170  TRR170      0.0790
     22  H1         3.4410   -0.4390   -6.8900 H     170  TRR170      0.1552
     23  H21        1.3960   -2.8370   -5.7820 H     170  TRR170      0.1459
     24  H22        1.3760   -1.9170   -7.2040 H     170  TRR170      0.1459
     25  H41        0.3340    1.2190   -2.4440 H     170  TRR170      0.1447
     26  H42        1.7240    0.6640   -1.6140 H     170  TRR170      0.1447
     27  H6         4.3880    1.4440   -5.7300 H     170  TRR170      0.0787
     28  H71        3.4190    2.2490   -2.2930 H     170  TRR170      0.0363
     29  H72        2.7760    3.2890   -3.5380 H     170  TRR170      0.0363
     30  H12        4.2060    3.8650   -5.5610 H     170  TRR170      0.0658
     31  H16        5.6950    2.0330   -1.9880 H     170  TRR170      0.0658
     32 H171        4.8390    5.9010   -6.2150 H     170  TRR170      0.0660
     33 H172        5.8120    6.1950   -7.6550 H     170  TRR170      0.0660
     34 H173        4.8380    4.7340   -7.5400 H     170  TRR170      0.0660
     35 H181        9.1210    2.5390   -5.9370 H     170  TRR170      0.0660
     36 H182        9.8910    2.5400   -4.3650 H     170  TRR170      0.0660
     37 H183       10.4530    3.6220   -5.6180 H     170  TRR170      0.0660
     38 H191        7.7720    1.3200   -0.9610 H     170  TRR170      0.0660
     39 H192        7.0870    2.8980   -0.6960 H     170  TRR170      0.0660
     40 H193        8.7780    2.6360   -0.4150 H     170  TRR170      0.0660
@<TRIPOS>BOND
     1    33    19    1
     2    34    19    1
     3    24     3    1
     4    19    16    1
     5    19    32    1
     6    22     1    1
     7    16    12    1
     8     3    23    1
     9     3     2    1
    10     1     2    1
    11     1     8    1
    12    35    20    1
    13    27     8    1
    14    37    20    1
    15    30    11    1
    16     2     4    2
    17     8     7    2
    18    12    11   ar
    19    12    13   ar
    20    20    17    1
    21    20    36    1
    22    11    10   ar
    23    17    13    1
    24    13    14   ar
    25     4     5    2
    26     7     5    1
    27     7     9    1
    28    10     9    1
    29    10    15   ar
    30     5     6    1
    31    29     9    1
    32     9    28    1
    33    14    15   ar
    34    14    18    1
    35    15    31    1
    36     6    25    1
    37     6    26    1
    38    18    21    1
    39    21    38    1
    40    21    39    1
    41    21    40    1
