@<TRIPOS>MOLECULE
2hma_SAM_A_1.pdb
 27 29 0 0 0
SMALL
GASTEIGER

@<TRIPOS>ATOM
      1  N         27.3400   28.1860    5.5690 N.3   375  SAM375     -0.1208
      2  CA        28.5340   28.8850    6.1540 C.3   375  SAM375      0.1952
      3  C         29.2460   28.1560    7.3220 C.2   375  SAM375      0.3819
      4  O         28.6900   27.2250    7.9140 O.co2 375  SAM375     -0.2441
      5  OXT       30.4040   28.5000    7.6890 O.co2 375  SAM375     -0.2441
      6  CB        28.1960   30.3320    6.5650 C.3   375  SAM375      0.0414
      7  CG        27.6520   30.4970    7.9810 C.3   375  SAM375      0.0503
      8  SD        28.5350   31.6550    9.0610 S.3   375  SAM375     -0.1761
      9  CE        27.7410   33.1510    8.3950 C.3   375  SAM375      0.0590
     10  C5'       27.4850   31.2930   10.5040 C.3   375  SAM375      0.0806
     11  C4'       27.9940   31.7750   11.8610 C.3   375  SAM375      0.1622
     12  O4'       29.3410   31.4350   12.1160 O.3   375  SAM375     -0.3153
     13  C3'       27.9600   33.2780   12.0160 C.3   375  SAM375      0.2168
     14  O3'       26.6500   33.7140   12.2360 O.3   375  SAM375     -0.2175
     15  C2'       28.8610   33.4680   13.1910 C.3   375  SAM375      0.2569
     16  O2'       28.1570   33.2730   14.3930 O.3   375  SAM375     -0.2130
     17  C1'       29.9070   32.3660   13.0020 C.3   375  SAM375      0.3185
     18  N9        31.0920   33.0130   12.4080 N.pl3 375  SAM375     -0.1439
     19  C8        31.4180   33.1300   11.0820 C.3   375  SAM375      0.3377
     20  N7        32.5750   33.8440   10.9560 N.2   375  SAM375     -0.2095
     21  C5        32.9930   34.1670   12.2250 C.2   375  SAM375      0.2526
     22  C6        34.0810   34.8720   12.7390 C.2   375  SAM375      0.4393
     23  N6        34.9970   35.3890   11.9280 N.pl3 375  SAM375      0.2180
     24  N1        34.1980   35.0590   14.1070 N.2   375  SAM375      0.0021
     25  C2        33.2820   34.5560   14.9600 C.3   375  SAM375      0.5254
     26  N3        32.2110   33.8630   14.4610 N.2   375  SAM375     -0.0055
     27  C4        32.0580   33.6720   13.1280 C.2   375  SAM375      0.3518
@<TRIPOS>BOND
     1     1     2    1
     2     2     6    1
     3     2     3    1
     4     6     7    1
     5     3     5   ar
     6     3     4   ar
     7     7     8    1
     8     9     8    1
     9     8    10    1
    10    10    11    1
    11    20    19    1
    12    20    21    2
    13    19    18    1
    14    11    13    1
    15    11    12    1
    16    23    22    1
    17    13    14    1
    18    13    15    1
    19    12    17    1
    20    21    22    1
    21    21    27    1
    22    18    17    1
    23    18    27    1
    24    22    24    2
    25    17    15    1
    26    27    26    2
    27    15    16    1
    28    24    25    1
    29    26    25    1
