@<TRIPOS>MOLECULE
2hmb_PLM_A_1.pdb
 18 17 0 0 0
SMALL
GASTEIGER

@<TRIPOS>ATOM
      1  C1        19.6970   33.9740   53.5800 C.2   133  PLM133      0.3649
      2  O1        19.6530   34.9550   52.8820 O.co2 133  PLM133     -0.2457
      3  O2        19.2260   32.8230   53.2130 O.co2 133  PLM133     -0.2457
      4  C2        20.3350   33.9660   54.9600 C.3   133  PLM133      0.1141
      5  C3        21.4940   34.9450   55.0220 C.3   133  PLM133      0.0118
      6  C4        22.3710   34.8190   56.2570 C.3   133  PLM133      0.0006
      7  C5        23.5050   35.8330   56.2400 C.3   133  PLM133      0.0000
      8  C6        24.0490   36.2020   57.6130 C.3   133  PLM133      0.0000
      9  C7        23.8200   35.1500   58.6860 C.3   133  PLM133      0.0000
     10  C8        23.1690   35.7290   59.9310 C.3   133  PLM133      0.0000
     11  C9        22.6830   34.6630   60.8930 C.3   133  PLM133      0.0000
     12  CA        21.5650   35.1480   61.7950 C.3   133  PLM133      0.0000
     13  CB        20.2070   34.6720   61.3310 C.3   133  PLM133      0.0000
     14  CC        19.5470   35.7190   60.4620 C.3   133  PLM133      0.0000
     15  CD        18.1690   35.3270   59.9830 C.3   133  PLM133      0.0000
     16  CE        17.7080   36.2150   58.8510 C.3   133  PLM133      0.0000
     17  CF        18.0490   35.6100   57.5020 C.3   133  PLM133      0.0000
     18  CG        19.3970   36.0460   56.9540 C.3   133  PLM133      0.0000
@<TRIPOS>BOND
     1     2     1   ar
     2     3     1   ar
     3     1     4    1
     4     4     5    1
     5     5     6    1
     6     7     6    1
     7     7     8    1
     8    18    17    1
     9    17    16    1
    10     8     9    1
    11     9    10    1
    12    16    15    1
    13    10    11    1
    14    15    14    1
    15    14    13    1
    16    11    12    1
    17    13    12    1
