@<TRIPOS>MOLECULE
2hmf_ADP_A_1.pdb
 27 29 0 0 0
SMALL
GASTEIGER

@<TRIPOS>ATOM
      1  PB        37.0060   16.5320   60.8710 P.3   472  ADP472      0.5373
      2  O1B       37.7410   17.8100   60.6170 O.3   472  ADP472     -0.1143
      3  O2B       36.9860   16.1800   62.3320 O.3   472  ADP472     -0.1143
      4  O3B       35.6500   16.4270   60.2160 O.2   472  ADP472     -0.2221
      5  PA        37.2920   14.4620   59.0260 P.3   472  ADP472      0.2231
      6  O1A       35.7840   14.3990   59.1950 O.3   472  ADP472     -0.4370
      7  O2A       38.0450   13.1480   58.9670 O.2   472  ADP472     -0.5169
      8  O3A       37.8830   15.4010   60.1710 O.3   472  ADP472     -0.2261
      9  O5'       37.6790   15.2510   57.6730 O.3   472  ADP472     -0.3111
     10  C5'       39.0360   15.4650   57.3020 C.3   472  ADP472      0.1813
     11  C4'       39.5510   14.2810   56.4900 C.3   472  ADP472      0.1821
     12  O4'       38.7700   14.1120   55.3150 O.3   472  ADP472     -0.3135
     13  C3'       40.9530   14.5090   55.9750 C.3   472  ADP472      0.2184
     14  O3'       41.8810   13.9460   56.8930 O.3   472  ADP472     -0.2174
     15  C2'       40.9890   13.8260   54.6210 C.3   472  ADP472      0.2570
     16  O2'       41.7750   12.6290   54.5710 O.3   472  ADP472     -0.2130
     17  C1'       39.5560   13.3930   54.3660 C.3   472  ADP472      0.3186
     18  N9        39.1870   13.6260   52.9410 N.pl3 472  ADP472     -0.1439
     19  C8        38.5140   12.7410   52.1920 C.3   472  ADP472      0.3377
     20  N7        38.3300   13.1890   50.9250 N.2   472  ADP472     -0.2095
     21  C5        38.9060   14.3930   50.8430 C.2   472  ADP472      0.2526
     22  C6        39.0570   15.4150   49.7830 C.2   472  ADP472      0.4393
     23  N6        38.5520   15.2000   48.5470 N.pl3 472  ADP472      0.2180
     24  N1        39.7210   16.5530   50.1030 N.2   472  ADP472      0.0021
     25  C2        40.2350   16.7570   51.3420 C.3   472  ADP472      0.5254
     26  N3        40.1320   15.8650   52.3540 N.2   472  ADP472     -0.0055
     27  C4        39.4850   14.6820   52.1730 C.2   472  ADP472      0.3518
@<TRIPOS>BOND
     1    23    22    1
     2    22    24    2
     3    22    21    1
     4    24    25    1
     5    21    20    2
     6    21    27    1
     7    20    19    1
     8    25    26    1
     9    27    26    2
    10    27    18    1
    11    19    18    1
    12    18    17    1
    13    17    15    1
    14    17    12    1
    15    16    15    1
    16    15    13    1
    17    12    11    1
    18    13    11    1
    19    13    14    1
    20    11    10    1
    21    10     9    1
    22     9     5    1
    23     7     5    2
    24     5     6    1
    25     5     8    1
    26     8     1    1
    27     4     1    2
    28     2     1    1
    29     1     3    1
