@<TRIPOS>MOLECULE
2hmk_PEY_A_1.pdb
 14 16 0 0 0
SMALL
GASTEIGER

@<TRIPOS>ATOM
      1  C1        13.6300   52.4890   79.7950 C.ar  701  PEY701      0.0000
      2  C2        13.2870   53.6160   80.5080 C.ar  701  PEY701      0.0000
      3  C3        13.1390   53.5300   81.8750 C.ar  701  PEY701      0.0000
      4  C4        13.3330   52.3480   82.5360 C.ar  701  PEY701      0.0000
      5  C5        13.6760   51.2290   81.8160 C.ar  701  PEY701      0.0000
      6  C6        13.8320   51.3010   80.4630 C.ar  701  PEY701      0.0000
      7  C7        14.1720   50.1810   79.7480 C.ar  701  PEY701      0.0000
      8  C8        14.3960   48.9880   80.3860 C.ar  701  PEY701      0.0000
      9  C9        14.2170   48.9260   81.7280 C.ar  701  PEY701      0.0000
     10  C10       13.8760   50.0360   82.4500 C.ar  701  PEY701      0.0000
     11  C11       14.3110   50.2620   78.3890 C.ar  701  PEY701      0.0000
     12  C12       14.6620   49.1450   77.6620 C.ar  701  PEY701      0.0000
     13  C13       14.8550   47.9380   78.3030 C.ar  701  PEY701      0.0000
     14  C14       14.7360   47.8460   79.6700 C.ar  701  PEY701      0.0000
@<TRIPOS>BOND
     1    12    13   ar
     2    12    11   ar
     3    13    14   ar
     4    11     7   ar
     5    14     8   ar
     6     7     8   ar
     7     7     6   ar
     8     1     6   ar
     9     1     2   ar
    10     8     9   ar
    11     6     5   ar
    12     2     3   ar
    13     9    10   ar
    14     5    10   ar
    15     5     4   ar
    16     3     4   ar
