@<TRIPOS>MOLECULE
2hml_PEY_A_1.pdb
 14 16 0 0 0
SMALL
GASTEIGER

@<TRIPOS>ATOM
      1  C1        14.2030   50.1640   79.4960 C.ar  701  PEY701      0.0000
      2  C2        14.5430   49.0130   80.1610 C.ar  701  PEY701      0.0000
      3  C3        14.4210   48.9690   81.5310 C.ar  701  PEY701      0.0000
      4  C4        13.9820   50.0670   82.2400 C.ar  701  PEY701      0.0000
      5  C5        13.6550   51.2240   81.5730 C.ar  701  PEY701      0.0000
      6  C6        13.7660   51.2700   80.2040 C.ar  701  PEY701      0.0000
      7  C7        13.4150   52.4330   79.5430 C.ar  701  PEY701      0.0000
      8  C8        12.9920   53.5460   80.2280 C.ar  701  PEY701      0.0000
      9  C9        12.9030   53.4890   81.5910 C.ar  701  PEY701      0.0000
     10  C10       13.2250   52.3400   82.2720 C.ar  701  PEY701      0.0000
     11  C11       13.4930   52.4850   78.1790 C.ar  701  PEY701      0.0000
     12  C12       13.1890   53.6430   77.5010 C.ar  701  PEY701      0.0000
     13  C13       12.7520   54.7690   78.1540 C.ar  701  PEY701      0.0000
     14  C14       12.6330   54.7090   79.5270 C.ar  701  PEY701      0.0000
@<TRIPOS>BOND
     1    12    13   ar
     2    12    11   ar
     3    13    14   ar
     4    11     7   ar
     5     1     2   ar
     6     1     6   ar
     7    14     8   ar
     8     7     6   ar
     9     7     8   ar
    10     2     3   ar
    11     6     5   ar
    12     8     9   ar
    13     3     4   ar
    14     5     4   ar
    15     5    10   ar
    16     9    10   ar
