@<TRIPOS>MOLECULE
2hmm_AN3_A_1.pdb
 14 16 0 0 0
SMALL
GASTEIGER

@<TRIPOS>ATOM
      1  C1        13.6430   51.7630   80.1270 C.ar  801  AN3801      0.0000
      2  C2        13.2550   53.0680   80.3070 C.ar  801  AN3801      0.0000
      3  C3        13.7580   50.9040   81.1850 C.ar  801  AN3801      0.0000
      4  C4        12.9610   53.5210   81.5570 C.ar  801  AN3801      0.0000
      5  C5        13.4430   51.3590   82.4270 C.ar  801  AN3801      0.0000
      6  C6        13.0710   52.6600   82.6270 C.ar  801  AN3801      0.0000
      7  C7        15.1100   47.4280   78.2120 C.ar  801  AN3801      0.0000
      8  C8        15.0040   48.3090   77.1630 C.ar  801  AN3801      0.0000
      9  C9        14.8340   47.8730   79.4810 C.ar  801  AN3801      0.0000
     10  C10       14.6140   49.6050   77.4050 C.ar  801  AN3801      0.0000
     11  C11       14.4630   49.1730   79.7160 C.ar  801  AN3801      0.0000
     12  C12       14.3490   50.0320   78.6680 C.ar  801  AN3801      0.0000
     13  C13       13.9230   51.3060   78.8670 C.ar  801  AN3801      0.0000
     14  C14       14.1600   49.6100   80.9830 C.ar  801  AN3801      0.0000
@<TRIPOS>BOND
     1     8    10   ar
     2     8     7   ar
     3    10    12   ar
     4     7     9   ar
     5    12    13   ar
     6    12    11   ar
     7    13     1   ar
     8     9    11   ar
     9    11    14   ar
    10     1     2   ar
    11     1     3   ar
    12     2     4   ar
    13    14     3   ar
    14     3     5   ar
    15     4     6   ar
    16     5     6   ar
