@<TRIPOS>MOLECULE
2hmn_AN3_A_1.pdb
 14 16 0 0 0
SMALL
GASTEIGER

@<TRIPOS>ATOM
      1  C1        14.5240   48.8340   79.6610 C.ar  701  AN3701      0.0000
      2  C2        14.9020   47.5490   79.3830 C.ar  701  AN3701      0.0000
      3  C3        14.4720   49.7520   78.6370 C.ar  701  AN3701      0.0000
      4  C4        15.2360   47.2200   78.0850 C.ar  701  AN3701      0.0000
      5  C5        14.8030   49.4080   77.3450 C.ar  701  AN3701      0.0000
      6  C6        15.1930   48.1430   77.0580 C.ar  701  AN3701      0.0000
      7  C7        13.0150   53.1030   81.6360 C.ar  701  AN3701      0.0000
      8  C8        13.0580   52.1880   82.6560 C.ar  701  AN3701      0.0000
      9  C9        13.3480   52.6980   80.3700 C.ar  701  AN3701      0.0000
     10  C10       13.4450   50.8840   82.4330 C.ar  701  AN3701      0.0000
     11  C11       13.7320   51.3970   80.1490 C.ar  701  AN3701      0.0000
     12  C12       13.7840   50.4880   81.1670 C.ar  701  AN3701      0.0000
     13  C13       14.1840   49.1930   80.9400 C.ar  701  AN3701      0.0000
     14  C14       14.0800   51.0350   78.8680 C.ar  701  AN3701      0.0000
@<TRIPOS>BOND
     1     6     5   ar
     2     6     4   ar
     3     5     3   ar
     4     4     2   ar
     5     3    14   ar
     6     3     1   ar
     7    14    11   ar
     8     2     1   ar
     9     1    13   ar
    10    11     9   ar
    11    11    12   ar
    12     9     7   ar
    13    13    12   ar
    14    12    10   ar
    15     7     8   ar
    16    10     8   ar
