@<TRIPOS>MOLECULE
2hmo_3NT_A_1.pdb
 10 10 0 0 0
SMALL
GASTEIGER

@<TRIPOS>ATOM
      1  C1        14.0560   51.0320   78.6780 C.ar  801  3NT801     -0.0202
      2  C2        13.6280   52.0000   79.5790 C.ar  801  3NT801      0.0198
      3  C3        13.7340   51.7930   80.9580 C.ar  801  3NT801      0.1426
      4  C4        14.2720   50.5890   81.4170 C.ar  801  3NT801      0.0241
      5  C5        14.7010   49.6160   80.5170 C.ar  801  3NT801      0.0014
      6  C6        14.5930   49.8330   79.1450 C.ar  801  3NT801     -0.0042
      7  C7        13.9240   51.2920   77.2000 C.3   801  3NT801      0.0311
      8  N3        13.2930   52.7890   81.8600 N.pl3 801  3NT801      0.0577
      9  O1N       12.8860   53.8630   81.4400 O.2   801  3NT801     -0.1261
     10  O2N       13.2910   52.5740   83.2430 O.2   801  3NT801     -0.1261
@<TRIPOS>BOND
     1     7     1    1
     2     1     6   ar
     3     1     2   ar
     4     6     5   ar
     5     2     3   ar
     6     5     4   ar
     7     3     4   ar
     8     3     8    1
     9     9     8    2
    10     8    10    2
