@<TRIPOS>MOLECULE
2hmp_ATP_A_1.pdb
 31 33 0 0 0
SMALL
GASTEIGER

@<TRIPOS>ATOM
      1  PG         9.3810   10.9130   12.0020 P.3   5381  ATP5381     0.5373
      2  O1G        9.2590   12.3150   11.4340 O.2   5381  ATP5381    -0.2221
      3  O2G        8.1500   10.0750   11.8270 O.3   5381  ATP5381    -0.1143
      4  O3G       10.7510   10.3190   11.7600 O.3   5381  ATP5381    -0.1143
      5  PB         8.9700   10.4470   14.8870 P.3   5381  ATP5381     0.2277
      6  O1B        8.7000    9.0470   14.5140 O.2   5381  ATP5381    -0.5168
      7  O2B        9.9320   10.8390   15.9600 O.3   5381  ATP5381    -0.4368
      8  O3B        9.4460   11.2850   13.5910 O.3   5381  ATP5381    -0.2258
      9  PA         6.3100   10.7160   16.0750 P.3   5381  ATP5381     0.2189
     10  O1A        5.2960   10.0340   15.2080 O.2   5381  ATP5381    -0.5170
     11  O2A        6.8190    9.9750   17.2680 O.3   5381  ATP5381    -0.4371
     12  O3A        7.5780   11.2040   15.1960 O.3   5381  ATP5381    -0.2700
     13  O5'        5.7150   12.1380   16.5530 O.3   5381  ATP5381    -0.3112
     14  C5'        6.5070   13.0710   17.3140 C.3   5381  ATP5381     0.1813
     15  C4'        5.9430   14.4800   17.0780 C.3   5381  ATP5381     0.1821
     16  O4'        4.5570   14.4440   17.3980 O.3   5381  ATP5381    -0.3135
     17  C3'        6.5630   15.5640   17.9370 C.3   5381  ATP5381     0.2184
     18  O3'        6.6630   16.7060   17.0820 O.3   5381  ATP5381    -0.2174
     19  C2'        5.5120   15.8350   18.9970 C.3   5381  ATP5381     0.2570
     20  O2'        5.5420   17.1820   19.4890 O.3   5381  ATP5381    -0.2130
     21  C1'        4.2400   15.5680   18.2080 C.3   5381  ATP5381     0.3186
     22  N9         3.1060   15.2190   19.0680 N.pl3 5381  ATP5381    -0.1439
     23  C8         3.0510   14.2090   19.9450 C.3   5381  ATP5381     0.3377
     24  N7         1.8500   14.1660   20.5600 N.2   5381  ATP5381    -0.2095
     25  C5         1.1220   15.1770   20.0520 C.2   5381  ATP5381     0.2526
     26  C6        -0.2290   15.7080   20.2700 C.2   5381  ATP5381     0.4393
     27  N6        -1.0680   15.1150   21.1660 N.pl3 5381  ATP5381     0.2180
     28  N1        -0.6070   16.7730   19.5380 N.2   5381  ATP5381     0.0021
     29  C2         0.1990   17.3570   18.6250 C.3   5381  ATP5381     0.5254
     30  N3         1.4560   16.9300   18.3810 N.2   5381  ATP5381    -0.0055
     31  C4         1.9490   15.8600   19.0590 C.2   5381  ATP5381     0.3518
@<TRIPOS>BOND
     1     2     1    2
     2     4     1    1
     3     3     1    1
     4     1     8    1
     5     8     5    1
     6     6     5    2
     7     5    12    1
     8     5     7    1
     9    12     9    1
    10    10     9    2
    11     9    13    1
    12     9    11    1
    13    13    14    1
    14    15    14    1
    15    15    16    1
    16    15    17    1
    17    18    17    1
    18    16    21    1
    19    17    19    1
    20    21    19    1
    21    21    22    1
    22    30    29    1
    23    30    31    2
    24    29    28    1
    25    19    20    1
    26    31    22    1
    27    31    25    1
    28    22    23    1
    29    28    26    2
    30    23    24    1
    31    25    26    1
    32    25    24    2
    33    26    27    1
