@<TRIPOS>MOLECULE
2hmp_211_A_1.pdb
 10 9 0 0 0
SMALL
GASTEIGER

@<TRIPOS>ATOM
      1  O1        -1.1690  -10.1770    8.7510 O.3   6601  2116601    -0.2189
      2  O2         2.5060  -10.6540    4.0410 O.3   6601  2116601    -0.2189
      3  C1        -1.1590   -9.6700    6.3520 C.3   6601  2116601     0.1082
      4  C2        -1.0740  -10.7460    7.4360 C.3   6601  2116601     0.1993
      5  O3        -3.6670   -9.1590    2.9920 O.3   6601  2116601    -0.2189
      6  C3         0.2920   -9.7700    4.3990 C.3   6601  2116601     0.1082
      7  C4         1.1130  -10.9650    3.9230 C.3   6601  2116601     0.1993
      8  C5        -2.0450  -10.4770    4.1910 C.3   6601  2116601     0.1082
      9  C6        -2.3080   -9.1670    3.4500 C.3   6601  2116601     0.1993
     10  N1        -0.8740  -10.3360    5.0750 N.3   6601  2116601    -0.2660
@<TRIPOS>BOND
     1     5     9    1
     2     9     8    1
     3     7     2    1
     4     7     6    1
     5     8    10    1
     6     6    10    1
     7    10     3    1
     8     3     4    1
     9     4     1    1
