@<TRIPOS>MOLECULE
2hms_NAI_A_1.pdb
 44 48 0 0 0
SMALL
GASTEIGER

@<TRIPOS>ATOM
      1  PA       144.8160   36.0240    2.7440 P.3   601  NAI601      0.2189
      2  O1A      144.5780   37.2160    3.5580 O.3   601  NAI601     -0.4371
      3  O2A      145.4960   36.3390    1.4770 O.2   601  NAI601     -0.5170
      4  O5B      143.4910   35.2450    2.3270 O.3   601  NAI601     -0.3112
      5  C5B      142.3190   35.9350    1.8600 C.3   601  NAI601      0.1813
      6  C4B      141.9960   35.4470    0.4830 C.3   601  NAI601      0.1821
      7  O4B      140.9140   36.3070    0.0220 O.3   601  NAI601     -0.3135
      8  C3B      143.1300   35.6140   -0.5510 C.3   601  NAI601      0.2184
      9  O3B      143.3180   34.4490   -1.3640 O.3   601  NAI601     -0.2174
     10  C2B      142.7190   36.8820   -1.3130 C.3   601  NAI601      0.2570
     11  O2B      143.2120   36.8850   -2.6740 O.3   601  NAI601     -0.2130
     12  C1B      141.1970   36.8540   -1.2280 C.3   601  NAI601      0.3186
     13  N9A      140.6150   38.1930   -1.2700 N.pl3 601  NAI601     -0.1439
     14  C8A      141.0460   39.3530   -0.6510 C.3   601  NAI601      0.3377
     15  N7A      140.2660   40.4370   -0.9020 N.2   601  NAI601     -0.2095
     16  C5A      139.2780   39.9130   -1.7380 C.2   601  NAI601      0.2526
     17  C6A      138.1380   40.5280   -2.3710 C.2   601  NAI601      0.4393
     18  N6A      137.8400   41.8170   -2.2290 N.pl3 601  NAI601      0.2180
     19  N1A      137.3390   39.6990   -3.1580 N.2   601  NAI601      0.0021
     20  C2A      137.6590   38.3520   -3.2970 C.3   601  NAI601      0.5254
     21  N3A      138.6860   37.7010   -2.7530 N.2   601  NAI601     -0.0055
     22  C4A      139.4690   38.5290   -1.9800 C.2   601  NAI601      0.3518
     23  O3       145.5510   34.9440    3.5670 O.3   601  NAI601     -0.2703
     24  PN       145.0610   33.9420    4.7030 P.3   601  NAI601      0.2189
     25  O1N      144.8600   32.6120    4.0560 O.2   601  NAI601     -0.5170
     26  O2N      143.8390   34.5360    5.2840 O.3   601  NAI601     -0.4371
     27  O5D      146.3360   33.8690    5.6670 O.3   601  NAI601     -0.3112
     28  C5D      146.2000   33.2970    6.9900 C.3   601  NAI601      0.1813
     29  C4D      146.5660   34.3480    8.0190 C.3   601  NAI601      0.1799
     30  O4D      147.8400   34.9620    7.6470 O.3   601  NAI601     -0.3327
     31  C3D      145.5260   35.4670    8.1610 C.3   601  NAI601      0.2158
     32  O3D      145.0270   35.6600    9.4990 O.3   601  NAI601     -0.2175
     33  C2D      146.2630   36.6920    7.5810 C.3   601  NAI601      0.2309
     34  O2D      145.7850   37.9100    8.2060 O.3   601  NAI601     -0.2158
     35  C1D      147.7180   36.3480    7.8610 C.3   601  NAI601      0.2263
     36  N1N      148.7050   37.0930    7.0080 N.pl3 601  NAI601     -0.2787
     37  C2N      148.7860   36.6940    5.6650 C.3   601  NAI601      0.1244
     38  C3N      149.7030   37.3800    4.8620 C.2   601  NAI601      0.0544
     39  C7N      149.8910   37.0480    3.3800 C.2   601  NAI601      0.2818
     40  O7N      150.7140   37.6860    2.7340 O.2   601  NAI601     -0.2670
     41  N7N      149.1620   36.0720    2.8140 N.am  601  NAI601     -0.0839
     42  C4N      150.5330   38.4570    5.3970 C.2   601  NAI601      0.0033
     43  C5N      150.3450   38.7550    6.7770 C.2   601  NAI601      0.0157
     44  C6N      149.4650   38.1260    7.6280 C.2   601  NAI601      0.0633
@<TRIPOS>BOND
     1    20    19    1
     2    20    21    1
     3    19    17    2
     4    21    22    2
     5    11    10    1
     6    17    18    1
     7    17    16    1
     8    22    16    1
     9    22    13    1
    10    16    15    2
    11     9     8    1
    12    10    12    1
    13    10     8    1
    14    13    12    1
    15    13    14    1
    16    12     7    1
    17    15    14    1
    18     8     6    1
    19     7     6    1
    20     6     5    1
    21     3     1    2
    22     5     4    1
    23     4     1    1
    24    40    39    2
    25     1     2    1
    26     1    23    1
    27    41    39   am
    28    39    38    1
    29    23    24    1
    30    25    24    2
    31    24    26    1
    32    24    27    1
    33    38    42    2
    34    38    37    1
    35    42    43    1
    36    37    36    1
    37    27    28    1
    38    43    44    2
    39    28    29    1
    40    36    44    1
    41    36    35    1
    42    33    35    1
    43    33    31    1
    44    33    34    1
    45    30    35    1
    46    30    29    1
    47    29    31    1
    48    31    32    1
