@<TRIPOS>MOLECULE
2hmt_NAI_A_1.pdb
 44 48 0 0 0
SMALL
GASTEIGER

@<TRIPOS>ATOM
      1  PA       111.4940   50.5880   17.4220 P.3   601  NAI601      0.2189
      2  O1A      111.1200   50.6360   18.8340 O.3   601  NAI601     -0.4371
      3  O2A      112.5080   51.6090   17.0800 O.2   601  NAI601     -0.5170
      4  O5B      110.2720   50.8560   16.4010 O.3   601  NAI601     -0.3112
      5  C5B      109.9780   52.1610   15.8410 C.3   601  NAI601      0.1813
      6  C4B      109.7720   52.0190   14.3600 C.3   601  NAI601      0.1821
      7  O4B      108.8380   53.0790   13.9840 O.3   601  NAI601     -0.3135
      8  C3B      111.0400   52.2590   13.5200 C.3   601  NAI601      0.2184
      9  O3B      111.2050   51.2870   12.4810 O.3   601  NAI601     -0.2174
     10  C2B      110.8500   53.7030   13.0450 C.3   601  NAI601      0.2570
     11  O2B      111.5040   53.9830   11.7960 O.3   601  NAI601     -0.2130
     12  C1B      109.3510   53.8520   12.9420 C.3   601  NAI601      0.3186
     13  N9A      108.9610   55.2520   13.1270 N.pl3 601  NAI601     -0.1439
     14  C8A      109.4680   56.1850   14.0140 C.3   601  NAI601      0.3377
     15  N7A      108.8880   57.4040   13.9280 N.2   601  NAI601     -0.2095
     16  C5A      107.9510   57.2230   12.9180 C.2   601  NAI601      0.2526
     17  C6A      106.9980   58.1320   12.3320 C.2   601  NAI601      0.4393
     18  N6A      106.8760   59.4010   12.7210 N.pl3 601  NAI601      0.2180
     19  N1A      106.1930   57.6190   11.3230 N.2   601  NAI601      0.0021
     20  C2A      106.3350   56.2910   10.9290 C.3   601  NAI601      0.5254
     21  N3A      107.1840   55.3880   11.4100 N.2   601  NAI601     -0.0055
     22  C4A      107.9720   55.9030   12.4050 C.2   601  NAI601      0.3518
     23  O3       111.9340   49.1310   17.0420 O.3   601  NAI601     -0.2703
     24  PN       112.0210   47.7160   17.8170 P.3   601  NAI601      0.2189
     25  O1N      112.9000   46.8430   16.9790 O.2   601  NAI601     -0.5170
     26  O2N      110.6310   47.2100   17.9770 O.3   601  NAI601     -0.4371
     27  O5D      112.7710   48.0570   19.1900 O.3   601  NAI601     -0.3112
     28  C5D      112.7230   47.0760   20.2580 C.3   601  NAI601      0.1813
     29  C4D      113.3720   47.6280   21.5180 C.3   601  NAI601      0.1799
     30  O4D      114.7050   48.1190   21.2340 O.3   601  NAI601     -0.3327
     31  C3D      112.6160   48.7800   22.1710 C.3   601  NAI601      0.2158
     32  O3D      111.6600   48.3720   23.1650 O.3   601  NAI601     -0.2175
     33  C2D      113.7580   49.6850   22.7200 C.3   601  NAI601      0.2309
     34  O2D      113.6000   49.8970   24.1480 O.3   601  NAI601     -0.2158
     35  C1D      115.0350   48.9360   22.3310 C.3   601  NAI601      0.2263
     36  N1N      116.1890   49.8340   21.9860 N.pl3 601  NAI601     -0.2787
     37  C2N      116.1050   50.5000   20.7520 C.3   601  NAI601      0.1244
     38  C3N      117.1740   51.3360   20.4150 C.2   601  NAI601      0.0544
     39  C7N      117.2090   52.1210   19.0950 C.2   601  NAI601      0.2818
     40  O7N      118.1790   52.8350   18.8550 O.2   601  NAI601     -0.2670
     41  N7N      116.1880   52.0160   18.2260 N.am  601  NAI601     -0.0839
     42  C4N      118.3210   51.5070   21.3100 C.2   601  NAI601      0.0033
     43  C5N      118.2690   50.7680   22.5310 C.2   601  NAI601      0.0157
     44  C6N      117.2550   49.9270   22.9290 C.2   601  NAI601      0.0633
@<TRIPOS>BOND
     1    20    19    1
     2    20    21    1
     3    19    17    2
     4    21    22    2
     5    11    10    1
     6    17    18    1
     7    17    16    1
     8    22    16    1
     9    22    13    1
    10     9     8    1
    11    16    15    2
    12    12    10    1
    13    12    13    1
    14    12     7    1
    15    10     8    1
    16    13    14    1
    17     8     6    1
    18    15    14    1
    19     7     6    1
    20     6     5    1
    21     5     4    1
    22     4     1    1
    23    25    24    2
    24    23     1    1
    25    23    24    1
    26     3     1    2
    27     1     2    1
    28    24    26    1
    29    24    27    1
    30    41    39   am
    31    40    39    2
    32    39    38    1
    33    27    28    1
    34    28    29    1
    35    38    37    1
    36    38    42    2
    37    37    36    1
    38    30    29    1
    39    30    35    1
    40    42    43    1
    41    29    31    1
    42    36    35    1
    43    36    44    1
    44    31    33    1
    45    31    32    1
    46    35    33    1
    47    43    44    2
    48    33    34    1
