@<TRIPOS>MOLECULE
2hmu_ATP_A_1.pdb
 31 33 0 0 0
SMALL
GASTEIGER

@<TRIPOS>ATOM
      1  PG       111.0310   47.5970   19.2990 P.3   601  ATP601      0.5373
      2  O1G      109.6470   47.0510   19.2510 O.2   601  ATP601     -0.2221
      3  O2G      112.0650   46.3900   19.5740 O.3   601  ATP601     -0.1143
      4  O3G      111.1460   48.6870   20.4810 O.3   601  ATP601     -0.1143
      5  PB       112.9660   48.5530   17.6890 P.3   601  ATP601      0.2277
      6  O1B      113.6670   48.5760   18.9990 O.3   601  ATP601     -0.4368
      7  O2B      113.5790   47.3620   16.7910 O.2   601  ATP601     -0.5168
      8  O3B      111.3620   48.3120   17.8740 O.3   601  ATP601     -0.2258
      9  PA       112.2660   51.1210   17.5340 P.3   601  ATP601      0.2189
     10  O1A      112.8760   52.4450   17.2360 O.2   601  ATP601     -0.5170
     11  O2A      112.1150   50.9840   19.1350 O.3   601  ATP601     -0.4371
     12  O3A      113.2290   49.9630   16.9270 O.3   601  ATP601     -0.2700
     13  O5'      110.7910   50.9690   16.8580 O.3   601  ATP601     -0.3112
     14  C5'      110.4240   52.1940   16.2280 C.3   601  ATP601      0.1813
     15  C4'      110.1510   51.9730   14.7360 C.3   601  ATP601      0.1821
     16  O4'      109.1950   52.9790   14.2930 O.3   601  ATP601     -0.3135
     17  C3'      111.4300   52.1460   13.8570 C.3   601  ATP601      0.2184
     18  O3'      111.4480   51.1950   12.7780 O.3   601  ATP601     -0.2174
     19  C2'      111.3280   53.5850   13.3660 C.3   601  ATP601      0.2570
     20  O2'      112.0180   53.8010   12.1300 O.3   601  ATP601     -0.2130
     21  C1'      109.8140   53.7980   13.2620 C.3   601  ATP601      0.3186
     22  N9       109.4630   55.2030   13.4600 N.pl3 601  ATP601     -0.1439
     23  C8       110.0340   56.0850   14.3490 C.3   601  ATP601      0.3377
     24  N7       109.4720   57.2470   14.2470 N.2   601  ATP601     -0.2095
     25  C5       108.5070   57.1950   13.2910 C.2   601  ATP601      0.2526
     26  C6       107.5800   58.1230   12.7420 C.2   601  ATP601      0.4393
     27  N6       107.5440   59.4330   13.1970 N.pl3 601  ATP601      0.2180
     28  N1       106.7350   57.7040   11.7650 N.2   601  ATP601      0.0021
     29  C2       106.7570   56.4450   11.3120 C.3   601  ATP601      0.5254
     30  N3       107.6150   55.5440   11.8030 N.2   601  ATP601     -0.0055
     31  C4       108.4930   55.8740   12.7780 C.2   601  ATP601      0.3518
@<TRIPOS>BOND
     1    29    28    1
     2    29    30    1
     3    28    26    2
     4    30    31    2
     5    20    19    1
     6    26    27    1
     7    26    25    1
     8    31    25    1
     9    31    22    1
    10    18    17    1
    11    21    19    1
    12    21    22    1
    13    21    16    1
    14    25    24    2
    15    19    17    1
    16    22    23    1
    17    17    15    1
    18    24    23    1
    19    16    15    1
    20    15    14    1
    21    14    13    1
    22     7     5    2
    23    13     9    1
    24    12     9    1
    25    12     5    1
    26    10     9    2
    27     9    11    1
    28     5     8    1
    29     5     6    1
    30     8     1    1
    31     2     1    2
    32     1     3    1
    33     1     4    1
