@<TRIPOS>MOLECULE
2hmv_ADP_A_1.pdb
 27 29 0 0 0
SMALL
GASTEIGER

@<TRIPOS>ATOM
      1  PB       113.2460   48.3660   16.9490 P.3   601  ADP601      0.5373
      2  O1B      114.2380   48.9890   17.8610 O.3   601  ADP601     -0.1143
      3  O2B      112.3360   47.3160   17.7720 O.3   601  ADP601     -0.1143
      4  O3B      114.0200   47.5760   15.7780 O.2   601  ADP601     -0.2221
      5  PA       111.4900   50.3560   17.3990 P.3   601  ADP601      0.2231
      6  O1A      111.1080   49.4900   18.5390 O.3   601  ADP601     -0.4370
      7  O2A      112.4170   51.5670   17.9370 O.2   601  ADP601     -0.5169
      8  O3A      112.3110   49.5150   16.2730 O.3   601  ADP601     -0.2261
      9  O5'      110.1160   50.9120   16.7290 O.3   601  ADP601     -0.3111
     10  C5'      110.3940   52.1110   16.0130 C.3   601  ADP601      0.1813
     11  C4'      109.9650   51.9800   14.5470 C.3   601  ADP601      0.1821
     12  O4'      108.9600   52.9990   14.2190 O.3   601  ADP601     -0.3135
     13  C3'      111.1700   52.2060   13.5970 C.3   601  ADP601      0.2184
     14  O3'      111.1270   51.2820   12.5010 O.3   601  ADP601     -0.2174
     15  C2'      110.9990   53.6640   13.1670 C.3   601  ADP601      0.2570
     16  O2'      111.6250   53.9430   11.9170 O.3   601  ADP601     -0.2130
     17  C1'      109.4770   53.8250   13.1300 C.3   601  ADP601      0.3186
     18  N9       109.0940   55.2360   13.3070 N.pl3 601  ADP601     -0.1439
     19  C8       109.6030   56.1370   14.2170 C.3   601  ADP601      0.3377
     20  N7       109.0230   57.2920   14.0780 N.2   601  ADP601     -0.2095
     21  C5       108.1080   57.2170   13.0820 C.2   601  ADP601      0.2526
     22  C6       107.1920   58.1260   12.4810 C.2   601  ADP601      0.4393
     23  N6       107.1020   59.4350   12.9280 N.pl3 601  ADP601      0.2180
     24  N1       106.4050   57.6840   11.4670 N.2   601  ADP601      0.0021
     25  C2       106.4760   56.4190   11.0210 C.3   601  ADP601      0.5254
     26  N3       107.3280   55.5330   11.5580 N.2   601  ADP601     -0.0055
     27  C4       108.1490   55.8880   12.5710 C.2   601  ADP601      0.3518
@<TRIPOS>BOND
     1    25    24    1
     2    25    26    1
     3    24    22    2
     4    26    27    2
     5    16    15    1
     6    22    23    1
     7    22    21    1
     8    14    13    1
     9    27    21    1
    10    27    18    1
    11    21    20    2
    12    17    15    1
    13    17    18    1
    14    17    12    1
    15    15    13    1
    16    18    19    1
    17    13    11    1
    18    20    19    1
    19    12    11    1
    20    11    10    1
    21     4     1    2
    22    10     9    1
    23     8     1    1
    24     8     5    1
    25     9     5    1
    26     1     3    1
    27     1     2    1
    28     5     7    2
    29     5     6    1
