@<TRIPOS>MOLECULE
2hmw_ATP_A_1.pdb
 31 33 0 0 0
SMALL
GASTEIGER

@<TRIPOS>ATOM
      1  PG        47.4740   48.5180   19.0160 P.3   601  ATP601      0.5373
      2  O1G       46.0210   48.5910   18.7480 O.2   601  ATP601     -0.2221
      3  O2G       47.8480   46.9780   19.2650 O.3   601  ATP601     -0.1143
      4  O3G       47.8510   49.3770   20.3280 O.3   601  ATP601     -0.1143
      5  PB        48.0380   50.6370   17.4700 P.3   601  ATP601      0.2277
      6  O1B       48.5000   51.4460   18.6260 O.3   601  ATP601     -0.4368
      7  O2B       48.8640   51.0970   16.1690 O.2   601  ATP601     -0.5168
      8  O3B       48.3100   49.0550   17.7270 O.3   601  ATP601     -0.2258
      9  PA        45.7650   51.8760   18.2370 P.3   601  ATP601      0.2189
     10  O1A       46.3990   53.2270   18.1740 O.2   601  ATP601     -0.5170
     11  O2A       45.9290   51.2840   19.7300 O.3   601  ATP601     -0.4371
     12  O3A       46.4580   50.8650   17.1660 O.3   601  ATP601     -0.2700
     13  O5'       44.1820   51.9660   17.8830 O.3   601  ATP601     -0.3112
     14  C5'       43.9880   52.8720   16.7920 C.3   601  ATP601      0.1813
     15  C4'       43.8230   52.1000   15.4760 C.3   601  ATP601      0.1821
     16  O4'       42.6450   52.5330   14.7400 O.3   601  ATP601     -0.3135
     17  C3'       45.0210   52.3230   14.5470 C.3   601  ATP601      0.2184
     18  O3'       45.2410   51.1530   13.7530 O.3   601  ATP601     -0.2174
     19  C2'       44.6160   53.5440   13.7210 C.3   601  ATP601      0.2570
     20  O2'       45.2020   53.5180   12.4100 O.3   601  ATP601     -0.2130
     21  C1'       43.0680   53.4700   13.7080 C.3   601  ATP601      0.3186
     22  N9        42.4670   54.7910   13.9310 N.pl3 601  ATP601     -0.1439
     23  C8        42.9280   55.8010   14.7360 C.3   601  ATP601      0.3377
     24  N7        42.1230   56.8250   14.6770 N.2   601  ATP601     -0.2095
     25  C5        41.1020   56.5550   13.8270 C.2   601  ATP601      0.2526
     26  C6        39.9300   57.2520   13.3770 C.2   601  ATP601      0.4393
     27  N6        39.6620   58.5370   13.7870 N.pl3 601  ATP601      0.2180
     28  N1        39.1040   56.6470   12.5100 N.2   601  ATP601      0.0021
     29  C2        39.3360   55.4010   12.0850 C.3   601  ATP601      0.5254
     30  N3        40.4130   54.7060   12.4810 N.2   601  ATP601     -0.0055
     31  C4        41.3000   55.2310   13.3560 C.2   601  ATP601      0.3518
@<TRIPOS>BOND
     1    29    30    1
     2    29    28    1
     3    20    19    1
     4    30    31    2
     5    28    26    2
     6    31    25    1
     7    31    22    1
     8    26    27    1
     9    26    25    1
    10    21    19    1
    11    21    22    1
    12    21    16    1
    13    19    17    1
    14    18    17    1
    15    25    24    2
    16    22    23    1
    17    17    15    1
    18    24    23    1
    19    16    15    1
    20    15    14    1
    21     7     5    2
    22    14    13    1
    23    12     5    1
    24    12     9    1
    25     5     8    1
    26     5     6    1
    27     8     1    1
    28    13     9    1
    29    10     9    2
    30     9    11    1
    31     2     1    2
    32     1     3    1
    33     1     4    1
