@<TRIPOS>MOLECULE
2hmy_SAM_B_1.pdb
 27 29 0 0 0
SMALL
GASTEIGER

@<TRIPOS>ATOM
      1  N          7.8460   -0.5570   65.5650 N.3   328  SAM328     -0.1208
      2  CA         7.1500   -1.5060   64.6980 C.3   328  SAM328      0.1952
      3  C          8.2670   -1.8300   63.7160 C.2   328  SAM328      0.3819
      4  O          9.4520   -1.3790   64.0050 O.co2 328  SAM328     -0.2441
      5  OXT        7.9930   -2.0790   62.4640 O.co2 328  SAM328     -0.2441
      6  CB         6.0120   -0.7350   64.0050 C.3   328  SAM328      0.0414
      7  CG         4.9740   -1.5750   63.2630 C.3   328  SAM328      0.0503
      8  SD         3.6350   -0.4070   62.8040 S.3   328  SAM328     -0.1761
      9  CE         3.0480    1.2960   62.9270 C.3   328  SAM328      0.0590
     10  C5'        2.0390   -1.1490   63.0960 C.3   328  SAM328      0.0806
     11  C4'        2.0460   -2.6960   62.8540 C.3   328  SAM328      0.1622
     12  O4'        0.7000   -3.1550   63.2780 O.3   328  SAM328     -0.3153
     13  C3'        2.2570   -3.2320   61.3900 C.3   328  SAM328      0.2168
     14  O3'        3.2270   -4.3390   61.2930 O.3   328  SAM328     -0.2175
     15  C2'        0.8190   -3.9180   61.2670 C.3   328  SAM328      0.2569
     16  O2'        0.8990   -5.0190   60.3610 O.3   328  SAM328     -0.2130
     17  C1'        0.5920   -4.4850   62.7140 C.3   328  SAM328      0.3185
     18  N9        -0.7870   -4.9440   62.8850 N.pl3 328  SAM328     -0.1439
     19  C8        -1.9580   -4.1960   62.5480 C.3   328  SAM328      0.3377
     20  N7        -3.0880   -4.8140   62.9440 N.2   328  SAM328     -0.2095
     21  C5        -2.6430   -6.0540   63.5880 C.2   328  SAM328      0.2526
     22  C6        -3.3250   -7.1520   64.1860 C.2   328  SAM328      0.4393
     23  N6        -4.6680   -7.2670   64.2850 N.pl3 328  SAM328      0.2180
     24  N1        -2.5760   -8.1840   64.6580 N.2   328  SAM328      0.0021
     25  C2        -1.2700   -8.1040   64.5270 C.3   328  SAM328      0.5254
     26  N3        -0.5240   -7.1340   63.9960 N.2   328  SAM328     -0.0055
     27  C4        -1.2650   -6.1280   63.5410 C.2   328  SAM328      0.3518
@<TRIPOS>BOND
     1    16    15    1
     2    15    13    1
     3    15    17    1
     4    14    13    1
     5    13    11    1
     6     5     3   ar
     7    19    18    1
     8    19    20    1
     9    17    18    1
    10    17    12    1
    11     8     9    1
    12     8    10    1
    13     8     7    1
    14    11    10    1
    15    11    12    1
    16    18    27    1
    17    20    21    2
    18     7     6    1
    19    27    21    1
    20    27    26    2
    21    21    22    1
    22     3     4   ar
    23     3     2    1
    24    26    25    1
    25     6     2    1
    26    22    23    1
    27    22    24    2
    28    25    24    1
    29     2     1    1
