@<TRIPOS>MOLECULE
2hnc_1SA_A_1.pdb
 10 10 0 0 0
SMALL
GASTEIGER

@<TRIPOS>ATOM
      1  S1        -5.8090    0.9480   16.5740 S.O2  265  1SA265      0.1178
      2  O1        -7.2360    1.0700   16.4500 O.2   265  1SA265     -0.1483
      3  O2        -5.3720    1.1730   17.9280 O.2   265  1SA265     -0.1483
      4  N1        -5.3340   -0.4610   16.0850 N.3   265  1SA265      0.0413
      5  N2        -3.8050    2.3790   15.3710 N.ar  265  1SA265     -0.1188
      6  N3        -3.5520    3.4730   14.5830 N.ar  265  1SA265     -0.1209
      7  S2        -6.0920    3.5030   14.9420 S.2   265  1SA265     -0.0075
      8  C1        -5.1120    2.1980   15.5310 C.ar  265  1SA265      0.2591
      9  C2        -4.6210    4.2310   14.4250 C.ar  265  1SA265      0.2234
     10  N4        -4.5850    5.3490   13.6810 N.pl3 265  1SA265     -0.0979
@<TRIPOS>BOND
     1    10     9    1
     2     9     6   ar
     3     9     7   ar
     4     6     5   ar
     5     7     8   ar
     6     5     8   ar
     7     8     1    1
     8     4     1    1
     9     2     1    2
    10     1     3    2
