@<TRIPOS>MOLECULE
2hnd_NVP_A_1.pdb
 20 23 0 0 0
SMALL
GASTEIGER

@<TRIPOS>ATOM
      1  N1         2.0550  -37.5580   21.2250 N.pl3 999  NVP999     -0.1562
      2  CA         2.6740  -38.7360   20.5530 C.3   999  NVP999      0.1667
      3  CB         3.0180  -39.8890   21.4250 C.3   999  NVP999      0.0512
      4  CC         1.8670  -39.9820   20.4860 C.3   999  NVP999      0.0512
      5  N3         4.2720  -36.5990   21.4530 N.2   999  NVP999     -0.0337
      6  C4         5.1790  -35.8980   22.1850 C.2   999  NVP999      0.2316
      7  C5         4.8290  -35.2590   23.3920 C.2   999  NVP999      0.0313
      8  C6         3.5090  -35.3460   23.8440 C.3   999  NVP999      0.0868
      9  CD         3.1150  -34.7240   25.1560 C.3   999  NVP999      0.0126
     10  C2         2.9890  -36.6860   21.9030 C.2   999  NVP999      0.3559
     11  C7         2.5640  -36.0420   23.0810 C.2   999  NVP999      0.2076
     12  N8         1.1700  -35.9950   23.4490 N.2   999  NVP999     -0.3293
     13  C9         0.0130  -36.0160   22.7620 C.1   999  NVP999      0.2096
     14  OE        -1.0680  -35.8990   23.3510 O.2   999  NVP999     -0.2091
     15  C10       -0.0110  -36.1490   21.2240 C.ar  999  NVP999      0.1506
     16  C15        0.9700  -36.8910   20.4950 C.ar  999  NVP999      0.2365
     17  C11       -1.1030  -35.6140   20.5150 C.ar  999  NVP999      0.0194
     18  C12       -1.2030  -35.8250   19.1310 C.ar  999  NVP999      0.0217
     19  C13       -0.1920  -36.5670   18.4840 C.ar  999  NVP999      0.1025
     20  N14        0.8690  -37.0840   19.1550 N.ar  999  NVP999     -0.2068
@<TRIPOS>BOND
     1    19    18   ar
     2    19    20   ar
     3    18    17   ar
     4    20    16   ar
     5     4     2    1
     6     4     3    1
     7    16    15   ar
     8    16     1    1
     9    17    15   ar
    10     2     1    1
    11     2     3    1
    12    15    13    1
    13     1    10    1
    14     5    10    2
    15     5     6    1
    16    10    11    1
    17     6     7    2
    18    13    14    2
    19    13    12    2
    20    11    12    2
    21    11     8    1
    22     7     8    1
    23     8     9    1
