@<TRIPOS>MOLECULE
2hnk_SAH_A_1.pdb
 26 28 0 0 0
SMALL
GASTEIGER

@<TRIPOS>ATOM
      1  N         38.8620  -11.2920   14.1060 N.3   2001  SAH2001    -0.1208
      2  CA        37.8730  -11.8430   13.1170 C.3   2001  SAH2001     0.1952
      3  CB        38.4480  -11.8070   11.6980 C.3   2001  SAH2001     0.0422
      4  CG        37.5250  -11.2340   10.6350 C.3   2001  SAH2001     0.0597
      5  SD        38.1860   -9.8780    9.6330 S.3   2001  SAH2001    -0.1375
      6  C         37.3840  -13.2580   13.4750 C.2   2001  SAH2001     0.3819
      7  O         36.4740  -13.7920   12.8340 O.co2 2001  SAH2001    -0.2441
      8  OXT       37.8740  -13.8990   14.4110 O.co2 2001  SAH2001    -0.2441
      9  C5'       37.7760   -8.7010   10.9450 C.3   2001  SAH2001     0.0899
     10  C4'       36.9510   -7.4440   10.6210 C.3   2001  SAH2001     0.1630
     11  O4'       37.7750   -6.3230   10.3640 O.3   2001  SAH2001    -0.3153
     12  C3'       35.9410   -7.4900    9.4770 C.3   2001  SAH2001     0.2168
     13  O3'       34.6400   -7.5430   10.0140 O.3   2001  SAH2001    -0.2175
     14  C2'       36.0950   -6.1480    8.7800 C.3   2001  SAH2001     0.2569
     15  O2'       34.8460   -5.5230    8.5660 O.3   2001  SAH2001    -0.2130
     16  C1'       36.9300   -5.3550    9.7770 C.3   2001  SAH2001     0.3185
     17  N9        37.6260   -4.1710    9.2170 N.pl3 2001  SAH2001    -0.1439
     18  C8        37.9110   -3.8730    7.9040 C.3   2001  SAH2001     0.3377
     19  N7        38.5340   -2.6680    7.8570 N.2   2001  SAH2001    -0.2095
     20  C5        38.6500   -2.1870    9.1200 C.2   2001  SAH2001     0.2526
     21  C6        39.1970   -1.0180    9.6540 C.2   2001  SAH2001     0.4393
     22  N6        39.7500   -0.1010    8.8660 N.pl3 2001  SAH2001     0.2180
     23  N1        39.1620   -0.8060   11.0210 N.2   2001  SAH2001     0.0021
     24  C2        38.5870   -1.7480   11.8570 C.3   2001  SAH2001     0.5254
     25  N3        38.0470   -2.9040   11.3270 N.2   2001  SAH2001    -0.0055
     26  C4        38.0750   -3.1220    9.9830 C.2   2001  SAH2001     0.3518
@<TRIPOS>BOND
     1    19    18    1
     2    19    20    2
     3    18    17    1
     4    15    14    1
     5    14    12    1
     6    14    16    1
     7    22    21    1
     8    20    21    1
     9    20    26    1
    10    17    16    1
    11    17    26    1
    12    12    13    1
    13    12    10    1
    14     5     4    1
    15     5     9    1
    16    21    23    2
    17    16    11    1
    18    26    25    2
    19    11    10    1
    20    10     9    1
    21     4     3    1
    22    23    24    1
    23    25    24    1
    24     3     2    1
    25     7     6   ar
    26     2     6    1
    27     2     1    1
    28     6     8   ar
