@<TRIPOS>MOLECULE
2hnl_GSH_A_1.pdb
 20 19 0 0 0
SMALL
GASTEIGER

@<TRIPOS>ATOM
      1  N1        18.1610   48.5210   30.8840 N.3   501  GSH501     -0.1208
      2  CA1       18.0170   49.1610   29.5900 C.3   501  GSH501      0.1948
      3  C1        18.1160   48.3190   28.3910 C.2   501  GSH501      0.3819
      4  O11       17.2520   48.0740   27.4550 O.co2 501  GSH501     -0.2441
      5  O12       19.3830   47.8100   28.3900 O.co2 501  GSH501     -0.2441
      6  CB1       18.0000   50.6900   29.4090 C.3   501  GSH501      0.0402
      7  CG1       17.3880   51.0540   28.0670 C.3   501  GSH501      0.0889
      8  CD1       17.3990   52.5760   27.9600 C.2   501  GSH501      0.2418
      9  OE1       17.8260   53.3480   29.0290 O.2   501  GSH501     -0.2733
     10  N2        17.0200   53.1210   26.8220 N.am  501  GSH501     -0.1968
     11  CA2       17.1580   54.5390   26.5670 C.3   501  GSH501      0.1843
     12  C2        15.7820   55.1020   26.4940 C.2   501  GSH501      0.2627
     13  O2        14.7100   54.2250   26.3590 O.2   501  GSH501     -0.2714
     14  CB2       17.8330   54.7810   25.2290 C.3   501  GSH501      0.0997
     15  SG2       19.5310   54.1970   25.1490 S.3   501  GSH501     -0.0797
     16  N3        15.6390   56.4190   26.5810 N.am  501  GSH501     -0.1917
     17  CA3       14.3540   57.0650   26.4570 C.3   501  GSH501      0.2285
     18  C3        13.6060   57.0630   27.7650 C.2   501  GSH501      0.3865
     19  O31       12.4620   57.6580   27.9360 O.co2 501  GSH501     -0.2437
     20  O32       14.1430   56.4260   28.8580 O.co2 501  GSH501     -0.2437
@<TRIPOS>BOND
     1    15    14    1
     2    14    11    1
     3    13    12    2
     4    17    16    1
     5    17    18    1
     6    12    11    1
     7    12    16   am
     8    11    10    1
     9    10     8   am
    10     4     3   ar
    11    18    19   ar
    12    18    20   ar
    13     8     7    1
    14     8     9    2
    15     7     6    1
    16     5     3   ar
    17     3     2    1
    18     6     2    1
    19     2     1    1
