@<TRIPOS>MOLECULE
2hnu_TYR_A_1.pdb
 13 13 0 0 0
SMALL
GASTEIGER

@<TRIPOS>ATOM
      1  N         61.7430    8.5530   69.8620 N.3     2  TYR2       -0.1205
      2  CA        62.3630    9.5910   70.6760 C.3     2  TYR2        0.1986
      3  C         62.4490   10.9290   69.9450 C.2     2  TYR2        0.3822
      4  O         61.8950   11.9270   70.4670 O.co2   2  TYR2       -0.2440
      5  CB        63.7610    9.1450   71.1300 C.3     2  TYR2        0.0569
      6  CG        63.7190    7.8810   71.9580 C.ar    2  TYR2       -0.0200
      7  CD1       63.9660    6.6360   71.3810 C.ar    2  TYR2       -0.0009
      8  CD2       63.3180    7.9210   73.2960 C.ar    2  TYR2       -0.0009
      9  CE1       63.8050    5.4620   72.1150 C.ar    2  TYR2        0.0417
     10  CE2       63.1520    6.7580   74.0330 C.ar    2  TYR2        0.0417
     11  CZ        63.3930    5.5310   73.4340 C.ar    2  TYR2        0.1957
     12  OH        63.1770    4.3810   74.1510 O.3     2  TYR2       -0.2866
     13  OXT       63.0610   10.9610   68.8650 O.co2   2  TYR2       -0.2440
@<TRIPOS>BOND
     1    13     3   ar
     2     1     2    1
     3     3     4   ar
     4     3     2    1
     5     2     5    1
     6     5     6    1
     7     7     6   ar
     8     7     9   ar
     9     6     8   ar
    10     9    11   ar
    11     8    10   ar
    12    11    10   ar
    13    11    12    1
