@<TRIPOS>MOLECULE
2hnu_PHE_A_1.pdb
 11 11 0 0 0
SMALL
GASTEIGER

@<TRIPOS>ATOM
      1  N         58.4310    7.1070   69.2110 N.3     1  PHE1       -0.1241
      2  CA        59.8680    7.3540   68.8680 C.3     1  PHE1        0.1605
      3  C         60.4220    8.4910   69.7240 C.2     1  PHE1        0.2264
      4  O         59.6640    9.2970   70.2530 O.2     1  PHE1       -0.2867
      5  CB        60.0060    7.6870   67.3720 C.3     1  PHE1        0.0534
      6  CG        59.4800    9.0500   66.9910 C.ar    1  PHE1       -0.0203
      7  CD1       60.3000   10.1710   67.0630 C.ar    1  PHE1       -0.0042
      8  CD2       58.1610    9.2110   66.5760 C.ar    1  PHE1       -0.0042
      9  CE1       59.8120   11.4410   66.7250 C.ar    1  PHE1       -0.0003
     10  CE2       57.6600   10.4770   66.2380 C.ar    1  PHE1       -0.0003
     11  CZ        58.4830   11.5890   66.3120 C.ar    1  PHE1       -0.0000
@<TRIPOS>BOND
     1    10    11   ar
     2    10     8   ar
     3    11     9   ar
     4     8     6   ar
     5     9     7   ar
     6     6     7   ar
     7     6     5    1
     8     5     2    1
     9     2     1    1
    10     2     3    1
    11     3     4    2
