@<TRIPOS>MOLECULE
2hnv_PHE_A_1.pdb
 11 11 0 0 0
SMALL
GASTEIGER

@<TRIPOS>ATOM
      1  N         52.6810   -7.1430    5.5110 N.3     1  PHE1       -0.1241
      2  CA        51.2600   -7.3680    5.1300 C.3     1  PHE1        0.1605
      3  C         50.6800   -8.4790    6.0010 C.2     1  PHE1        0.2264
      4  O         51.4190   -9.2990    6.5440 O.2     1  PHE1       -0.2867
      5  CB        51.1660   -7.7350    3.6460 C.3     1  PHE1        0.0534
      6  CG        51.6570   -9.1140    3.3190 C.ar    1  PHE1       -0.0203
      7  CD1       50.8150  -10.2180    3.4520 C.ar    1  PHE1       -0.0042
      8  CD2       52.9570   -9.3110    2.8560 C.ar    1  PHE1       -0.0042
      9  CE1       51.2640  -11.5030    3.1240 C.ar    1  PHE1       -0.0003
     10  CE2       53.4160  -10.5870    2.5250 C.ar    1  PHE1       -0.0003
     11  CZ        52.5700  -11.6830    2.6580 C.ar    1  PHE1       -0.0000
@<TRIPOS>BOND
     1    10    11   ar
     2    10     8   ar
     3    11     9   ar
     4     8     6   ar
     5     9     7   ar
     6     6     7   ar
     7     6     5    1
     8     5     2    1
     9     2     1    1
    10     2     3    1
    11     3     4    2
