@<TRIPOS>MOLECULE
2hnv_TYR_A_1.pdb
 13 13 0 0 0
SMALL
GASTEIGER

@<TRIPOS>ATOM
      1  N         49.3640   -8.5180    6.1350 N.3     2  TYR2       -0.1205
      2  CA        48.7520   -9.5210    6.9930 C.3     2  TYR2        0.1986
      3  C         48.6880  -10.9120    6.3990 C.2     2  TYR2        0.3822
      4  O         49.2840  -11.8070    7.0330 O.co2   2  TYR2       -0.2440
      5  CB        47.3490   -9.0750    7.4210 C.3     2  TYR2        0.0569
      6  CG        47.3770   -7.8160    8.2510 C.ar    2  TYR2       -0.0200
      7  CD1       47.0510   -6.5770    7.6940 C.ar    2  TYR2       -0.0009
      8  CD2       47.7990   -7.8550    9.5760 C.ar    2  TYR2       -0.0009
      9  CE1       47.1550   -5.4080    8.4420 C.ar    2  TYR2        0.0417
     10  CE2       47.9030   -6.7070   10.3230 C.ar    2  TYR2        0.0417
     11  CZ        47.5830   -5.4860    9.7500 C.ar    2  TYR2        0.1957
     12  OH        47.7130   -4.3500   10.5020 O.3     2  TYR2       -0.2866
     13  OXT       48.0510  -11.0890    5.3320 O.co2   2  TYR2       -0.2440
@<TRIPOS>BOND
     1    13     3   ar
     2     1     2    1
     3     3     2    1
     4     3     4   ar
     5     2     5    1
     6     5     6    1
     7     7     6   ar
     8     7     9   ar
     9     6     8   ar
    10     9    11   ar
    11     8    10   ar
    12    11    10   ar
    13    11    12    1
