@<TRIPOS>MOLECULE
2hnx_PLM_A_1.pdb
 18 17 0 0 0
SMALL
GASTEIGER

@<TRIPOS>ATOM
      1  C1        26.2330   48.3590   15.4780 C.2   135  PLM135      0.3649
      2  O1        26.4050   49.5320   15.0820 O.co2 135  PLM135     -0.2457
      3  O2        26.9170   47.4610   14.9330 O.co2 135  PLM135     -0.2457
      4  C2        25.2380   48.0670   16.5860 C.3   135  PLM135      0.1141
      5  C3        25.4140   46.6810   17.2120 C.3   135  PLM135      0.0118
      6  C4        25.0650   46.7170   18.7000 C.3   135  PLM135      0.0006
      7  C5        26.0510   45.9340   19.5640 C.3   135  PLM135      0.0000
      8  C6        25.5740   45.9000   21.0160 C.3   135  PLM135      0.0000
      9  C7        26.7110   45.7960   22.0350 C.3   135  PLM135      0.0000
     10  C8        26.6710   47.0280   22.9370 C.3   135  PLM135      0.0000
     11  C9        27.9860   47.3890   23.6280 C.3   135  PLM135      0.0000
     12  CA        29.2110   47.5290   22.7240 C.3   135  PLM135      0.0000
     13  CB        28.9680   48.4640   21.5430 C.3   135  PLM135      0.0000
     14  CC        30.1730   48.4630   20.6190 C.3   135  PLM135      0.0000
     15  CD        30.1480   49.6910   19.7130 C.3   135  PLM135      0.0000
     16  CE        31.0070   49.4950   18.4690 C.3   135  PLM135      0.0000
     17  CF        30.5450   48.3090   17.6230 C.3   135  PLM135      0.0000
     18  CG        29.1260   48.5050   17.1040 C.3   135  PLM135      0.0000
@<TRIPOS>BOND
     1     3     1   ar
     2     2     1   ar
     3     1     4    1
     4     4     5    1
     5    18    17    1
     6     5     6    1
     7    17    16    1
     8    16    15    1
     9     6     7    1
    10     7     8    1
    11    15    14    1
    12    14    13    1
    13     8     9    1
    14    13    12    1
    15     9    10    1
    16    12    11    1
    17    10    11    1
