@<TRIPOS>MOLECULE
2hny_NVP_A_1.pdb
 20 23 0 0 0
SMALL
GASTEIGER

@<TRIPOS>ATOM
      1  N1         2.1040  -37.6880   21.2250 N.pl3 999  NVP999     -0.1562
      2  CA         2.6920  -38.9130   20.6210 C.3   999  NVP999      0.1667
      3  CB         2.9380  -40.0510   21.5440 C.3   999  NVP999      0.0512
      4  CC         1.8250  -40.1150   20.5580 C.3   999  NVP999      0.0512
      5  N3         4.3470  -36.8340   21.4840 N.2   999  NVP999     -0.0337
      6  C4         5.2440  -36.1100   22.1910 C.2   999  NVP999      0.2316
      7  C5         4.8730  -35.3660   23.3280 C.2   999  NVP999      0.0313
      8  C6         3.5410  -35.3710   23.7370 C.3   999  NVP999      0.0868
      9  CD         3.1300  -34.6360   24.9900 C.3   999  NVP999      0.0126
     10  C2         3.0490  -36.8370   21.8870 C.2   999  NVP999      0.3559
     11  C7         2.5990  -36.1020   22.9950 C.2   999  NVP999      0.2076
     12  N8         1.1940  -36.0450   23.3340 N.2   999  NVP999     -0.3293
     13  C9         0.0590  -36.0960   22.6100 C.1   999  NVP999      0.2096
     14  OE        -1.0460  -36.0110   23.1520 O.2   999  NVP999     -0.2091
     15  C10        0.1020  -36.2530   21.0870 C.ar  999  NVP999      0.1506
     16  C15        1.1100  -37.0070   20.4260 C.ar  999  NVP999      0.2365
     17  C11       -0.9060  -35.6800   20.3150 C.ar  999  NVP999      0.0194
     18  C12       -0.8970  -35.8500   18.9270 C.ar  999  NVP999      0.0217
     19  C13        0.1390  -36.5980   18.3420 C.ar  999  NVP999      0.1025
     20  N14        1.1260  -37.1670   19.0800 N.ar  999  NVP999     -0.2068
@<TRIPOS>BOND
     1    19    18   ar
     2    19    20   ar
     3    18    17   ar
     4    20    16   ar
     5    17    15   ar
     6    16    15   ar
     7    16     1    1
     8     4     2    1
     9     4     3    1
    10     2     1    1
    11     2     3    1
    12    15    13    1
    13     1    10    1
    14     5    10    2
    15     5     6    1
    16    10    11    1
    17     6     7    2
    18    13    14    2
    19    13    12    2
    20    11    12    2
    21    11     8    1
    22     7     8    1
    23     8     9    1
