@<TRIPOS>MOLECULE
2hnz_PC0_A_1.pdb
 23 24 0 0 0
SMALL
GASTEIGER

@<TRIPOS>ATOM
      1  C1        -0.2180  -36.8200   19.1470 C.ar  999  PC0999      0.1535
      2  N2        -0.0790  -36.9420   20.5100 N.ar  999  PC0999     -0.2277
      3  C3        -1.0630  -36.4900   21.3740 C.ar  999  PC0999      0.0961
      4  C4        -2.2340  -35.8880   20.8660 C.ar  999  PC0999     -0.0026
      5  C5        -2.3920  -35.7540   19.4780 C.ar  999  PC0999      0.0002
      6  C6        -1.3820  -36.2180   18.6200 C.ar  999  PC0999      0.0359
      7  CL7       -3.4620  -35.3240   21.9270 C.3   999  PC0999      0.0327
      8  N8         0.7210  -37.2570   18.2810 N.am  999  PC0999     -0.1717
      9  C9         1.8880  -37.8640   18.5120 C.2   999  PC0999      0.1758
     10  S9         3.0990  -37.8660   17.2720 S.2   999  PC0999     -0.0151
     11  N10        2.0340  -38.4450   19.7030 N.am  999  PC0999     -0.2160
     12  C11        3.2480  -39.1610   20.0350 C.3   999  PC0999      0.1205
     13  C12        3.2920  -39.4700   21.5080 C.3   999  PC0999      0.0716
     14  C13        3.4010  -38.1730   22.2740 C.ar  999  PC0999      0.0911
     15  N14        4.5750  -37.4250   22.1980 N.ar  999  PC0999     -0.2456
     16  C15        4.7300  -36.2410   22.8920 C.ar  999  PC0999      0.1017
     17  C16        3.6770  -35.7660   23.7040 C.ar  999  PC0999      0.0599
     18  C17        2.4720  -36.5070   23.8040 C.ar  999  PC0999      0.1685
     19  C18        2.3250  -37.7220   23.0770 C.ar  999  PC0999      0.1873
     20  O17        1.4380  -36.1030   24.6610 O.3   999  PC0999     -0.4731
     21  CA         0.8000  -34.8600   24.4420 C.3   999  PC0999      0.2056
     22  CB        -0.0970  -34.6010   25.6480 C.3   999  PC0999      0.0512
     23  F18        1.1910  -38.4260   23.1460 F     999  PC0999     -0.1997
@<TRIPOS>BOND
     1    10     9    2
     2     8     9    1
     3     8     1    1
     4     9    11    1
     5     6     1   ar
     6     6     5   ar
     7     1     2   ar
     8     5     4   ar
     9    11    12    1
    10    12    13    1
    11     2     3   ar
    12     4     3   ar
    13     4     7    1
    14    13    14    1
    15    15    14   ar
    16    15    16   ar
    17    14    19   ar
    18    16    17   ar
    19    19    23    1
    20    19    18   ar
    21    17    18   ar
    22    18    20    1
    23    21    20    1
    24    21    22    1
