@<TRIPOS>MOLECULE
2hob_3IH_A_1.pdb
 49 51 0 0 0
SMALL
GASTEIGER

@<TRIPOS>ATOM
      1  N1         0.6530   -9.6070  109.9890 N.ar  1145  3IH1145    -0.0726
      2  C1         0.6670  -10.5700  109.2020 C.ar  1145  3IH1145     0.1774
      3  C2         0.2280   -9.7530  107.8000 C.ar  1145  3IH1145     0.0627
      4  C3        -0.0330   -8.4530  108.1650 C.ar  1145  3IH1145     0.1550
      5  O1         0.1880   -8.2880  109.4960 O.2   1145  3IH1145    -0.3576
      6  C4         1.9130  -11.5160  108.9050 C.2   1145  3IH1145     0.2862
      7  O2         2.4720  -11.8300  107.8030 O.2   1145  3IH1145    -0.2666
      8  N2         1.9400  -12.3320  110.0110 N.am  1145  3IH1145    -0.1926
      9  C5         2.5870  -13.6670  110.0360 C.3   1145  3IH1145     0.1732
     10  C6         2.4560  -14.3370  111.4210 C.3   1145  3IH1145     0.0334
     11  C7         1.9520  -14.5840  108.9940 C.2   1145  3IH1145     0.2616
     12  O3         0.7180  -14.6670  108.9110 O.2   1145  3IH1145    -0.2715
     13  N3         3.2200  -14.9890  108.1440 N.am  1145  3IH1145    -0.1963
     14  C8         2.9070  -15.9860  107.1330 C.3   1145  3IH1145     0.1727
     15  C9         3.2340  -15.4410  105.7050 C.3   1145  3IH1145     0.0290
     16  C10        2.9150  -16.4460  104.6250 C.3   1145  3IH1145     0.0023
     17  C11        2.4350  -14.1560  105.4470 C.3   1145  3IH1145     0.0023
     18  C12        3.6910  -17.2490  107.4470 C.2   1145  3IH1145     0.2616
     19  O4         4.9210  -17.2150  107.5630 O.2   1145  3IH1145    -0.2715
     20  N4         2.9780  -18.3650  107.5800 N.am  1145  3IH1145    -0.1963
     21  C13        3.6140  -19.6400  107.8710 C.3   1145  3IH1145     0.1728
     22  C14        2.5160  -20.6330  108.2780 C.3   1145  3IH1145     0.0311
     23  C15        2.3550  -21.0870  109.7450 C.3   1145  3IH1145     0.0022
     24  C16        2.7690  -20.0230  110.7630 C.3   1145  3IH1145     0.0001
     25  C17        0.8840  -21.4830  109.9620 C.3   1145  3IH1145     0.0001
     26  C19        6.4320  -20.8310  105.5770 C.3   1145  3IH1145     0.0970
     27  C20        6.9230  -22.2750  105.6200 C.3   1145  3IH1145     0.0333
     28  C21        5.6880  -22.8090  104.8740 C.3   1145  3IH1145     0.1113
     29  C22        6.0400  -24.1120  104.1880 C.2   1145  3IH1145     0.3174
     30  O6         7.0100  -24.8500  104.1000 O.2   1145  3IH1145    -0.2501
     31  O7         4.8260  -24.2830  103.6470 O.3   1145  3IH1145    -0.4435
     32  C23        4.3700  -25.4360  102.9740 C.3   1145  3IH1145     0.2350
     33  C24        2.8510  -25.3490  102.8070 C.ar  1145  3IH1145     0.0213
     34  C25        7.8980  -20.1870  105.1080 C.3   1145  3IH1145     0.0383
     35  C26        7.6540  -18.7310  104.6630 C.3   1145  3IH1145     0.1100
     36  C27        7.1630  -18.5590  103.2070 C.3   1145  3IH1145     0.0438
     37  C28        7.7740  -17.2400  102.6890 C.3   1145  3IH1145     0.1387
     38  N6         8.8980  -17.0440  103.5950 N.2   1145  3IH1145    -0.2063
     39  C29        8.8630  -17.8360  104.6860 C.1   1145  3IH1145     0.1250
     40  O8         9.6950  -17.7670  105.5900 O.2   1145  3IH1145    -0.2271
     41  C30        2.0890  -24.4520  103.6450 C.ar  1145  3IH1145    -0.0007
     42  C31        0.6780  -24.3090  103.5350 C.ar  1145  3IH1145    -0.0002
     43  C32       -0.0470  -25.0790  102.5690 C.ar  1145  3IH1145    -0.0000
     44  C33        0.6620  -26.0070  101.6840 C.ar  1145  3IH1145    -0.0002
     45  C34        2.1190  -26.1500  101.8020 C.ar  1145  3IH1145    -0.0007
     46  C35       -0.4980   -7.3570  107.2390 C.3   1145  3IH1145     0.0754
     47  C18        4.3500  -20.1020  106.6190 C.2   1145  3IH1145     0.2612
     48  O5         3.7160  -20.1980  105.5520 O.2   1145  3IH1145    -0.2715
     49  N5         5.6690  -20.3740  106.7520 N.am  1145  3IH1145    -0.2057
@<TRIPOS>BOND
     1    44    45   ar
     2    44    43   ar
     3    45    33   ar
     4    43    42   ar
     5    37    36    1
     6    37    38    1
     7    33    32    1
     8    33    41   ar
     9    32    31    1
    10    36    35    1
    11    42    41   ar
    12    38    39    2
    13    31    29    1
    14    30    29    2
    15    29    28    1
    16    16    15    1
    17    35    39    1
    18    35    34    1
    19    39    40    2
    20    28    27    1
    21    34    26    1
    22    17    15    1
    23    48    47    2
    24    26    27    1
    25    26    49    1
    26    15    14    1
    27    47    49   am
    28    47    21    1
    29    14    18    1
    30    14    13    1
    31    46     4    1
    32    18    19    2
    33    18    20   am
    34    20    21    1
    35     3     4   ar
    36     3     2   ar
    37     7     6    2
    38    21    22    1
    39    13    11   am
    40     4     5   ar
    41    22    23    1
    42     6     2    1
    43     6     8   am
    44    12    11    2
    45    11     9    1
    46     2     1   ar
    47     5     1   ar
    48    23    25    1
    49    23    24    1
    50     8     9    1
    51     9    10    1
