@<TRIPOS>MOLECULE
2hoc_1CN_A_1.pdb
 22 23 0 0 0
SMALL
GASTEIGER

@<TRIPOS>ATOM
      1  S1        -5.7200    0.8180   16.6140 S.O2  265  1CN265      0.1178
      2  O1        -7.1140    0.9350   16.5620 O.2   265  1CN265     -0.1483
      3  O2        -5.2540    1.0250   17.9420 O.2   265  1CN265     -0.1483
      4  N1        -5.2880   -0.6130   16.1320 N.3   265  1CN265      0.0413
      5  N2        -3.7220    2.3480   15.4350 N.ar  265  1CN265     -0.1188
      6  N3        -3.5280    3.4480   14.6020 N.ar  265  1CN265     -0.1209
      7  S2        -5.9640    3.3760   15.0470 S.2   265  1CN265     -0.0075
      8  C1        -5.0080    2.0370   15.5080 C.ar  265  1CN265      0.2591
      9  C2        -4.6940    3.9880   14.2070 C.ar  265  1CN265      0.2253
     10  N4        -4.9220    5.2840   13.9070 N.pl3 265  1CN265     -0.0684
     11  S3        -4.4080    6.0460   12.8690 S.O2  265  1CN265      0.0948
     12  O3        -5.4360    6.7450   12.2210 O.2   265  1CN265     -0.1482
     13  O4        -3.7210    5.1780   11.9160 O.2   265  1CN265     -0.1482
     14  C4        -3.0410    7.3160   14.9540 C.ar  265  1CN265      0.0513
     15  C8        -2.3750    8.0070   12.6680 C.ar  265  1CN265      0.0331
     16  C5        -2.2490    8.3410   15.5060 C.ar  265  1CN265      0.1589
     17  C7        -1.4530    9.1750   14.6500 C.ar  265  1CN265      0.1270
     18  C6        -1.5770    9.0420   13.2100 C.ar  265  1CN265      0.0779
     19  C3        -3.1560    7.1570   13.5310 C.ar  265  1CN265      0.1303
     20  F         -2.1650    8.4320   16.8040 F     265  1CN265     -0.2027
     21 CL         -0.7470    9.9220   12.2730 Cl    265  1CN265     -0.0807
     22  N5        -0.6150   10.1360   15.2440 N.pl3 265  1CN265     -0.1248
@<TRIPOS>BOND
     1    13    11    2
     2    12    11    2
     3    21    18    1
     4    15    18   ar
     5    15    19   ar
     6    11    19    1
     7    11    10    1
     8    18    17   ar
     9    19    14   ar
    10    10     9    1
    11     9     6   ar
    12     9     7   ar
    13     6     5   ar
    14    17    22    1
    15    17    16   ar
    16    14    16   ar
    17     7     8   ar
    18     5     8   ar
    19    16    20    1
    20     8     1    1
    21     4     1    1
    22     2     1    2
    23     1     3    2
