@<TRIPOS>MOLECULE
2hod_III_M_1.pdb
 31 32 0 0 0
SMALL
GASTEIGER

@<TRIPOS>ATOM
      1  N         -9.2930   21.5770    7.1220 N.3     1  GLY1       -0.1210
      2  CA        -9.9880   22.2450    5.9820 C.3     1  GLY1        0.1940
      3  C        -10.9600   23.3410    6.3880 C.2     1  GLY1        0.2455
      4  O        -11.8080   23.1310    7.2610 O.2     1  GLY1       -0.2732
      5  N        -10.8610   24.5290    5.7620 N.am    2  PRO2       -0.2690
      6  CA       -11.7170   25.6840    6.0310 C.3     2  PRO2        0.1562
      7  C        -13.0260   25.5180    5.2990 C.2     2  PRO2        0.2599
      8  O        -13.2930   24.4740    4.7090 O.2     2  PRO2       -0.2715
      9  CB       -10.9230   26.8310    5.4430 C.3     2  PRO2        0.0639
     10  CG       -10.4110   26.2100    4.2020 C.3     2  PRO2        0.1739
     11  CD        -9.8900   24.8670    4.7090 C.3     2  PRO2        0.1267
     12  OD1       -9.3590   26.9790    3.6490 O.3     2  PRO2       -0.2212
     13  N        -13.8390   26.5620    5.3300 N.am    3  ARG3       -0.1964
     14  CA       -15.1080   26.5300    4.6350 C.3     3  ARG3        0.1714
     15  C        -15.1290   27.6800    3.6340 C.2     3  ARG3        0.2458
     16  O        -14.7020   28.7910    3.9400 O.2     3  ARG3       -0.2730
     17  CB       -16.2750   26.6220    5.6290 C.3     3  ARG3        0.0347
     18  CG       -16.4910   25.3400    6.4490 C.3     3  ARG3        0.0492
     19  CD       -16.4800   24.1000    5.5480 C.3     3  ARG3        0.2205
     20  NE       -17.0130   22.9070    6.2070 N.pl3   3  ARG3       -0.0865
     21  CZ       -16.2810   21.9450    6.7630 C.cat   3  ARG3        0.5346
     22  NH1      -16.8820   20.9080    7.3300 N.pl3   3  ARG3        0.1354
     23  NH2      -14.9570   22.0060    6.7490 N.pl3   3  ARG3        0.1354
     24  N        -15.6010   27.4090    2.4080 N.am    4  PRO4       -0.2715
     25  CA       -15.7040   28.3600    1.3000 C.3     4  PRO4        0.1552
     26  C        -16.1480   29.7450    1.7290 C.2     4  PRO4        0.2788
     27  O        -17.3500   30.0510    1.5870 O.2     4  PRO4       -0.2699
     28  CB       -16.7050   27.6860    0.3740 C.3     4  PRO4        0.0311
     29  CG       -16.3460   26.2460    0.5350 C.3     4  PRO4        0.0237
     30  CD       -16.2230   26.1240    2.0360 C.3     4  PRO4        0.0939
     31  N        -15.2840   30.4980    2.2120 N.am    5  NH25       -0.0863
@<TRIPOS>BOND
     1    28    29    1
     2    28    25    1
     3    29    30    1
     4    25    26    1
     5    25    24    1
     6    27    26    2
     7    26    31   am
     8    30    24    1
     9    24    15   am
    10    15    16    2
    11    15    14    1
    12    12    10    1
    13    10    11    1
    14    10     9    1
    15    14    13    1
    16    14    17    1
    17    11     5    1
    18     8     7    2
    19     7    13   am
    20     7     6    1
    21     9     6    1
    22    19    20    1
    23    19    18    1
    24    17    18    1
    25     5     6    1
    26     5     3   am
    27     2     3    1
    28     2     1    1
    29    20    21    2
    30     3     4    2
    31    23    21    1
    32    21    22    1
