@<TRIPOS>MOLECULE
2hog_710_A_1.pdb
 32 37 0 0 0
SMALL
GASTEIGER

@<TRIPOS>ATOM
      1  C         14.1590   -2.6780   11.8960 C.3   324  710324      0.0541
      2  C1        12.9890   -1.8780   11.7570 C.2   324  710324      0.0045
      3  C2        13.0200   -0.7140   10.9040 C.2   324  710324      0.0186
      4  C3        15.3630   -2.3500   11.2170 C.2   324  710324     -0.0182
      5  C4        15.4060   -1.1850   10.3740 C.2   324  710324      0.0374
      6  C5        14.2370   -0.4080   10.2400 C.2   324  710324      0.1039
      7  N         14.5730    0.6110    9.3930 N.2   324  710324     -0.1479
      8  N6        15.8420    0.5770    8.9690 N.2   324  710324     -0.1454
      9  C7        16.3620   -0.5080    9.5570 C.2   324  710324      0.1334
     10  C8        17.7760   -0.8610    9.3190 C.2   324  710324      0.1508
     11  N9        18.6860   -0.0870    8.6610 N.2   324  710324     -0.4003
     12  C10       18.4150   -2.0180    9.7130 C.2   324  710324      0.0362
     13  C11       19.7480   -1.9530    9.2840 C.ar  324  710324      0.0319
     14  C12       19.9020   -0.7210    8.6150 C.ar  324  710324      0.1315
     15  C13       21.1360   -0.3100    8.0400 C.ar  324  710324      0.0318
     16  C14       22.2370   -1.2020    8.1480 C.ar  324  710324     -0.0003
     17  C15       22.1150   -2.4550    8.8120 C.ar  324  710324     -0.0060
     18  C16       20.8650   -2.8340    9.3850 C.ar  324  710324     -0.0003
     19  C17       23.2870   -3.3990    8.8850 C.3   324  710324      0.0991
     20  N18       23.6250   -4.0830    7.5290 N.3   324  710324     -0.2690
     21  C19       24.6910   -5.1640    7.7260 C.3   324  710324      0.0724
     22  C20       25.0370   -5.8460    6.3840 C.3   324  710324      0.0174
     23  C21       23.7880   -6.4160    5.6990 C.3   324  710324      0.0029
     24  C22       22.7200   -5.3410    5.5140 C.3   324  710324      0.0174
     25  C23       22.3620   -4.6780    6.8490 C.3   324  710324      0.0724
     26  C24       11.7680   -2.2430   12.4990 C.ar  324  710324      0.1187
     27  C25       10.6950   -1.4370   13.0310 C.ar  324  710324      0.1343
     28  N26        9.8060   -2.2310   13.6370 N.ar  324  710324     -0.1289
     29  N27       10.3510   -3.4310   13.4570 N.ar  324  710324     -0.0423
     30  N28       11.5060   -3.5230   12.7970 N.ar  324  710324     -0.1277
     31  C29       10.4630    0.0350   13.0030 C.3   324  710324      0.2309
     32  O          9.8800    0.5140   14.2080 O.3   324  710324     -0.2133
@<TRIPOS>BOND
     1    24    23    1
     2    24    25    1
     3    23    22    1
     4    22    21    1
     5    25    20    1
     6    20    21    1
     7    20    19    1
     8    15    16   ar
     9    15    14   ar
    10    16    17   ar
    11    14    11    2
    12    14    13   ar
    13    11    10    2
    14    17    19    1
    15    17    18   ar
    16     8     7    1
    17     8     9    2
    18    13    18   ar
    19    13    12    2
    20    10     9    1
    21    10    12    1
    22     7     6    2
    23     9     5    1
    24     6     5    1
    25     6     3    1
    26     5     4    2
    27     3     2    2
    28     4     1    1
    29     2     1    1
    30     2    26    1
    31    26    30   ar
    32    26    27   ar
    33    30    29   ar
    34    31    27    1
    35    31    32    1
    36    27    28   ar
    37    29    28   ar
