@<TRIPOS>MOLECULE
2hoh_2GP_A_1.pdb
 24 26 0 0 0
SMALL
GASTEIGER

@<TRIPOS>ATOM
      1  P         17.8650   30.2080   52.6320 P.3   303  2GP303      0.5327
      2  O1P       16.4230   29.9470   52.7850 O.3   303  2GP303     -0.1145
      3  O2P       18.5790   29.1390   51.8910 O.2   303  2GP303     -0.2224
      4  O3P       18.5790   30.6970   53.8430 O.3   303  2GP303     -0.1145
      5  O5'       22.3230   32.7550   51.6010 O.3   303  2GP303     -0.2176
      6  C5'       21.8070   34.0910   51.7200 C.3   303  2GP303      0.2142
      7  C4'       20.2780   34.2410   51.4470 C.3   303  2GP303      0.1827
      8  O4'       19.9480   33.9170   50.0480 O.3   303  2GP303     -0.3326
      9  C3'       19.4150   33.3400   52.3460 C.3   303  2GP303      0.2132
     10  O3'       18.2180   34.0980   52.6060 O.3   303  2GP303     -0.2176
     11  C2'       19.1460   32.1620   51.3980 C.3   303  2GP303      0.2054
     12  O2'       17.8880   31.4970   51.6440 O.3   303  2GP303     -0.2657
     13  C1'       19.0280   32.8060   50.0350 C.3   303  2GP303      0.2266
     14  N9        19.4020   31.9300   48.8810 N.pl3 303  2GP303     -0.2354
     15  C8        18.7450   31.8790   47.6820 C.3   303  2GP303      0.2246
     16  N7        19.3280   31.1450   46.7910 N.2   303  2GP303     -0.2322
     17  C5        20.4380   30.6580   47.4460 C.2   303  2GP303      0.2182
     18  C6        21.4610   29.8280   46.9620 C.1   303  2GP303      0.2372
     19  O6        21.5380   29.3790   45.8320 O.2   303  2GP303     -0.2069
     20  N1        22.4190   29.5650   47.9450 N.2   303  2GP303     -0.2485
     21  C2        22.3940   30.0690   49.2200 C.1   303  2GP303      0.2531
     22  N2        23.3730   29.7180   50.0300 N.pl3 303  2GP303     -0.0226
     23  N3        21.4440   30.8770   49.6600 N.2   303  2GP303     -0.3074
     24  C4        20.4880   31.1270   48.7350 C.2   303  2GP303      0.2300
@<TRIPOS>BOND
     1    19    18    2
     2    16    17    2
     3    16    15    1
     4    18    17    1
     5    18    20    2
     6    17    24    1
     7    15    14    1
     8    20    21    2
     9    24    14    1
    10    24    23    2
    11    14    13    1
    12    21    23    2
    13    21    22    1
    14    13     8    1
    15    13    11    1
    16     8     7    1
    17    11    12    1
    18    11     9    1
    19     7     6    1
    20     7     9    1
    21     5     6    1
    22    12     1    1
    23     3     1    2
    24     9    10    1
    25     1     2    1
    26     1     4    1
