@<TRIPOS>MOLECULE
2hoz_PMP_A_1.pdb
 16 16 0 0 0
SMALL
GASTEIGER

@<TRIPOS>ATOM
      1  N1         5.1380   17.8880  -34.0510 N.ar  5000  PMP5000    -0.2452
      2  C2         4.8280   19.0710  -34.9100 C.ar  5000  PMP5000     0.0978
      3  C2A        3.9860   18.9190  -36.1940 C.3   5000  PMP5000     0.0555
      4  C3         5.3190   20.3020  -34.5220 C.ar  5000  PMP5000     0.2063
      5  O3         5.0720   21.4340  -35.2700 O.3   5000  PMP5000    -0.2856
      6  C4         6.0870   20.4110  -33.3460 C.ar  5000  PMP5000     0.0369
      7  C4A        6.6050   21.7950  -32.9640 C.3   5000  PMP5000     0.1386
      8  N4A        7.4590   22.2100  -33.9620 N.3   5000  PMP5000    -0.1261
      9  C5         6.3820   19.2480  -32.5300 C.ar  5000  PMP5000     0.0275
     10  C6         5.8980   18.0140  -32.9010 C.ar  5000  PMP5000     0.0965
     11  C5A        7.2610   19.3660  -31.2600 C.3   5000  PMP5000     0.1816
     12  O4P        6.7070   20.3100  -30.3980 O.3   5000  PMP5000    -0.2653
     13  P          7.3260   20.7940  -29.0540 P.3   5000  PMP5000     0.5329
     14  O1P        6.1180   21.1940  -28.3520 O.3   5000  PMP5000    -0.1145
     15  O2P        8.0220   19.5120  -28.4900 O.3   5000  PMP5000    -0.1145
     16  O3P        8.3350   21.8120  -29.1970 O.2   5000  PMP5000    -0.2224
@<TRIPOS>BOND
     1     3     2    1
     2     5     4    1
     3     2     4   ar
     4     2     1   ar
     5     4     6   ar
     6     1    10   ar
     7     8     7    1
     8     6     7    1
     9     6     9   ar
    10    10     9   ar
    11     9    11    1
    12    11    12    1
    13    12    13    1
    14    16    13    2
    15    13    15    1
    16    13    14    1
