@<TRIPOS>MOLECULE
2hp1_PLP_B_1.pdb
 15 15 0 0 0
SMALL
GASTEIGER

@<TRIPOS>ATOM
      1  N1        13.9800   10.2320  -13.5850 N.ar  6000  PLP6000    -0.2452
      2  C2        13.8340   10.2880  -12.2230 C.ar  6000  PLP6000     0.0978
      3  C2A       14.9790    9.8440  -11.3210 C.3   6000  PLP6000     0.0555
      4  C3        12.6520   10.7320  -11.6730 C.ar  6000  PLP6000     0.2049
      5  O3        12.4830   10.7370  -10.3080 O.3   6000  PLP6000    -0.2857
      6  C4        11.6190   11.1260  -12.4850 C.ar  6000  PLP6000     0.0182
      7  C4A       10.4070   11.8170  -11.8430 C.3   6000  PLP6000     0.0342
      8  C5        11.7630   11.0380  -13.8680 C.ar  6000  PLP6000     0.0261
      9  C6        12.9500   10.6010  -14.4030 C.ar  6000  PLP6000     0.0965
     10  C5A       10.5870   11.2780  -14.7980 C.3   6000  PLP6000     0.1815
     11  O4P       10.3670   12.6690  -15.0220 O.3   6000  PLP6000    -0.2653
     12  P          8.9240   13.1720  -15.5250 P.3   6000  PLP6000     0.5329
     13  O1P        8.9020   14.6470  -15.4620 O.3   6000  PLP6000    -0.1145
     14  O2P        8.9470   12.7340  -17.0650 O.2   6000  PLP6000    -0.2224
     15  O3P        7.8790   12.3840  -14.8350 O.3   6000  PLP6000    -0.1145
@<TRIPOS>BOND
     1    14    12    2
     2    12    13    1
     3    12    11    1
     4    12    15    1
     5    11    10    1
     6    10     8    1
     7     9     8   ar
     8     9     1   ar
     9     8     6   ar
    10     1     2   ar
    11     6     7    1
    12     6     4   ar
    13     2     4   ar
    14     2     3    1
    15     4     5    1
