@<TRIPOS>MOLECULE
2hp1_EA5_A_1.pdb
 24 24 0 0 0
SMALL
GASTEIGER

@<TRIPOS>ATOM
      1  P          6.1180   18.5490  -29.1420 P.3   5000  EA55000     0.5329
      2  OP1        5.0180   18.9470  -28.2290 O.3   5000  EA55000    -0.1145
      3  OP2        7.2360   17.7390  -28.3990 O.3   5000  EA55000    -0.1145
      4  OP3        7.0350   19.5210  -29.7210 O.2   5000  EA55000    -0.2224
      5  OP4        5.5130   17.6570  -30.3070 O.3   5000  EA55000    -0.2653
      6  C5A        6.3320   17.0710  -31.3650 C.3   5000  EA55000     0.1819
      7  C5         5.4930   16.9620  -32.6430 C.ar  5000  EA55000     0.0316
      8  C6         4.9730   15.7410  -32.9680 C.ar  5000  EA55000     0.0968
      9  N1         4.2190   15.6150  -34.1140 N.ar  5000  EA55000    -0.2452
     10  C2         3.9670   16.6980  -34.9540 C.ar  5000  EA55000     0.0981
     11  C2A        3.1150   16.4710  -36.2150 C.3   5000  EA55000     0.0555
     12  C3         4.4890   17.9480  -34.6380 C.ar  5000  EA55000     0.2103
     13  O3         4.2490   19.0550  -35.4710 O.3   5000  EA55000    -0.2853
     14  C4         5.2620   18.0750  -33.4650 C.ar  5000  EA55000     0.0587
     15  C4A        5.8580   19.4190  -33.0770 C.2   5000  EA55000     0.0962
     16  N4A        5.6920   20.5500  -33.8150 N.2   5000  EA55000    -0.2673
     17  N4         5.8720   23.5110  -35.1500 N.3   5000  EA55000    -0.1308
     18  CA         6.8840   22.6060  -34.5340 C.3   5000  EA55000     0.1166
     19  C          6.3010   21.7940  -33.3460 C.3   5000  EA55000     0.1444
     20  CB         8.1620   23.4220  -34.1430 C.3   5000  EA55000     0.0329
     21  CG         8.3790   23.7920  -32.6540 C.3   5000  EA55000     0.1156
     22  CD         9.4370   22.9460  -31.9340 C.2   5000  EA55000     0.3649
     23  OE1        9.7110   21.7910  -32.3450 O.co2 5000  EA55000    -0.2457
     24  OE2        9.9910   23.4360  -30.9380 O.co2 5000  EA55000    -0.2457
@<TRIPOS>BOND
     1    11    10    1
     2    13    12    1
     3    17    18    1
     4    10    12   ar
     5    10     9   ar
     6    12    14   ar
     7    18    20    1
     8    18    19    1
     9    20    21    1
    10     9     8   ar
    11    16    19    1
    12    16    15    2
    13    14    15    1
    14    14     7   ar
    15     8     7   ar
    16    21    22    1
    17     7     6    1
    18    23    22   ar
    19    22    24   ar
    20     6     5    1
    21     5     1    1
    22     4     1    2
    23     1     3    1
    24     1     2    1
