@<TRIPOS>MOLECULE
2hp2_KE4_A_1.pdb
 24 24 0 0 0
SMALL
GASTEIGER

@<TRIPOS>ATOM
      1  P         26.4910   20.5870   30.2750 P.3   5000  KE45000     0.5329
      2  OP1       27.5710   21.1910   29.4390 O.2   5000  KE45000    -0.2224
      3  OP2       25.7390   19.4540   29.4920 O.3   5000  KE45000    -0.1145
      4  OP3       25.2470   21.2920   30.6410 O.3   5000  KE45000    -0.1145
      5  OP4       27.1600   19.9780   31.5670 O.3   5000  KE45000    -0.2653
      6  C5A       26.4330   19.2910   32.6200 C.3   5000  KE45000     0.1816
      7  C5        27.3400   19.1910   33.7980 C.2   5000  KE45000     0.0272
      8  C6        27.8810   17.9620   34.0940 C.2   5000  KE45000     0.0961
      9  N1        28.7210   17.8320   35.1760 N.2   5000  KE45000    -0.2498
     10  C2        29.0490   18.9190   35.9930 C.2   5000  KE45000     0.0714
     11  C2A       29.9950   18.6790   37.1840 C.3   5000  KE45000     0.0503
     12  C3        28.5130   20.1820   35.7130 C.3   5000  KE45000     0.2112
     13  O3        28.8310   21.2790   36.5220 O.3   5000  KE45000    -0.2121
     14  C4        27.6410   20.3180   34.5930 C.2   5000  KE45000     0.0321
     15  C4A       27.0050   21.6780   34.2160 C.2   5000  KE45000     0.0964
     16  N4A       27.1970   22.8880   34.8780 N.2   5000  KE45000    -0.2512
     17  CA        26.4650   23.9890   34.6150 C.2   5000  KE45000     0.0565
     18  C         26.7870   25.2700   35.4000 C.3   5000  KE45000     0.1502
     19  N5        27.1140   24.9730   36.7950 N.3   5000  KE45000    -0.1249
     20  CB        25.3270   23.9500   33.5330 C.3   5000  KE45000     0.0547
     21  CG        24.6580   25.3130   33.2130 C.3   5000  KE45000     0.1200
     22  CD        23.1650   25.3920   33.5970 C.2   5000  KE45000     0.3652
     23  OE1       22.5630   26.4690   33.4000 O.co2 5000  KE45000    -0.2456
     24  OE2       22.5870   24.3840   34.0970 O.co2 5000  KE45000    -0.2456
@<TRIPOS>BOND
     1     2     1    2
     2     3     1    1
     3     1     4    1
     4     1     5    1
     5     5     6    1
     6     6     7    1
     7    21    20    1
     8    21    22    1
     9    23    22   ar
    10    20    17    1
    11    22    24   ar
    12     7     8    2
    13     7    14    1
    14     8     9    1
    15    15    14    2
    16    15    16    1
    17    14    12    1
    18    17    16    2
    19    17    18    1
    20     9    10    2
    21    18    19    1
    22    12    10    1
    23    12    13    1
    24    10    11    1
