@<TRIPOS>MOLECULE
2hp2_PLP_B_1.pdb
 15 15 0 0 0
SMALL
GASTEIGER

@<TRIPOS>ATOM
      1  N1        18.8050   12.4400   14.3730 N.ar  6000  PLP6000    -0.2452
      2  C2        18.9160   12.4450   13.0060 C.ar  6000  PLP6000     0.0978
      3  C2A       17.6720   12.2750   12.1450 C.3   6000  PLP6000     0.0555
      4  C3        20.1500   12.6060   12.4120 C.ar  6000  PLP6000     0.2049
      5  O3        20.2570   12.5590   11.0500 O.3   6000  PLP6000    -0.2857
      6  C4        21.2790   12.7710   13.1860 C.ar  6000  PLP6000     0.0182
      7  C4A       22.6220   13.1450   12.5160 C.3   6000  PLP6000     0.0342
      8  C5        21.1610   12.7400   14.5720 C.ar  6000  PLP6000     0.0261
      9  C6        19.9220   12.5830   15.1500 C.ar  6000  PLP6000     0.0965
     10  C5A       22.4000   12.7960   15.4660 C.3   6000  PLP6000     0.1815
     11  O4P       22.6640   14.1280   15.9200 O.3   6000  PLP6000    -0.2653
     12  P         24.0290   14.4590   16.7200 P.3   6000  PLP6000     0.5329
     13  O1P       24.1710   15.9260   16.7990 O.3   6000  PLP6000    -0.1145
     14  O2P       23.6900   13.9060   18.1960 O.3   6000  PLP6000    -0.1145
     15  O3P       25.1310   13.6260   16.1550 O.2   6000  PLP6000    -0.2224
@<TRIPOS>BOND
     1     5     4    1
     2     3     2    1
     3     4     2   ar
     4     4     6   ar
     5     7     6    1
     6     2     1   ar
     7     6     8   ar
     8     1     9   ar
     9     8     9   ar
    10     8    10    1
    11    10    11    1
    12    11    12    1
    13    15    12    2
    14    12    13    1
    15    12    14    1
