@<TRIPOS>MOLECULE
2hpc_III_M_1.pdb
 30 31 0 0 0
SMALL
GASTEIGER

@<TRIPOS>ATOM
      1  N        -10.5270   20.9940    6.9130 N.3     1  GLY1       -0.1210
      2  CA       -10.1890   22.1970    6.1430 C.3     1  GLY1        0.1940
      3  C        -11.2210   23.2880    6.3430 C.2     1  GLY1        0.2454
      4  O        -12.1340   23.1450    7.1660 O.2     1  GLY1       -0.2732
      5  N        -11.0950   24.4060    5.6070 N.am    2  PRO2       -0.2717
      6  CA       -12.0210   25.5340    5.6980 C.3     2  PRO2        0.1535
      7  C        -13.2690   25.2640    4.9130 C.2     2  PRO2        0.2598
      8  O        -13.4620   24.1740    4.3950 O.2     2  PRO2       -0.2715
      9  CB       -11.2280   26.6710    5.0880 C.3     2  PRO2        0.0310
     10  CG       -10.4650   25.9730    4.0110 C.3     2  PRO2        0.0237
     11  CD        -9.9670   24.7330    4.7150 C.3     2  PRO2        0.0939
     12  N        -14.1110   26.2780    4.8170 N.am    3  ARG3       -0.1964
     13  CA       -15.3530   26.1700    4.0770 C.3     3  ARG3        0.1714
     14  C        -15.4290   27.2450    2.9900 C.2     3  ARG3        0.2458
     15  O        -14.6220   28.1780    2.9600 O.2     3  ARG3       -0.2730
     16  CB       -16.5420   26.2780    5.0380 C.3     3  ARG3        0.0347
     17  CG       -16.7260   25.0500    5.9350 C.3     3  ARG3        0.0492
     18  CD       -16.9210   23.7870    5.0980 C.3     3  ARG3        0.2205
     19  NE       -17.3590   22.6130    5.8590 N.pl3   3  ARG3       -0.0865
     20  CZ       -16.5580   21.7790    6.5240 C.cat   3  ARG3        0.5346
     21  NH1      -17.0780   20.7420    7.1740 N.pl3   3  ARG3        0.1354
     22  NH2      -15.2450   21.9730    6.5420 N.pl3   3  ARG3        0.1354
     23  N        -16.3850   27.1060    2.0600 N.am    4  PRO4       -0.2715
     24  CA       -16.5750   28.0620    0.9630 C.3     4  PRO4        0.1552
     25  C        -16.8460   29.4780    1.4650 C.2     4  PRO4        0.2788
     26  O        -16.8550   29.6650    2.6990 O.2     4  PRO4       -0.2699
     27  CB       -17.7700   27.4820    0.2090 C.3     4  PRO4        0.0311
     28  CG       -17.6070   25.9990    0.4180 C.3     4  PRO4        0.0237
     29  CD       -17.2600   25.9300    1.8860 C.3     4  PRO4        0.0939
     30  N        -17.0510   30.3800    0.6240 N.am    5  NH25       -0.0863
@<TRIPOS>BOND
     1    27    28    1
     2    27    24    1
     3    28    29    1
     4    30    25   am
     5    24    25    1
     6    24    23    1
     7    25    26    2
     8    29    23    1
     9    23    14   am
    10    15    14    2
    11    14    13    1
    12    10    11    1
    13    10     9    1
    14    13    12    1
    15    13    16    1
    16     8     7    2
    17    11     5    1
    18    12     7   am
    19     7     6    1
    20    16    17    1
    21     9     6    1
    22    18    19    1
    23    18    17    1
    24     5     6    1
    25     5     3   am
    26    19    20    2
    27     2     3    1
    28     2     1    1
    29     3     4    2
    30    20    22    1
    31    20    21    1
