@<TRIPOS>MOLECULE
2hpd_HEM_A_1.pdb
 43 50 0 0 0
SMALL
GASTEIGER

@<TRIPOS>ATOM
      1 FE          0.9770   36.5800   16.3020 Fe    472  HEM472      0.0000
      2  CHA       -1.3340   34.5520   17.8260 C.2   472  HEM472      0.0000
      3  CHB        3.4910   34.5080   17.3720 C.2   472  HEM472      0.0000
      4  CHC        3.2620   38.4620   14.7430 C.2   472  HEM472      0.0000
      5  CHD       -1.4520   38.7330   15.5370 C.2   472  HEM472      0.0000
      6  NA         1.0480   34.9510   17.4040 N.2   472  HEM472      0.0000
      7  C1A        0.0030   34.2030   17.9270 C.2   472  HEM472      0.0000
      8  C2A        0.5280   33.1090   18.6880 C.2   472  HEM472      0.0000
      9  C3A        1.8890   33.1240   18.6650 C.2   472  HEM472      0.0000
     10  C4A        2.2010   34.2460   17.8120 C.2   472  HEM472      0.0000
     11  CMA        2.8470   32.1070   19.2780 C.3   472  HEM472      0.0000
     12  CAA       -0.2880   32.0910   19.4290 C.3   472  HEM472      0.0000
     13  CBA       -0.4420   32.4580   20.8750 C.3   472  HEM472      0.0000
     14  CGA       -1.2150   31.4810   21.7030 C.2   472  HEM472      0.0000
     15  O1A       -1.4300   30.3740   21.2480 O.co2 472  HEM472      0.0000
     16  O2A       -1.6370   31.7870   22.8110 O.co2 472  HEM472      0.0000
     17  NB         2.9770   36.6180   16.2560 N.ar  472  HEM472      0.0000
     18  C1B        3.8800   35.6370   16.7140 C.ar  472  HEM472      0.0000
     19  C2B        5.2540   35.8970   16.3210 C.ar  472  HEM472      0.0000
     20  C3B        5.1760   37.0030   15.5330 C.ar  472  HEM472      0.0000
     21  C4B        3.7710   37.4680   15.5480 C.ar  472  HEM472      0.0000
     22  CMB        6.4930   35.1420   16.8100 C.3   472  HEM472      0.0000
     23  CAB        6.1410   37.6250   14.7430 C.3   472  HEM472      0.0000
     24  CBB        7.5770   37.4510   14.6590 C.3   472  HEM472      0.0000
     25  NC         0.9110   38.2700   15.3730 N.2   472  HEM472      0.0000
     26  C1C        1.9360   38.8990   14.7090 C.2   472  HEM472      0.0000
     27  C2C        1.4330   40.0660   13.9780 C.2   472  HEM472      0.0000
     28  C3C        0.0830   40.1180   14.2690 C.2   472  HEM472      0.0000
     29  C4C       -0.1880   39.0130   15.0920 C.2   472  HEM472      0.0000
     30  CMC        2.2420   41.0220   13.0650 C.3   472  HEM472      0.0000
     31  CAC       -0.9430   40.9740   13.8570 C.3   472  HEM472      0.0000
     32  CBC       -0.8840   42.1790   13.0490 C.3   472  HEM472      0.0000
     33  ND        -1.0100   36.6030   16.5780 N.ar  472  HEM472      0.0000
     34  C1D       -1.8880   37.5720   16.1480 C.ar  472  HEM472      0.0000
     35  C2D       -3.2750   37.2840   16.5570 C.ar  472  HEM472      0.0000
     36  C3D       -3.2280   36.0870   17.1610 C.ar  472  HEM472      0.0000
     37  C4D       -1.8210   35.6740   17.1950 C.ar  472  HEM472      0.0000
     38  CMD       -4.4840   38.2020   16.3640 C.3   472  HEM472      0.0000
     39  CAD       -4.3920   35.2660   17.6380 C.3   472  HEM472      0.0000
     40  CBD       -5.0030   34.3370   16.5800 C.3   472  HEM472      0.0000
     41  CGD       -6.2110   33.5570   17.1150 C.2   472  HEM472      0.0000
     42  O1D       -7.2370   33.5750   16.4300 O.co2 472  HEM472      0.0000
     43  O2D       -6.1580   33.0060   18.2230 O.co2 472  HEM472      0.0000
@<TRIPOS>BOND
     1    32    31    1
     2    30    27    1
     3    31    28    1
     4    27    28    2
     5    27    26    1
     6    28    29    1
     7    24    23    1
     8    26     4    2
     9    26    25    1
    10     4    21    1
    11    23    20    1
    12    29    25    2
    13    29     5    1
    14    25     1    1
    15    20    21   ar
    16    20    19   ar
    17     5    34    2
    18    21    17   ar
    19    34    35   ar
    20    34    33   ar
    21    17     1    1
    22    17    18   ar
    23     1    33    1
    24     1     6    1
    25    19    18   ar
    26    19    22    1
    27    38    35    1
    28    42    41   ar
    29    35    36   ar
    30    33    37   ar
    31    40    41    1
    32    40    39    1
    33    18     3    1
    34    41    43   ar
    35    36    37   ar
    36    36    39    1
    37    37     2    2
    38     3    10    2
    39     6    10    1
    40     6     7    2
    41    10     9    1
    42     2     7    1
    43     7     8    1
    44     9     8    2
    45     9    11    1
    46     8    12    1
    47    12    13    1
    48    13    14    1
    49    15    14   ar
    50    14    16   ar
