@<TRIPOS>MOLECULE
2hpe_III_S_1.pdb
 45 44 0 0 0
SMALL
GASTEIGER

@<TRIPOS>ATOM
      1  N         10.6460  -16.7690    6.2480 N.3     1  UNK1       -0.1231
      2  CA         9.8470  -15.4680    5.9470 C.3     1  UNK1        0.1694
      3  C          8.7550  -15.1010    7.0260 C.2     1  UNK1        0.2592
      4  O          8.3780  -15.9200    7.8910 O.2     1  UNK1       -0.2718
      5  CB         9.1070  -15.4990    4.5610 C.3     1  UNK1        0.0304
      6  N          8.1230  -13.9560    6.7690 N.am    2  UNK2       -0.1966
      7  CA         7.2890  -13.2500    7.7580 C.3     2  UNK2        0.1728
      8  C          8.1450  -12.6500    8.8440 C.2     2  UNK2        0.2616
      9  O          8.0640  -13.0390   10.0240 O.2     2  UNK2       -0.2715
     10  CB         6.1010  -14.0430    8.2800 C.3     2  UNK2        0.0334
     11  N          8.9670  -11.7210    8.3600 N.am    3  UNK3       -0.1963
     12  CA         9.9420  -10.9550    9.1530 C.3     3  UNK3        0.1728
     13  C          9.5990   -9.4480    9.2480 C.2     3  UNK3        0.2616
     14  O          9.5820   -8.6830    8.2560 O.2     3  UNK3       -0.2715
     15  CB        11.3730  -11.1660    8.6280 C.3     3  UNK3        0.0334
     16  N          9.4260   -9.0700   10.5070 N.am    4  UNK4       -0.1963
     17  CA         9.1800   -7.6970   10.9420 C.3     4  UNK4        0.1728
     18  C         10.4640   -7.0780   11.5370 C.2     4  UNK4        0.2616
     19  O         11.0130   -7.5330   12.5400 O.2     4  UNK4       -0.2715
     20  CB         8.0290   -7.6950   11.9400 C.3     4  UNK4        0.0334
     21  N         10.9320   -6.0330   10.8900 N.am    5  UNK5       -0.1963
     22  CA        12.1580   -5.3360   11.3120 C.3     5  UNK5        0.1728
     23  C         11.8420   -3.9800   11.9690 C.2     5  UNK5        0.2616
     24  O         11.5340   -2.9760   11.3030 O.2     5  UNK5       -0.2715
     25  CB        13.1230   -5.1790   10.1400 C.3     5  UNK5        0.0334
     26  N         11.9100   -4.0430   13.2920 N.am    6  UNK6       -0.1963
     27  CA        11.7440   -2.9270   14.2510 C.3     6  UNK6        0.1728
     28  C         12.7990   -3.0510   15.3940 C.2     6  UNK6        0.2616
     29  O         13.0500   -4.1390   15.9310 O.2     6  UNK6       -0.2715
     30  CB        10.3530   -3.0260   14.8780 C.3     6  UNK6        0.0334
     31  N         13.2470   -1.9120   15.8650 N.am    7  UNK7       -0.1963
     32  CA        14.4280   -1.7890   16.7590 C.3     7  UNK7        0.1728
     33  C         14.3160   -0.4650   17.5460 C.2     7  UNK7        0.2616
     34  O         14.0170    0.6390   17.0260 O.2     7  UNK7       -0.2715
     35  CB        15.7400   -1.8430   15.9160 C.3     7  UNK7        0.0334
     36  N         14.6350   -0.5850   18.8030 N.am    8  UNK8       -0.1963
     37  CA        14.5460    0.5770   19.6280 C.3     8  UNK8        0.1728
     38  C         15.7030    0.4890   20.5950 C.2     8  UNK8        0.2617
     39  O         16.3200   -0.5740   20.7380 O.2     8  UNK8       -0.2715
     40  CB        13.1910    0.5020   20.3430 C.3     8  UNK8        0.0334
     41  N         16.0450    1.6340   21.1360 N.am    9  UNK9       -0.1917
     42  CA        16.7250    1.7060   22.4260 C.3     9  UNK9        0.2285
     43  C         15.6130    1.8240   23.4750 C.2     9  UNK9        0.3865
     44  O         15.7250    1.2120   24.5510 O.co2   9  UNK9       -0.2437
     45  OXT       14.5940    2.4730   23.1790 O.co2   9  UNK9       -0.2437
@<TRIPOS>BOND
     1     5     2    1
     2     2     1    1
     3     2     3    1
     4     6     3   am
     5     6     7    1
     6     3     4    2
     7     7    10    1
     8     7     8    1
     9    14    13    2
    10    11     8   am
    11    11    12    1
    12    15    12    1
    13     8     9    2
    14    12    13    1
    15    13    16   am
    16    25    22    1
    17    16    17    1
    18    21    22    1
    19    21    18   am
    20    17    18    1
    21    17    20    1
    22    24    23    2
    23    22    23    1
    24    18    19    2
    25    23    26   am
    26    26    27    1
    27    27    30    1
    28    27    28    1
    29    28    31   am
    30    28    29    2
    31    31    32    1
    32    35    32    1
    33    32    33    1
    34    34    33    2
    35    33    36   am
    36    36    37    1
    37    37    40    1
    38    37    38    1
    39    38    39    2
    40    38    41   am
    41    41    42    1
    42    42    43    1
    43    45    43   ar
    44    43    44   ar
