@<TRIPOS>MOLECULE
2hpf_III_S_1.pdb
 38 37 0 0 0
SMALL
GASTEIGER

@<TRIPOS>ATOM
      1  N         24.4180   10.1580   15.5270 N.3     1  UNK1       -0.1231
      2  CA        24.8950    8.7990   15.2210 C.3     1  UNK1        0.1694
      3  C         25.3880    8.4390   13.7960 C.2     1  UNK1        0.2592
      4  O         26.6000    8.2110   13.6440 O.2     1  UNK1       -0.2718
      5  CB        23.7600    7.8000   15.4400 C.3     1  UNK1        0.0304
      6  N         24.5160    8.1560   12.8360 N.am    2  UNK2       -0.1966
      7  CA        25.0020    7.5680   11.5440 C.3     2  UNK2        0.1728
      8  C         25.6090    8.5890   10.5330 C.2     2  UNK2        0.2616
      9  O         24.9600    9.5920   10.2000 O.2     2  UNK2       -0.2715
     10  CB        23.9810    6.5860   10.9440 C.3     2  UNK2        0.0334
     11  N         26.8250    8.2830   10.0370 N.am    3  UNK3       -0.1963
     12  CA        27.6950    9.2530    9.2840 C.3     3  UNK3        0.1728
     13  C         27.7610    9.0220    7.7520 C.2     3  UNK3        0.2617
     14  O         28.1790    7.9500    7.2640 O.2     3  UNK3       -0.2715
     15  CB        29.1640    9.1900    9.7420 C.3     3  UNK3        0.0334
     16  N         27.5150   10.1110    7.0400 N.am    4  UNK4       -0.1940
     17  CA        27.9380   10.2450    5.6380 C.3     4  UNK4        0.2014
     18  C         29.0200   11.3380    5.5660 C.2     4  UNK4        0.2639
     19  O         28.8350   12.4110    6.1660 O.2     4  UNK4       -0.2714
     20  N         30.1320   11.0550    4.8730 N.am    5  UNK5       -0.1939
     21  CA        31.1860   12.0820    4.6670 C.3     5  UNK5        0.2014
     22  C         31.1580   12.6470    3.2430 C.2     5  UNK5        0.2639
     23  O         31.5790   11.9750    2.2920 O.2     5  UNK5       -0.2714
     24  N         30.5610   13.8310    3.1450 N.am    6  UNK6       -0.1963
     25  CA        30.7170   14.7770    2.0170 C.3     6  UNK6        0.1728
     26  C         31.5590   15.9220    2.5470 C.2     6  UNK6        0.2616
     27  O         31.1730   16.5170    3.5570 O.2     6  UNK6       -0.2715
     28  CB        29.3500   15.3680    1.5760 C.3     6  UNK6        0.0334
     29  N         32.6460   16.2270    1.8670 N.am    7  UNK7       -0.1963
     30  CA        33.5670   17.3320    2.2480 C.3     7  UNK7        0.1728
     31  C         33.7360   18.3650    1.0900 C.2     7  UNK7        0.2617
     32  O         33.4870   18.0360   -0.0830 O.2     7  UNK7       -0.2715
     33  CB        34.8890   16.7350    2.7680 C.3     7  UNK7        0.0334
     34  N         34.1250   19.5980    1.4420 N.am    8  UNK8       -0.1917
     35  CA        34.0200   20.7580    0.5050 C.3     8  UNK8        0.2285
     36  C         35.3020   21.5940    0.2440 C.2     8  UNK8        0.3865
     37  O         36.0660   21.2810   -0.6900 O.co2   8  UNK8       -0.2437
     38  OXT       35.4570   22.6460    0.8850 O.co2   8  UNK8       -0.2437
@<TRIPOS>BOND
     1    37    36   ar
     2    32    31    2
     3    36    35    1
     4    36    38   ar
     5    35    34    1
     6    31    34   am
     7    31    30    1
     8    28    25    1
     9    29    30    1
    10    29    26   am
    11    25    26    1
    12    25    24    1
    13    30    33    1
    14    23    22    2
    15    26    27    2
    16    24    22   am
    17    22    21    1
    18    21    20    1
    19    20    18   am
    20    18    17    1
    21    18    19    2
    22    17    16    1
    23    16    13   am
    24    14    13    2
    25    13    12    1
    26    12    15    1
    27    12    11    1
    28    11     8   am
    29     9     8    2
    30     8     7    1
    31    10     7    1
    32     7     6    1
    33     6     3   am
    34     4     3    2
    35     3     2    1
    36     2     5    1
    37     2     1    1
