@<TRIPOS>MOLECULE
2hph_BGC_A_1.pdb
 12 12 0 0 0
SMALL
GASTEIGER

@<TRIPOS>ATOM
      1  C2        37.2600   30.2790   48.5110 C.3   701  BGC701      0.2434
      2  C3        37.7660   29.8540   49.8820 C.3   701  BGC701      0.2199
      3  C4        36.6250   29.6510   50.8720 C.3   701  BGC701      0.2144
      4  C5        35.5570   28.7400   50.2770 C.3   701  BGC701      0.1836
      5  C6        34.3180   28.7190   51.1710 C.3   701  BGC701      0.2142
      6  C1        36.2000   29.2880   48.0430 C.3   701  BGC701      0.3024
      7  O1        35.6610   29.7140   46.8330 O.3   701  BGC701     -0.1869
      8  O2        38.3300   30.2930   47.5930 O.3   701  BGC701     -0.2148
      9  O3        38.6580   30.7900   50.4500 O.3   701  BGC701     -0.2174
     10  O4        37.1890   29.1080   52.0660 O.3   701  BGC701     -0.2176
     11  O5        35.1420   29.2280   48.9920 O.3   701  BGC701     -0.3236
     12  O6        33.2930   27.9430   50.5750 O.3   701  BGC701     -0.2176
@<TRIPOS>BOND
     1     7     6    1
     2     8     1    1
     3     6     1    1
     4     6    11    1
     5     1     2    1
     6    11     4    1
     7     2     9    1
     8     2     3    1
     9     4     3    1
    10     4     5    1
    11    12     5    1
    12     3    10    1
