@<TRIPOS>MOLECULE
2hpl_III_B_1.pdb
 41 41 0 0 0
SMALL
GASTEIGER

@<TRIPOS>ATOM
      1  N         56.2470   50.3240   20.7740 N.3   802  ASP802     -0.1225
      2  CA        55.4390   51.4590   20.2630 C.3   802  ASP802      0.1805
      3  C         54.0460   51.4170   20.8950 C.2   802  ASP802      0.2598
      4  O         53.2010   50.6050   20.4870 O.2   802  ASP802     -0.2718
      5  CB        55.3460   51.3770   18.7360 C.3   802  ASP802      0.1424
      6  CG        54.8050   52.6570   18.1060 C.2   802  ASP802      0.3668
      7  OD1       54.2330   53.5260   18.8200 O.co2 802  ASP802     -0.2456
      8  OD2       54.9620   52.7920   16.8750 O.co2 802  ASP802     -0.2456
      9  N         53.7980   52.2560   21.9020 N.am  803  ASP803     -0.1960
     10  CA        52.5020   52.2090   22.5610 C.3   803  ASP803      0.1840
     11  C         51.4580   53.0000   21.7580 C.2   803  ASP803      0.2622
     12  O         51.6990   54.1520   21.3530 O.2   803  ASP803     -0.2715
     13  CB        52.5400   52.6790   24.0080 C.3   803  ASP803      0.1450
     14  CG        51.1700   52.5480   24.6810 C.2   803  ASP803      0.3671
     15  OD1       50.6270   51.4040   24.7040 O.co2 803  ASP803     -0.2456
     16  OD2       50.6270   53.5870   25.1390 O.co2 803  ASP803     -0.2456
     17  N         50.3170   52.3490   21.5430 N.am  804  LEU804     -0.1963
     18  CA        49.2220   52.8810   20.7220 C.3   804  LEU804      0.1728
     19  C         48.0710   53.5000   21.5290 C.2   804  LEU804      0.2616
     20  O         47.1580   54.0540   20.9560 O.2   804  LEU804     -0.2715
     21  CB        48.6670   51.7490   19.8470 C.3   804  LEU804      0.0311
     22  CG        49.7220   51.0080   19.0070 C.3   804  LEU804      0.0022
     23  CD1       49.0480   50.0100   18.0780 C.3   804  LEU804      0.0001
     24  CD2       50.5740   51.9810   18.2200 C.3   804  LEU804      0.0001
     25  N         48.1410   53.4220   22.8550 N.am  805  TYR805     -0.1960
     26  CA        46.9860   53.7090   23.7110 C.3   805  TYR805      0.1771
     27  C         47.1360   54.9440   24.6000 C.2   805  TYR805      0.2621
     28  O         46.2500   55.8440   24.6060 O.2   805  TYR805     -0.2715
     29  CB        46.6450   52.4650   24.5500 C.3   805  TYR805      0.0574
     30  CG        46.0260   51.4340   23.6330 C.ar  805  TYR805     -0.0198
     31  CD1       46.7850   50.4160   23.0840 C.ar  805  TYR805     -0.0009
     32  CD2       44.7200   51.5650   23.2170 C.ar  805  TYR805     -0.0009
     33  CE1       46.2500   49.5160   22.1820 C.ar  805  TYR805      0.0417
     34  CE2       44.1720   50.6760   22.3000 C.ar  805  TYR805      0.0417
     35  CZ        44.9600   49.6670   21.7680 C.ar  805  TYR805      0.1957
     36  OH        44.4020   48.7440   20.9130 O.3   805  TYR805     -0.2866
     37  N         48.2400   54.9770   25.3290 N.am  806  GLY806     -0.1917
     38  CA        48.4180   55.9310   26.3960 C.3   806  GLY806      0.2285
     39  C         48.9700   57.2360   25.9120 C.2   806  GLY806      0.3865
     40  O         49.2760   57.4320   24.7260 O.co2 806  GLY806     -0.2437
     41  OXT       49.1370   58.1070   26.7510 O.co2 806  GLY806     -0.2437
@<TRIPOS>BOND
     1     8     6   ar
     2    23    22    1
     3     6     5    1
     4     6     7   ar
     5    24    22    1
     6     5     2    1
     7    22    21    1
     8    21    18    1
     9     2     1    1
    10     2     3    1
    11     4     3    2
    12    18    19    1
    13    18    17    1
    14     3     9   am
    15    36    35    1
    16    20    19    2
    17    12    11    2
    18    19    25   am
    19    17    11   am
    20    11    10    1
    21    35    33   ar
    22    35    34   ar
    23     9    10    1
    24    33    31   ar
    25    34    32   ar
    26    10    13    1
    27    25    26    1
    28    31    30   ar
    29    32    30   ar
    30    30    29    1
    31    26    29    1
    32    26    27    1
    33    13    14    1
    34    27    28    2
    35    27    37   am
    36    14    15   ar
    37    14    16   ar
    38    40    39   ar
    39    37    38    1
    40    39    38    1
    41    39    41   ar
