@<TRIPOS>MOLECULE
2hpm_3PO_A_1.pdb
 13 12 0 0 0
SMALL
GASTEIGER

@<TRIPOS>ATOM
      1  PG       -46.7820  -20.9540   32.5880 P.3   1227  3PO1227     0.5373
      2  O1G      -47.4950  -20.4270   31.3230 O.2   1227  3PO1227    -0.2221
      3  O2G      -47.1390  -20.1980   33.8860 O.3   1227  3PO1227    -0.1143
      4  O3G      -45.2940  -21.1750   32.3990 O.3   1227  3PO1227    -0.1143
      5  PB       -48.9040  -22.8710   32.8160 P.3   1227  3PO1227     0.2317
      6  O1B      -49.1670  -23.6240   34.1120 O.3   1227  3PO1227    -0.4368
      7  O2B      -49.7530  -21.6610   32.4680 O.2   1227  3PO1227    -0.5167
      8  O3B      -47.3240  -22.4870   32.7700 O.3   1227  3PO1227    -0.2257
      9  PA       -48.6540  -23.6030   30.0890 P.3   1227  3PO1227     0.5373
     10  O1A      -49.3520  -22.2450   29.7360 O.3   1227  3PO1227    -0.1143
     11  O2A      -47.0950  -23.5470   30.1290 O.3   1227  3PO1227    -0.1143
     12  O3A      -49.0580  -23.9400   31.6170 O.3   1227  3PO1227    -0.2257
     13  O5'      -49.2440  -24.8320   29.3440 O.2   1227  3PO1227    -0.2221
@<TRIPOS>BOND
     1    13     9    2
     2    10     9    1
     3     9    11    1
     4     9    12    1
     5     2     1    2
     6    12     5    1
     7     4     1    1
     8     7     5    2
     9     1     8    1
    10     1     3    1
    11     8     5    1
    12     5     6    1
