@<TRIPOS>MOLECULE
2hpp_0G7_H_1.pdb
 30 31 0 0 0
SMALL
GASTEIGER

@<TRIPOS>ATOM
      1  N        139.6200   56.2260   20.7240 N.3     1  0G71       -0.1227
      2  CA       140.0860   55.3400   21.7990 C.3     1  0G71        0.1725
      3  C        139.7220   53.8890   21.4700 C.2     1  0G71        0.2475
      4  O        140.1100   53.3580   20.4290 O.2     1  0G71       -0.2730
      5  CB       141.5720   55.3940   22.1280 C.3     1  0G71        0.0547
      6  CG       141.8730   54.9380   23.5290 C.ar    1  0G71       -0.0202
      7  CD1      141.1030   55.4070   24.5890 C.ar    1  0G71       -0.0042
      8  CD2      142.9210   54.0580   23.7910 C.ar    1  0G71       -0.0042
      9  CE1      141.3950   54.9930   25.8740 C.ar    1  0G71       -0.0003
     10  CE2      143.2210   53.6230   25.0910 C.ar    1  0G71       -0.0003
     11  CZ       142.4450   54.1100   26.1530 C.ar    1  0G71       -0.0000
     12  N1       139.0400   53.3000   22.4360 N.am    1  0G71       -0.2492
     13  CA1      138.5890   51.9020   22.2790 C.3     1  0G71        0.1619
     14  C1       137.7930   51.9140   20.9720 C.2     1  0G71        0.2605
     15  O1       137.0160   52.8840   20.7920 O.2     1  0G71       -0.2715
     16  CB1      137.7460   51.5810   23.4920 C.3     1  0G71        0.0570
     17  CG1      137.7300   52.8050   24.3590 C.2     1  0G71       -0.0077
     18  CD       138.5660   53.8890   23.6950 C.2     1  0G71        0.0634
     19  N2       138.0810   50.9160   20.1730 N.am    1  0G71       -0.1979
     20  CA2      137.4150   50.7420   18.8670 C.3     1  0G71        0.1567
     21  C2       136.2880   49.7460   19.1500 C.2     1  0G71        0.1710
     22  O2       135.5180   49.2890   18.2990 O.2     1  0G71       -0.2942
     23  CB2      138.3840   50.3710   17.7640 C.3     1  0G71        0.0584
     24  CG2      138.6550   51.3980   16.6680 C.2     1  0G71        0.0162
     25  CD3      139.8030   52.3070   16.8890 C.2     1  0G71        0.1886
     26  NE       140.1540   53.2560   15.8260 N.pl3   1  0G71       -0.0578
     27  CZ1      140.9120   52.8080   14.8100 C.cat   1  0G71        0.5393
     28  NH1      141.3530   51.5380   14.7960 N.pl3   1  0G71        0.1358
     29  NH2      141.1800   53.6340   13.7980 N.pl3   1  0G71        0.1358
     30  C3       136.2190   49.4440   20.3720 C.3     1  0G71        0.0741
@<TRIPOS>BOND
     1    29    27    1
     2    28    27    1
     3    27    26    2
     4    26    25    1
     5    24    25    2
     6    24    23    1
     7    23    20    1
     8    22    21    2
     9    20    21    1
    10    20    19    1
    11    21    30    1
    12    19    14   am
    13     4     3    2
    14     1     2    1
    15    15    14    2
    16    14    13    1
    17     3     2    1
    18     3    12   am
    19     2     5    1
    20     5     6    1
    21    13    12    1
    22    13    16    1
    23    12    18    1
    24    16    17    1
    25     6     8   ar
    26     6     7   ar
    27    18    17    2
    28     8    10   ar
    29     7     9   ar
    30    10    11   ar
    31     9    11   ar
