@<TRIPOS>MOLECULE
2hpq_0G7_H_1.pdb
 30 31 0 0 0
SMALL
GASTEIGER

@<TRIPOS>ATOM
      1  N        140.4650   56.6500   20.6240 N.3     1  0G71       -0.1227
      2  CA       140.9420   55.7520   21.6080 C.3     1  0G71        0.1725
      3  C        140.6790   54.2840   21.2720 C.2     1  0G71        0.2475
      4  O        141.2690   53.8820   20.2770 O.2     1  0G71       -0.2730
      5  CB       142.4590   55.6740   21.7620 C.3     1  0G71        0.0547
      6  CG       142.8510   55.1340   23.1170 C.ar    1  0G71       -0.0202
      7  CD1      142.2500   55.6210   24.2770 C.ar    1  0G71       -0.0042
      8  CD2      143.8310   54.1740   23.2750 C.ar    1  0G71       -0.0042
      9  CE1      142.5930   55.1980   25.5380 C.ar    1  0G71       -0.0003
     10  CE2      144.2030   53.7020   24.5290 C.ar    1  0G71       -0.0003
     11  CZ       143.5750   54.2350   25.6610 C.ar    1  0G71       -0.0000
     12  N1       139.8970   53.6750   22.1370 N.am    1  0G71       -0.2492
     13  CA1      139.5810   52.2360   21.9900 C.3     1  0G71        0.1619
     14  C1       138.7330   52.1030   20.7330 C.2     1  0G71        0.2605
     15  O1       138.0270   53.1320   20.5290 O.2     1  0G71       -0.2715
     16  CB1      138.8040   51.8190   23.2150 C.3     1  0G71        0.0570
     17  CG1      138.6240   53.0590   24.0140 C.2     1  0G71       -0.0077
     18  CD       139.2840   54.2420   23.3400 C.2     1  0G71        0.0634
     19  N2       138.8090   50.9940   20.0300 N.am    1  0G71       -0.1982
     20  CA2      138.0090   50.8080   18.7900 C.3     1  0G71        0.1524
     21  C2       136.9800   49.6830   18.9590 C.2     1  0G71        0.1707
     22  O2       136.1160   49.4280   18.0870 O.2     1  0G71       -0.2943
     23  CB2      138.8570   50.6140   17.5400 C.3     1  0G71        0.0329
     24  CG2      139.1460   51.7480   16.5930 C.3     1  0G71        0.0491
     25  CD3      140.3820   52.4800   16.9660 C.3     1  0G71        0.2205
     26  NE       140.9860   53.2790   15.9040 N.pl3   1  0G71       -0.0865
     27  CZ1      141.7470   52.8680   14.8760 C.cat   1  0G71        0.5346
     28  NH1      142.2030   51.6390   14.5310 N.pl3   1  0G71        0.1354
     29  NH2      142.1020   53.8440   14.0190 N.pl3   1  0G71        0.1354
     30  C3       137.0290   49.0130   20.0000 C.3     1  0G71        0.0741
@<TRIPOS>BOND
     1    29    27    1
     2    28    27    1
     3    27    26    2
     4    26    25    1
     5    24    25    1
     6    24    23    1
     7    23    20    1
     8    22    21    2
     9    20    21    1
    10    20    19    1
    11    21    30    1
    12    19    14   am
    13     4     3    2
    14    15    14    2
    15     1     2    1
    16    14    13    1
    17     3     2    1
    18     3    12   am
    19     2     5    1
    20     5     6    1
    21    13    12    1
    22    13    16    1
    23    12    18    1
    24     6     8   ar
    25     6     7   ar
    26    16    17    1
    27     8    10   ar
    28    18    17    2
    29     7     9   ar
    30    10    11   ar
    31     9    11   ar
