@<TRIPOS>MOLECULE
2hps_CTZ_A_1.pdb
 32 36 0 0 0
SMALL
GASTEIGER

@<TRIPOS>ATOM
      1  N1       -31.5440   18.0210   44.1980 N.2   187  CTZ187     -0.3836
      2  C2       -32.7570   18.6290   44.0990 C.2   187  CTZ187      0.1686
      3  C3       -33.6100   17.5680   43.5600 C.2   187  CTZ187      0.2808
      4  N4       -32.9240   16.4420   43.3840 N.am  187  CTZ187     -0.2198
      5  C5       -33.2940   15.2330   42.9130 C.3   187  CTZ187      0.1597
      6  C6       -32.3270   14.2290   42.8140 C.2   187  CTZ187      0.1291
      7  N7       -31.0490   14.4510   43.1890 N.2   187  CTZ187     -0.4046
      8  C8       -30.6500   15.6470   43.6750 C.2   187  CTZ187      0.1569
      9  C9       -31.6630   16.7250   43.7620 C.2   187  CTZ187      0.2152
     10  C10      -33.0830   20.0600   44.4560 C.3   187  CTZ187      0.0901
     11  C11      -32.2720   20.9310   43.5300 C.ar  187  CTZ187     -0.0148
     12  C12      -31.2400   21.7110   44.0490 C.ar  187  CTZ187     -0.0006
     13  C13      -30.4640   22.5140   43.2220 C.ar  187  CTZ187      0.0417
     14  C14      -30.7440   22.5290   41.8520 C.ar  187  CTZ187      0.1957
     15  C15      -31.7740   21.7400   41.3180 C.ar  187  CTZ187      0.0417
     16  C16      -32.5440   20.9350   42.1610 C.ar  187  CTZ187     -0.0006
     17  O17      -29.9860   23.3090   41.0410 O.3   187  CTZ187     -0.2866
     18  O18      -34.8660   17.6750   43.2740 O.2   187  CTZ187     -0.2670
     19  C19      -32.7260   12.8890   42.3280 C.ar  187  CTZ187      0.0273
     20  C20      -33.6960   12.7270   41.3360 C.ar  187  CTZ187      0.0055
     21  C21      -34.0560   11.4500   40.9120 C.ar  187  CTZ187      0.0421
     22  C22      -33.4580   10.3220   41.4920 C.ar  187  CTZ187      0.1957
     23  C23      -32.5040   10.4680   42.4890 C.ar  187  CTZ187      0.0421
     24  C24      -32.1390   11.7520   42.9120 C.ar  187  CTZ187      0.0055
     25  O25      -33.8360    9.0880   41.0610 O.3   187  CTZ187     -0.2866
     26  C26      -29.2190   15.9450   44.0840 C.3   187  CTZ187      0.0893
     27  C27      -29.0150   15.5000   45.5090 C.ar  187  CTZ187     -0.0150
     28  C28      -28.7660   16.4180   46.5280 C.ar  187  CTZ187     -0.0038
     29  C29      -28.5780   15.9580   47.8320 C.ar  187  CTZ187     -0.0003
     30  C30      -28.6580   14.5840   48.1070 C.ar  187  CTZ187     -0.0000
     31  C31      -28.8930   13.6660   47.0840 C.ar  187  CTZ187     -0.0003
     32  C32      -29.0660   14.1280   45.7770 C.ar  187  CTZ187     -0.0038
@<TRIPOS>BOND
     1    21    20   ar
     2    21    22   ar
     3    17    14    1
     4    25    22    1
     5    15    14   ar
     6    15    16   ar
     7    20    19   ar
     8    22    23   ar
     9    14    13   ar
    10    16    11   ar
    11    19     6    1
    12    19    24   ar
    13    23    24   ar
    14     6     5    1
    15     6     7    2
    16     5     4    1
    17     7     8    2
    18    13    12   ar
    19    18     3    2
    20     4     3   am
    21     4     9    1
    22    11    12   ar
    23    11    10    1
    24     3     2    1
    25     8     9    1
    26     8    26    1
    27     9     1    2
    28    26    27    1
    29     2     1    2
    30     2    10    1
    31    27    32   ar
    32    27    28   ar
    33    32    31   ar
    34    28    29   ar
    35    31    30   ar
    36    29    30   ar
