@<TRIPOS>MOLECULE
2hpt_BES_A_1.pdb
 22 22 0 0 0
SMALL
GASTEIGER

@<TRIPOS>ATOM
      1  N2        63.3150  -20.2280   -9.5410 N.3   960  BES960     -0.1293
      2  C1        64.2870  -19.4660   -8.7250 C.3   960  BES960      0.1355
      3  C6        65.7170  -20.0360   -8.7150 C.3   960  BES960      0.0485
      4  C7        66.6670  -19.4320   -9.7730 C.ar  960  BES960     -0.0206
      5  C8        66.9050  -20.1310  -10.9880 C.ar  960  BES960     -0.0042
      6  C12       67.3510  -18.2220   -9.5100 C.ar  960  BES960     -0.0042
      7  C9        67.7980  -19.6110  -11.9360 C.ar  960  BES960     -0.0003
      8  C11       68.2610  -17.7080  -10.4550 C.ar  960  BES960     -0.0003
      9  C10       68.4660  -18.4120  -11.6610 C.ar  960  BES960     -0.0000
     10  C2        63.8640  -19.3920   -7.2260 C.3   960  BES960      0.2467
     11  O2        62.4830  -19.4200   -7.0850 O.3   960  BES960     -0.2116
     12  C3        64.3040  -18.0630   -6.7000 C.2   960  BES960      0.2738
     13  O3        63.7570  -17.0380   -7.1020 O.2   960  BES960     -0.2705
     14  N1        65.3300  -18.0990   -5.8790 N.am  960  BES960     -0.1934
     15  C4        65.9230  -16.8790   -5.2990 C.3   960  BES960      0.1978
     16  C13       65.4690  -16.7720   -3.8270 C.3   960  BES960      0.0333
     17  C14       64.5380  -15.5730   -3.4870 C.3   960  BES960      0.0023
     18  C15       64.0010  -14.6890   -4.6170 C.3   960  BES960      0.0001
     19  C16       63.4300  -15.9100   -2.4680 C.3   960  BES960      0.0001
     20  C5        67.4330  -17.0900   -5.3650 C.2   960  BES960      0.3842
     21  O1        68.1850  -16.1070   -5.2740 O.co2 960  BES960     -0.2437
     22  O4        67.8330  -18.2580   -5.5390 O.co2 960  BES960     -0.2437
@<TRIPOS>BOND
     1     7     9   ar
     2     7     5   ar
     3     9     8   ar
     4     5     4   ar
     5     8     6   ar
     6     4     6   ar
     7     4     3    1
     8     1     2    1
     9     2     3    1
    10     2    10    1
    11    10    11    1
    12    10    12    1
    13    13    12    2
    14    12    14   am
    15    14    15    1
    16    22    20   ar
    17    20    15    1
    18    20    21   ar
    19    15    16    1
    20    18    17    1
    21    16    17    1
    22    17    19    1
