@<TRIPOS>MOLECULE
2hpv_FMN_A_1.pdb
 31 33 0 0 0
SMALL
GASTEIGER

@<TRIPOS>ATOM
      1  N1        49.4740   70.7950   21.5480 N.2   1200  FMN1200    -0.2887
      2  C2        50.5280   70.0900   21.0380 C.1   1200  FMN1200     0.3669
      3  O2        50.8520   70.1620   19.8350 O.2   1200  FMN1200    -0.1744
      4  N3        51.2340   69.2330   21.8680 N.2   1200  FMN1200    -0.2300
      5  C4        50.9230   69.0780   23.2030 C.1   1200  FMN1200     0.2513
      6  O4        51.3800   68.0380   23.7030 O.2   1200  FMN1200    -0.2057
      7  C4A       49.8410   69.8130   23.7310 C.2   1200  FMN1200     0.2706
      8  N5        49.4750   69.7580   25.0550 N.2   1200  FMN1200    -0.3841
      9  C5A       48.3860   70.5120   25.5270 C.2   1200  FMN1200     0.1452
     10  C6        48.0120   70.4260   26.8590 C.2   1200  FMN1200     0.0252
     11  C7        46.9430   71.1670   27.3610 C.2   1200  FMN1200    -0.0375
     12  C7M       46.4690   70.7640   28.7270 C.3   1200  FMN1200     0.0268
     13  C8        46.2050   72.0380   26.5040 C.3   1200  FMN1200     0.0417
     14  C8M       44.9960   72.7820   26.9810 C.3   1200  FMN1200     0.0091
     15  C9        46.5620   72.1190   25.1560 C.2   1200  FMN1200    -0.0049
     16  C9A       47.6670   71.3670   24.6780 C.2   1200  FMN1200     0.0795
     17  N10       48.0370   71.4130   23.3450 N.pl3 1200  FMN1200    -0.2545
     18  C10       49.1160   70.6890   22.8770 C.2   1200  FMN1200     0.2449
     19  C1'       47.2550   72.3230   22.4190 C.3   1200  FMN1200     0.1336
     20  C2'       45.9950   71.6210   21.8440 C.3   1200  FMN1200     0.2048
     21  O2'       46.3650   70.3140   21.4170 O.3   1200  FMN1200    -0.2185
     22  C3'       45.3400   72.4410   20.7180 C.3   1200  FMN1200     0.2165
     23  O3'       44.8980   73.6370   21.3410 O.3   1200  FMN1200    -0.2175
     24  C4'       44.1530   71.6950   20.1260 C.3   1200  FMN1200     0.2147
     25  O4'       43.8590   72.2280   18.8310 O.3   1200  FMN1200    -0.2176
     26  C5'       42.9500   71.6020   21.0980 C.3   1200  FMN1200     0.1892
     27  O5'       41.9370   70.7340   20.5630 O.3   1200  FMN1200    -0.2674
     28  P         40.4390   71.1090   20.9200 P.3   1200  FMN1200     0.5327
     29  O1P       40.4180   71.2690   22.3940 O.3   1200  FMN1200    -0.1145
     30  O2P       40.0130   72.4080   20.2700 O.2   1200  FMN1200    -0.2224
     31  O3P       39.5550   69.9580   20.4680 O.3   1200  FMN1200    -0.1145
@<TRIPOS>BOND
     1    25    24    1
     2     3     2    2
     3    24    22    1
     4    24    26    1
     5    30    28    2
     6    31    28    1
     7    27    28    1
     8    27    26    1
     9    22    23    1
    10    22    20    1
    11    28    29    1
    12     2     1    2
    13     2     4    2
    14    21    20    1
    15     1    18    2
    16    20    19    1
    17     4     5    2
    18    19    17    1
    19    18    17    1
    20    18     7    1
    21     5     6    2
    22     5     7    1
    23    17    16    1
    24     7     8    2
    25    16    15    2
    26    16     9    1
    27     8     9    2
    28    15    13    1
    29     9    10    1
    30    13    14    1
    31    13    11    1
    32    10    11    2
    33    11    12    1
