@<TRIPOS>MOLECULE
2hpy_RET_A_1.pdb
 20 20 0 0 0
SMALL
GASTEIGER

@<TRIPOS>ATOM
      1  C1        34.4960    6.6410   19.5830 C.3   1296  RET1296     0.0183
      2  C2        33.1030    6.1400   19.0660 C.3   1296  RET1296     0.0044
      3  C3        32.2510    7.1950   18.3930 C.3   1296  RET1296     0.0047
      4  C4        32.9730    7.9440   17.2540 C.3   1296  RET1296     0.0217
      5  C5        34.3440    8.5040   17.6660 C.2   1296  RET1296    -0.0479
      6  C6        35.0610    7.9620   18.8060 C.2   1296  RET1296    -0.0310
      7  C7        36.3410    8.5430   19.2650 C.2   1296  RET1296    -0.0092
      8  C8        37.1480    9.5100   18.8000 C.2   1296  RET1296    -0.0224
      9  C9        38.4240    9.9670   19.3330 C.3   1296  RET1296     0.0436
     10  C10       39.1560   10.7210   18.4680 C.2   1296  RET1296    -0.0263
     11  C11       40.5600   10.9080   18.6800 C.2   1296  RET1296    -0.0260
     12  C12       41.3270   11.4520   17.7210 C.3   1296  RET1296     0.0473
     13  C13       42.7670   11.2380   17.6710 C.2   1296  RET1296    -0.0438
     14  C14       43.4020   12.0340   16.8220 C.2   1296  RET1296    -0.0339
     15  C15       44.7660   12.0380   16.4880 C.3   1296  RET1296     0.0300
     16  C16       34.2540    6.9160   21.1060 C.3   1296  RET1296     0.0043
     17  C17       35.4610    5.4070   19.4770 C.3   1296  RET1296     0.0043
     18  C18       34.6980    9.6670   16.7410 C.3   1296  RET1296     0.0260
     19  C19       38.8790    9.4480   20.7120 C.3   1296  RET1296     0.0094
     20  C20       43.4110   10.1490   18.4860 C.3   1296  RET1296     0.0264
@<TRIPOS>BOND
     1    15    14    1
     2    18     5    1
     3    14    13    2
     4     4     5    1
     5     4     3    1
     6     5     6    2
     7    13    12    1
     8    13    20    1
     9    12    11    1
    10     3     2    1
    11    10    11    2
    12    10     9    1
    13     8     7    2
    14     8     9    1
    15     6     7    1
    16     6     1    1
    17     2     1    1
    18     9    19    1
    19    17     1    1
    20     1    16    1
