@<TRIPOS>MOLECULE
2hq2_HEM_A_1.pdb
 43 50 0 0 0
SMALL
GASTEIGER

@<TRIPOS>ATOM
      1  CHA       41.3240  -14.6010    5.0170 C.2   402  HEM402      0.0000
      2  CHB       38.4100  -18.3530    4.1460 C.2   402  HEM402      0.0000
      3  CHC       40.5330  -18.9270   -0.1500 C.2   402  HEM402      0.0000
      4  CHD       42.3770  -14.4590    0.2510 C.2   402  HEM402      0.0000
      5  C1A       40.4340  -15.6140    5.1870 C.2   402  HEM402      0.0000
      6  C2A       39.8000  -15.9780    6.4330 C.2   402  HEM402      0.0000
      7  C3A       38.9920  -16.9980    6.1890 C.2   402  HEM402      0.0000
      8  C4A       39.0990  -17.3360    4.7860 C.2   402  HEM402      0.0000
      9  CMA       38.1120  -17.7340    7.2130 C.3   402  HEM402      0.0000
     10  CAA       40.0660  -15.3140    7.8020 C.3   402  HEM402      0.0000
     11  CBA       41.2000  -16.0990    8.4630 C.3   402  HEM402      0.0000
     12  CGA       41.4040  -15.7550    9.9350 C.2   402  HEM402      0.0000
     13  O1A       41.7690  -14.6130   10.2900 O.co2 402  HEM402      0.0000
     14  O2A       41.2960  -16.6610   10.7810 O.co2 402  HEM402      0.0000
     15  C1B       38.7670  -18.9060    2.9390 C.ar  402  HEM402      0.0000
     16  C2B       38.3730  -20.1850    2.3940 C.ar  402  HEM402      0.0000
     17  C3B       38.9750  -20.3380    1.2140 C.ar  402  HEM402      0.0000
     18  C4B       39.7730  -19.1680    0.9700 C.ar  402  HEM402      0.0000
     19  CMB       37.4220  -21.1760    3.0810 C.3   402  HEM402      0.0000
     20  CAB       38.8310  -21.5380    0.2520 C.2   402  HEM402      0.0000
     21  CBB       39.7440  -22.5190    0.2890 C.2   402  HEM402      0.0000
     22  C1C       41.1710  -17.7490   -0.4520 C.2   402  HEM402      0.0000
     23  C2C       41.8180  -17.4110   -1.7070 C.2   402  HEM402      0.0000
     24  C3C       42.3280  -16.1840   -1.5970 C.2   402  HEM402      0.0000
     25  C4C       42.0420  -15.6930   -0.2670 C.2   402  HEM402      0.0000
     26  CMC       41.8950  -18.3410   -2.9450 C.3   402  HEM402      0.0000
     27  CAC       43.0980  -15.4120   -2.6830 C.2   402  HEM402      0.0000
     28  CBC       44.2730  -15.8780   -3.1090 C.2   402  HEM402      0.0000
     29  C1D       42.2680  -14.1130    1.5770 C.ar  402  HEM402      0.0000
     30  C2D       42.7810  -12.8730    2.1200 C.ar  402  HEM402      0.0000
     31  C3D       42.4860  -12.9300    3.5840 C.ar  402  HEM402      0.0000
     32  C4D       41.7890  -14.1750    3.8040 C.ar  402  HEM402      0.0000
     33  CMD       43.4980  -11.7280    1.3830 C.3   402  HEM402      0.0000
     34  CAD       42.8200  -11.8490    4.5990 C.3   402  HEM402      0.0000
     35  CBD       44.1560  -12.1310    5.3040 C.3   402  HEM402      0.0000
     36  CGD       45.3650  -11.8960    4.4200 C.2   402  HEM402      0.0000
     37  O1D       45.6110  -10.7500    3.9700 O.co2 402  HEM402      0.0000
     38  O2D       46.1050  -12.8900    4.1870 O.co2 402  HEM402      0.0000
     39  NA        39.9930  -16.4660    4.2160 N.2   402  HEM402      0.0000
     40  NB        39.6280  -18.2980    2.0490 N.ar  402  HEM402      0.0000
     41  NC        41.3390  -16.6650    0.3980 N.2   402  HEM402      0.0000
     42  ND        41.6670  -14.8740    2.5910 N.ar  402  HEM402      0.0000
     43 FE         40.7020  -16.6100    2.3260 Fe    402  HEM402      0.0000
@<TRIPOS>BOND
     1    28    27    2
     2    26    23    1
     3    27    24    1
     4    23    24    2
     5    23    22    1
     6    24    25    1
     7    22     3    2
     8    22    41    1
     9    25     4    1
    10    25    41    2
    11     3    18    1
    12     4    29    2
    13    20    21    2
    14    20    17    1
    15    41    43    1
    16    18    17   ar
    17    18    40   ar
    18    17    16   ar
    19    33    30    1
    20    29    30   ar
    21    29    42   ar
    22    40    43    1
    23    40    15   ar
    24    30    31   ar
    25    43    42    1
    26    43    39    1
    27    16    15   ar
    28    16    19    1
    29    42    32   ar
    30    15     2    1
    31    31    32   ar
    32    31    34    1
    33    32     1    2
    34    37    36   ar
    35     2     8    2
    36    38    36   ar
    37    39     8    1
    38    39     5    2
    39    36    35    1
    40    34    35    1
    41     8     7    1
    42     1     5    1
    43     5     6    1
    44     7     6    2
    45     7     9    1
    46     6    10    1
    47    10    11    1
    48    11    12    1
    49    12    13   ar
    50    12    14   ar
