@<TRIPOS>MOLECULE
2hqm_GSH_A_1.pdb
 20 19 0 0 0
SMALL
GASTEIGER

@<TRIPOS>ATOM
      1  N1        28.3930   47.3510  -22.7010 N.3   3001  GSH3001    -0.1208
      2  CA1       27.1100   47.7840  -22.1400 C.3   3001  GSH3001     0.1948
      3  C1        26.6270   49.0660  -22.8260 C.2   3001  GSH3001     0.3819
      4  O11       26.9300   49.1090  -24.0540 O.co2 3001  GSH3001    -0.2441
      5  O12       26.1720   49.9510  -22.1420 O.co2 3001  GSH3001    -0.2441
      6  CB1       27.0300   47.9010  -20.6720 C.3   3001  GSH3001     0.0402
      7  CG1       28.1840   47.2800  -19.8830 C.3   3001  GSH3001     0.0889
      8  CD1       28.0600   47.5030  -18.4080 C.2   3001  GSH3001     0.2418
      9  OE1       26.9930   48.0360  -17.9650 O.2   3001  GSH3001    -0.2733
     10  N2        29.0870   47.3080  -17.6420 N.am  3001  GSH3001    -0.1968
     11  CA2       29.0940   47.5380  -16.1880 C.3   3001  GSH3001     0.1843
     12  C2        29.5460   48.8960  -15.7880 C.2   3001  GSH3001     0.2627
     13  O2        29.9910   49.1260  -14.6110 O.2   3001  GSH3001    -0.2714
     14  CB2       30.0020   46.5540  -15.4530 C.3   3001  GSH3001     0.0997
     15  SG2       29.1920   44.9250  -15.3220 S.3   3001  GSH3001    -0.0797
     16  N3        29.5190   49.8050  -16.7220 N.am  3001  GSH3001    -0.1917
     17  CA3       29.8640   51.1380  -16.2840 C.3   3001  GSH3001     0.2285
     18  C3        29.6240   52.0550  -17.4890 C.2   3001  GSH3001     0.3865
     19  O31       29.1700   51.5460  -18.5370 O.co2 3001  GSH3001    -0.2437
     20  O32       29.9290   53.2450  -17.2830 O.co2 3001  GSH3001    -0.2437
@<TRIPOS>BOND
     1     4     3   ar
     2     3     5   ar
     3     3     2    1
     4     1     2    1
     5     2     6    1
     6     6     7    1
     7     7     8    1
     8    19    18   ar
     9     8     9    2
    10     8    10   am
    11    10    11    1
    12    18    20   ar
    13    18    17    1
    14    16    17    1
    15    16    12   am
    16    11    12    1
    17    11    14    1
    18    12    13    2
    19    14    15    1
