@<TRIPOS>MOLECULE
2hqu_DUP_A_1.pdb
 28 29 0 0 0
SMALL
GASTEIGER

@<TRIPOS>ATOM
      1  O4        25.0820    8.4480   -1.8590 O.2   777  DUP777     -0.2085
      2  C4        24.6340    8.1740   -2.9650 C.1   777  DUP777      0.2182
      3  C5        23.9940    6.9690   -3.2000 C.2   777  DUP777      0.1242
      4  C6        23.5280    6.7140   -4.4890 C.2   777  DUP777      0.0928
      5  N3        24.8140    9.0780   -3.9920 N.2   777  DUP777     -0.2452
      6  C2        24.3450    8.8360   -5.2660 C.1   777  DUP777      0.2844
      7  O2        24.5200    9.6870   -6.1580 O.2   777  DUP777     -0.1918
      8  N1        23.6810    7.6400   -5.4960 N.am  777  DUP777     -0.1790
      9  C1'       23.1970    7.3480   -6.8620 C.3   777  DUP777      0.2090
     10  C2'       24.3520    6.6280   -7.5530 C.3   777  DUP777      0.0874
     11  C3'       23.8920    5.1830   -7.5510 C.3   777  DUP777      0.1857
     12  O3'       24.4460    4.4200   -8.5980 O.3   777  DUP777     -0.2203
     13  O4'       22.0870    6.4560   -6.8460 O.3   777  DUP777     -0.3339
     14  C4'       22.3780    5.3050   -7.6270 C.3   777  DUP777      0.1774
     15  C5'       21.6630    4.0960   -7.0570 C.3   777  DUP777      0.1848
     16  O5'       21.9810    3.9890   -5.6840 O.3   777  DUP777     -0.2775
     17  PA        21.3150    2.8950   -4.7010 P.3   777  DUP777      0.4623
     18  O1A       20.9760    1.6620   -5.4980 O.2   777  DUP777     -0.2354
     19  O2A       22.2350    2.6820   -3.5220 O.3   777  DUP777     -0.1255
     20  N3A       19.8720    3.5650   -4.2050 N.3   777  DUP777     -0.0179
     21  PB        18.3510    3.1740   -4.8050 P.3   777  DUP777      0.4700
     22  O1B       18.2120    1.6820   -4.8730 O.2   777  DUP777     -0.2350
     23  O2B       17.3570    3.9120   -3.9550 O.3   777  DUP777     -0.1252
     24  O3B       18.2950    3.7200   -6.3160 O.3   777  DUP777     -0.1901
     25  PG        18.0220    2.7590   -7.5690 P.3   777  DUP777      0.5397
     26  O2G       19.0570    1.6580   -7.7230 O.3   777  DUP777     -0.1143
     27  O1G       16.6910    2.1380   -7.2990 O.3   777  DUP777     -0.1143
     28  O3G       18.1020    3.5420   -8.8460 O.2   777  DUP777     -0.2220
@<TRIPOS>BOND
     1    28    25    2
     2    12    11    1
     3    26    25    1
     4    14    11    1
     5    14    15    1
     6    14    13    1
     7    25    27    1
     8    25    24    1
     9    10    11    1
    10    10     9    1
    11    15    16    1
    12     9    13    1
    13     9     8    1
    14    24    21    1
    15     7     6    2
    16    16    17    1
    17    18    17    2
    18     8     6   am
    19     8     4    1
    20     6     5    2
    21    22    21    2
    22    21    20    1
    23    21    23    1
    24    17    20    1
    25    17    19    1
    26     4     3    2
    27     5     2    2
    28     3     2    1
    29     2     1    2
