@<TRIPOS>MOLECULE
2hqy_COA_A_1.pdb
 48 50 0 0 0
SMALL
GASTEIGER

@<TRIPOS>ATOM
      1  N1A       36.0390   33.8810   15.8370 N.2   1001  COA1001     0.0021
      2  C2A       36.2500   33.8570   17.1680 C.3   1001  COA1001     0.5254
      3  N3A       35.7330   32.8880   17.9370 N.2   1001  COA1001    -0.0055
      4  C4A       34.9790   31.8970   17.3800 C.2   1001  COA1001     0.3518
      5  C5A       34.7460   31.8940   16.0090 C.2   1001  COA1001     0.2526
      6  C6A       35.3010   32.9190   15.2290 C.2   1001  COA1001     0.4393
      7  N6A       35.1240   32.9840   13.8850 N.pl3 1001  COA1001     0.2180
      8  N7A       33.9780   30.8030   15.7530 N.2   1001  COA1001    -0.2095
      9  C8A       33.7510   30.1520   16.9210 C.3   1001  COA1001     0.3377
     10  N9A       34.3420   30.8370   17.9110 N.pl3 1001  COA1001    -0.1439
     11  C1B       34.4120   30.4590   19.3510 C.3   1001  COA1001     0.3185
     12  C2B       33.1880   30.5300   20.2570 C.3   1001  COA1001     0.2543
     13  O2B       33.0820   31.8130   20.8700 O.3   1001  COA1001    -0.2131
     14  C3B       33.5730   29.4960   21.3040 C.3   1001  COA1001     0.1928
     15  O3B       34.4710   30.0490   22.2720 O.3   1001  COA1001    -0.2673
     16  P3B       34.5840   29.4230   23.7540 P.3   1001  COA1001     0.5327
     17  O7A       33.3220   29.9530   24.4310 O.3   1001  COA1001    -0.1145
     18  O8A       35.9150   29.9300   24.2940 O.3   1001  COA1001    -0.1145
     19  O9A       34.5550   27.9180   23.6020 O.2   1001  COA1001    -0.2224
     20  C4B       34.3410   28.4230   20.5490 C.3   1001  COA1001     0.1795
     21  O4B       34.8760   29.0920   19.4020 O.3   1001  COA1001    -0.3136
     22  C5B       33.4520   27.2410   20.1430 C.3   1001  COA1001     0.1812
     23  O5B       32.0840   27.6770   20.1090 O.3   1001  COA1001    -0.3112
     24  P1A       30.9720   27.2600   19.0010 P.3   1001  COA1001     0.2189
     25  O1A       29.8830   28.3110   19.0360 O.3   1001  COA1001    -0.4371
     26  O2A       31.6250   26.9180   17.6680 O.2   1001  COA1001    -0.5170
     27  O3A       30.3780   25.9220   19.6880 O.3   1001  COA1001    -0.2703
     28  P2A       30.9140   24.4170   19.4150 P.3   1001  COA1001     0.2188
     29  O4A       30.5510   23.5780   20.6300 O.3   1001  COA1001    -0.4371
     30  O5A       32.3560   24.4520   18.9430 O.2   1001  COA1001    -0.5170
     31  O6A       29.6680   24.1300   18.3640 O.3   1001  COA1001    -0.3138
     32  CBP       29.4260   21.7500   17.7500 C.3   1001  COA1001     0.0645
     33  CCP       29.8650   23.1560   17.3450 C.3   1001  COA1001     0.1519
     34  CDP       30.1480   20.8290   16.7930 C.3   1001  COA1001     0.0056
     35  CEP       29.9150   21.4280   19.1650 C.3   1001  COA1001     0.0056
     36  CAP       27.8820   21.7150   17.6880 C.3   1001  COA1001     0.2312
     37  OAP       27.3690   22.2220   18.9240 O.3   1001  COA1001    -0.2131
     38  C9P       27.1060   20.4370   17.4530 C.2   1001  COA1001     0.2719
     39  O9P       25.8860   20.4800   17.5380 O.2   1001  COA1001    -0.2706
     40  N8P       27.7300   19.3000   17.1910 N.am  1001  COA1001    -0.2028
     41  C7P       27.3150   18.5490   16.0380 C.3   1001  COA1001     0.1248
     42  C6P       26.8560   19.6020   15.0620 C.3   1001  COA1001     0.1102
     43  C5P       26.4200   18.9560   13.8100 C.2   1001  COA1001     0.2432
     44  O5P       26.2390   17.7460   13.7730 O.2   1001  COA1001    -0.2733
     45  N4P       26.2780   19.8520   12.8580 N.am  1001  COA1001    -0.2044
     46  C3P       25.3910   19.8140   11.7140 C.3   1001  COA1001     0.1276
     47  C2P       25.6440   21.1000   10.9330 C.3   1001  COA1001     0.0920
     48  S1P       24.4980   21.3510    9.5640 S.3   1001  COA1001    -0.0802
@<TRIPOS>BOND
     1    48    47    1
     2    47    46    1
     3    46    45    1
     4    45    43   am
     5    44    43    2
     6    43    42    1
     7     7     6    1
     8    42    41    1
     9     6     1    2
    10     6     5    1
    11     8     5    2
    12     8     9    1
    13     1     2    1
    14     5     4    1
    15    41    40    1
    16    34    32    1
    17     9    10    1
    18     2     3    1
    19    40    38   am
    20    33    32    1
    21    33    31    1
    22     4    10    1
    23     4     3    2
    24    38    39    2
    25    38    36    1
    26    26    24    2
    27    36    32    1
    28    36    37    1
    29    32    35    1
    30    10    11    1
    31    31    28    1
    32    30    28    2
    33    24    25    1
    34    24    27    1
    35    24    23    1
    36    11    21    1
    37    11    12    1
    38    21    20    1
    39    28    27    1
    40    28    29    1
    41    23    22    1
    42    22    20    1
    43    12    13    1
    44    12    14    1
    45    20    14    1
    46    14    15    1
    47    15    16    1
    48    19    16    2
    49    16    18    1
    50    16    17    1
