@<TRIPOS>MOLECULE
2hr0_THC_B_1.pdb
 10 9 0 0 0
SMALL
GASTEIGER

@<TRIPOS>ATOM
      1  N         16.0580   29.0610   82.6870 N.am  1991  THC1991    -0.1965
      2  CN        16.4570   29.3920   83.9230 C.2   1991  THC1991     0.2423
      3  ON        17.0760   30.4100   84.1930 O.2   1991  THC1991    -0.2733
      4  CM        16.1020   28.4090   84.9970 C.3   1991  THC1991     0.0964
      5  CA        16.2620   29.8950   81.5050 C.3   1991  THC1991     0.1896
      6  CB        17.7310   29.8280   80.9950 C.3   1991  THC1991     0.1794
      7  OG1       18.1310   31.0970   80.4520 O.3   1991  THC1991    -0.2208
      8  CG2       18.0410   28.7650   79.9470 C.3   1991  THC1991     0.0378
      9  C         15.2020   29.5530   80.4800 C.2   1991  THC1991     0.2313
     10  OXT       14.7560   28.4190   80.3650 O.2   1991  THC1991    -0.2863
@<TRIPOS>BOND
     1     8     6    1
     2    10     9    2
     3     7     6    1
     4     9     5    1
     5     6     5    1
     6     5     1    1
     7     1     2   am
     8     2     3    2
     9     2     4    1
