@<TRIPOS>MOLECULE
2hr1_SAH_A_1.pdb
 26 28 0 0 0
SMALL
GASTEIGER

@<TRIPOS>ATOM
      1  N        -18.5750   30.9310   80.3780 N.3   328  SAH328     -0.1208
      2  CA       -19.2230   30.3990   81.6540 C.3   328  SAH328      0.1952
      3  CB       -19.0710   31.1410   82.9390 C.3   328  SAH328      0.0422
      4  CG       -17.6600   31.4710   83.3920 C.3   328  SAH328      0.0597
      5  SD       -17.7290   31.9470   85.1650 S.3   328  SAH328     -0.1375
      6  C        -20.7410   30.1200   81.2770 C.2   328  SAH328      0.3819
      7  O        -21.1190   30.3250   80.1030 O.co2 328  SAH328     -0.2441
      8  OXT      -21.4990   29.6870   82.2270 O.co2 328  SAH328     -0.2441
      9  C5'      -16.2160   31.3490   85.7870 C.3   328  SAH328      0.0899
     10  C4'      -16.3480   29.7970   86.1480 C.3   328  SAH328      0.1630
     11  O4'      -15.0660   29.4840   86.6610 O.3   328  SAH328     -0.3153
     12  C3'      -17.2970   29.4660   87.2670 C.3   328  SAH328      0.2168
     13  O3'      -18.3330   28.6220   86.7900 O.3   328  SAH328     -0.2175
     14  C2'      -16.3460   28.8180   88.3540 C.3   328  SAH328      0.2569
     15  O2'      -16.9950   27.8300   89.1260 O.3   328  SAH328     -0.2130
     16  C1'      -15.1900   28.2990   87.5040 C.3   328  SAH328      0.3185
     17  N9       -14.0050   28.1070   88.1010 N.pl3 328  SAH328     -0.1439
     18  C8       -13.2460   28.9100   88.9330 C.3   328  SAH328      0.3377
     19  N7       -12.1310   28.4010   89.3270 N.2   328  SAH328     -0.2095
     20  C5       -12.0860   27.1210   88.7230 C.2   328  SAH328      0.2526
     21  C6       -11.0870   26.0810   88.7840 C.2   328  SAH328      0.4393
     22  N6        -9.9450   26.1840   89.4890 N.pl3 328  SAH328      0.2180
     23  N1       -11.3900   24.9500   88.0580 N.2   328  SAH328      0.0021
     24  C2       -12.5440   24.8160   87.3310 C.3   328  SAH328      0.5254
     25  N3       -13.5180   25.7940   87.2490 N.2   328  SAH328     -0.0055
     26  C4       -13.2240   26.9130   87.9670 C.2   328  SAH328      0.3518
@<TRIPOS>BOND
     1     7     6   ar
     2     1     2    1
     3     6     2    1
     4     6     8   ar
     5     2     3    1
     6     3     4    1
     7     4     5    1
     8     5     9    1
     9     9    10    1
    10    10    11    1
    11    10    12    1
    12    11    16    1
    13    13    12    1
    14    25    24    1
    15    25    26    2
    16    12    14    1
    17    24    23    1
    18    16    17    1
    19    16    14    1
    20    26    17    1
    21    26    20    1
    22    23    21    2
    23    17    18    1
    24    14    15    1
    25    20    21    1
    26    20    19    2
    27    21    22    1
    28    18    19    1
