@<TRIPOS>MOLECULE
2hr6_DUD_A_1.pdb
 24 25 0 0 0
SMALL
GASTEIGER

@<TRIPOS>ATOM
      1  N1        -7.5800   31.4320    4.6140 N.am  777  DUD777     -0.1790
      2  C2        -6.5680   30.6590    4.1380 C.1   777  DUD777      0.2844
      3  N3        -5.5670   31.2790    3.4090 N.2   777  DUD777     -0.2452
      4  C4        -5.5250   32.6300    3.1130 C.1   777  DUD777      0.2182
      5  C5        -6.5490   33.4520    3.6180 C.2   777  DUD777      0.1242
      6  C6        -7.5660   32.8260    4.3430 C.2   777  DUD777      0.0928
      7  O2        -6.5240   29.4420    4.3270 O.2   777  DUD777     -0.1918
      8  O4        -4.5580   33.0550    2.4610 O.2   777  DUD777     -0.2085
      9  C1'       -8.6640   30.8650    5.4150 C.3   777  DUD777      0.2090
     10  C2'       -8.5210   31.3080    6.8780 C.3   777  DUD777      0.0874
     11  C3'       -9.6060   32.3650    7.0550 C.3   777  DUD777      0.1857
     12  C4'      -10.6370   31.9570    6.0000 C.3   777  DUD777      0.1773
     13  O4'       -9.8770   31.3790    4.9170 O.3   777  DUD777     -0.3339
     14  O3'      -10.0790   32.3560    8.3890 O.3   777  DUD777     -0.2203
     15  C5'      -11.4910   33.1070    5.4880 C.3   777  DUD777      0.1812
     16  O5'      -10.6700   34.1550    4.9760 O.3   777  DUD777     -0.3111
     17  PA       -11.3590   35.5570    4.5440 P.3   777  DUD777      0.2231
     18  O1A      -12.3900   35.9570    5.5870 O.3   777  DUD777     -0.4370
     19  O2A      -10.2420   36.5740    4.2780 O.2   777  DUD777     -0.5169
     20  O3A      -12.0240   35.3080    3.1290 O.3   777  DUD777     -0.2261
     21  PB       -13.4800   35.4960    2.5250 P.3   777  DUD777      0.5373
     22  O1B      -14.4910   36.2720    3.3350 O.3   777  DUD777     -0.1143
     23  O2B      -13.4400   35.6020    1.0390 O.2   777  DUD777     -0.2221
     24  O3B      -13.9690   33.9680    2.6350 O.3   777  DUD777     -0.1143
@<TRIPOS>BOND
     1    23    21    2
     2     8     4    2
     3    21    24    1
     4    21    20    1
     5    21    22    1
     6     4     3    2
     7     4     5    1
     8    20    17    1
     9     3     2    2
    10     5     6    2
    11     2     7    2
    12     2     1   am
    13    19    17    2
    14     6     1    1
    15    17    16    1
    16    17    18    1
    17     1     9    1
    18    13     9    1
    19    13    12    1
    20    16    15    1
    21     9    10    1
    22    15    12    1
    23    12    11    1
    24    10    11    1
    25    11    14    1
