@<TRIPOS>MOLECULE
2hr7_FUC_A_1.pdb
 10 10 0 0 0
SMALL
GASTEIGER

@<TRIPOS>ATOM
      1  C1        25.6890   60.8580   39.1450 C.3   552  FUC552      0.1776
      2  C2        26.1570   62.3300   39.0190 C.3   552  FUC552      0.2141
      3  C3        25.0210   63.3050   38.6460 C.3   552  FUC552      0.2172
      4  C4        23.7390   63.0390   39.4650 C.3   552  FUC552      0.2116
      5  C5        23.3840   61.5550   39.4120 C.3   552  FUC552      0.1483
      6  C6        22.1540   61.2690   40.2750 C.3   552  FUC552      0.0349
      7  O2        27.1860   62.4120   38.0400 O.3   552  FUC552     -0.2176
      8  O3        25.4840   64.6450   38.7960 O.3   552  FUC552     -0.2175
      9  O4        23.8810   63.4320   40.8240 O.3   552  FUC552     -0.2177
     10  O5        24.4780   60.7610   39.8650 O.3   552  FUC552     -0.3508
@<TRIPOS>BOND
     1     7     2    1
     2     3     8    1
     3     3     2    1
     4     3     4    1
     5     2     1    1
     6     1    10    1
     7     5     4    1
     8     5    10    1
     9     5     6    1
    10     4     9    1
