@<TRIPOS>MOLECULE
2hr8_SAH_A_1.pdb
 26 28 0 0 0
SMALL
GASTEIGER

@<TRIPOS>ATOM
      1  N        -13.0440  -33.6830   32.6880 N.3   801  SAH801     -0.1208
      2  CA       -13.0440  -32.2340   32.4390 C.3   801  SAH801      0.1952
      3  CB       -13.5360  -31.4980   33.6880 C.3   801  SAH801      0.0422
      4  CG       -14.9850  -31.8540   34.0280 C.3   801  SAH801      0.0597
      5  SD       -15.5600  -30.9950   35.5360 S.3   801  SAH801     -0.1375
      6  C        -11.6210  -31.7700   32.1200 C.2   801  SAH801      0.3819
      7  O        -10.6630  -32.5140   32.3070 O.co2 801  SAH801     -0.2441
      8  OXT      -11.4170  -30.6360   31.6800 O.co2 801  SAH801     -0.2441
      9  C5'      -16.5430  -29.6170   34.8350 C.3   801  SAH801      0.0899
     10  C4'      -16.1240  -28.2610   35.4120 C.3   801  SAH801      0.1630
     11  O4'      -15.0060  -27.7930   34.6350 O.3   801  SAH801     -0.3153
     12  C3'      -17.2210  -27.2030   35.2560 C.3   801  SAH801      0.2168
     13  O3'      -17.0200  -26.1300   36.1820 O.3   801  SAH801     -0.2175
     14  C2'      -16.9310  -26.7030   33.8460 C.3   801  SAH801      0.2569
     15  O2'      -17.4730  -25.3880   33.7080 O.3   801  SAH801     -0.2130
     16  C1'      -15.4070  -26.5940   33.9490 C.3   801  SAH801      0.3185
     17  N9       -14.8450  -26.5160   32.5860 N.pl3 801  SAH801     -0.1439
     18  C8       -14.5260  -27.5650   31.8190 C.3   801  SAH801      0.3377
     19  N7       -14.1280  -27.1390   30.6270 N.2   801  SAH801     -0.2095
     20  C5       -14.1840  -25.8110   30.6290 C.2   801  SAH801      0.2526
     21  C6       -13.8990  -24.8240   29.6920 C.2   801  SAH801      0.4393
     22  N6       -13.4200  -25.1630   28.4970 N.pl3 801  SAH801      0.2180
     23  N1       -14.0780  -23.5380   30.0200 N.2   801  SAH801      0.0021
     24  C2       -14.5140  -23.1900   31.2220 C.3   801  SAH801      0.5254
     25  N3       -14.7890  -24.1020   32.1380 N.2   801  SAH801     -0.0055
     26  C4       -14.6390  -25.4100   31.8780 C.2   801  SAH801      0.3518
@<TRIPOS>BOND
     1    22    21    1
     2    21    23    2
     3    21    20    1
     4    23    24    1
     5    19    20    2
     6    19    18    1
     7    20    26    1
     8    24    25    1
     9     8     6   ar
    10    18    17    1
    11    26    25    2
    12    26    17    1
    13     6     7   ar
    14     6     2    1
    15     2     1    1
    16     2     3    1
    17    17    16    1
    18     3     4    1
    19    15    14    1
    20    14    16    1
    21    14    12    1
    22    16    11    1
    23     4     5    1
    24    11    10    1
    25     9    10    1
    26     9     5    1
    27    12    10    1
    28    12    13    1
