@<TRIPOS>MOLECULE
2hrb_NAP_A_1.pdb
 48 52 0 0 0
SMALL
GASTEIGER

@<TRIPOS>ATOM
      1  PA        13.8080   24.2780   10.0100 P.3   1001  NAP1001     0.2189
      2  O1A       13.4270   25.1360    8.8930 O.2   1001  NAP1001    -0.5170
      3  O2A       15.1030   24.6650   10.6670 O.3   1001  NAP1001    -0.4371
      4  O5B       12.5930   24.2010   11.0840 O.3   1001  NAP1001    -0.3112
      5  C5B       12.6760   23.3010   12.1830 C.3   1001  NAP1001     0.1813
      6  C4B       11.3060   23.2120   12.8370 C.3   1001  NAP1001     0.1820
      7  O4B       11.5010   22.4490   13.9860 O.3   1001  NAP1001    -0.3136
      8  C3B       10.8160   24.5970   13.3140 C.3   1001  NAP1001     0.2157
      9  O3B        9.3930   24.6330   13.2130 O.3   1001  NAP1001    -0.2175
     10  C2B       11.3270   24.6740   14.7570 C.3   1001  NAP1001     0.2314
     11  O2B       10.6090   25.5900   15.5980 O.3   1001  NAP1001    -0.2630
     12  C1B       11.1220   23.2000   15.1320 C.3   1001  NAP1001     0.3158
     13  N9A       11.7760   22.8700   16.4000 N.pl3 1001  NAP1001    -0.1439
     14  C8A       13.1060   22.9690   16.7510 C.3   1001  NAP1001     0.3377
     15  N7A       13.1970   22.5660   18.0400 N.2   1001  NAP1001    -0.2095
     16  C5A       11.9590   22.2690   18.5190 C.2   1001  NAP1001     0.2526
     17  C6A       11.4810   21.8550   19.7630 C.2   1001  NAP1001     0.4393
     18  N6A       12.2980   21.6660   20.8250 N.pl3 1001  NAP1001     0.2180
     19  N1A       10.1230   21.6100   19.8830 N.2   1001  NAP1001     0.0021
     20  C2A        9.2430   21.8130   18.8390 C.3   1001  NAP1001     0.5254
     21  N3A        9.7100   22.2460   17.6190 N.2   1001  NAP1001    -0.0055
     22  C4A       11.0510   22.4610   17.4840 C.2   1001  NAP1001     0.3518
     23  O3        13.9730   22.7330    9.5390 O.3   1001  NAP1001    -0.2703
     24  PN        13.8020   22.1040    8.0550 P.3   1001  NAP1001     0.2189
     25  O1N       14.9960   22.4850    7.2420 O.2   1001  NAP1001    -0.5170
     26  O2N       12.4150   22.2990    7.5040 O.3   1001  NAP1001    -0.4371
     27  O5D       13.9450   20.5450    8.4330 O.3   1001  NAP1001    -0.3112
     28  C5D       12.8630   19.7580    8.8830 C.3   1001  NAP1001     0.1813
     29  C4D       13.4120   18.3470    9.0950 C.3   1001  NAP1001     0.1799
     30  O4D       14.0630   17.8440    7.9140 O.3   1001  NAP1001    -0.3327
     31  C3D       14.4560   18.3270   10.2110 C.3   1001  NAP1001     0.2158
     32  O3D       14.2800   17.1370   10.9400 O.3   1001  NAP1001    -0.2175
     33  C2D       15.7900   18.3260    9.4700 C.3   1001  NAP1001     0.2309
     34  O2D       16.7950   17.7560   10.2910 O.3   1001  NAP1001    -0.2158
     35  C1D       15.4340   17.5210    8.2100 C.3   1001  NAP1001     0.2263
     36  N1N       16.2640   17.7420    7.0080 N.pl3 1001  NAP1001    -0.2787
     37  C2N       16.3260   18.9860    6.4040 C.3   1001  NAP1001     0.1244
     38  C3N       17.0890   19.2070    5.2360 C.2   1001  NAP1001     0.0544
     39  C7N       17.1750   20.5940    4.6180 C.2   1001  NAP1001     0.2818
     40  O7N       18.2580   20.9510    3.7730 O.2   1001  NAP1001    -0.2670
     41  N7N       16.2320   21.4990    4.8760 N.am  1001  NAP1001    -0.0839
     42  C4N       17.7810   18.1150    4.6710 C.2   1001  NAP1001     0.0033
     43  C5N       17.7110   16.8510    5.2820 C.2   1001  NAP1001     0.0157
     44  C6N       16.9380   16.6680    6.4520 C.2   1001  NAP1001     0.0633
     45  P2B       10.9860   27.1830   15.6950 P.3   1001  NAP1001     0.5328
     46  O1X       10.3440   27.6880   16.9880 O.3   1001  NAP1001    -0.1145
     47  O2X       10.4630   27.9180   14.4850 O.2   1001  NAP1001    -0.2224
     48  O3X       12.5080   27.2310   15.6700 O.3   1001  NAP1001    -0.1145
@<TRIPOS>BOND
     1    40    39    2
     2    39    41   am
     3    39    38    1
     4    42    38    2
     5    42    43    1
     6    38    37    1
     7    43    44    2
     8    37    36    1
     9    44    36    1
    10    36    35    1
    11    25    24    2
    12    26    24    1
    13    30    35    1
    14    30    29    1
    15    24    27    1
    16    24    23    1
    17    35    33    1
    18    27    28    1
    19    28    29    1
    20     2     1    2
    21    29    31    1
    22    33    31    1
    23    33    34    1
    24    23     1    1
    25     1     3    1
    26     1     4    1
    27    31    32    1
    28     4     5    1
    29     5     6    1
    30     6     8    1
    31     6     7    1
    32     9     8    1
    33     8    10    1
    34     7    12    1
    35    47    45    2
    36    10    12    1
    37    10    11    1
    38    12    13    1
    39    11    45    1
    40    48    45    1
    41    45    46    1
    42    13    14    1
    43    13    22    1
    44    14    15    1
    45    22    21    2
    46    22    16    1
    47    21    20    1
    48    15    16    2
    49    16    17    1
    50    20    19    1
    51    17    19    2
    52    17    18    1
