@<TRIPOS>MOLECULE
2hre_PP9_A_1.pdb
 42 46 0 0 0
SMALL
GASTEIGER

@<TRIPOS>ATOM
      1  CHA        8.2190   17.2500   -8.0700 C.2   601  PP9601      0.0985
      2  CHB        3.9540   17.3780   -5.9400 C.2   601  PP9601      0.1301
      3  CHC        3.2580   12.7900   -6.8460 C.2   601  PP9601      0.1301
      4  CHD        7.5330   12.6120   -9.0240 C.2   601  PP9601      0.0981
      5  NA         6.0210   16.8830   -7.1000 N.2   601  PP9601     -0.3673
      6  C1A        7.1350   17.6850   -7.3350 C.2   601  PP9601      0.1469
      7  C2A        6.9650   18.9730   -6.7200 C.2   601  PP9601      0.0143
      8  C3A        5.7720   18.9760   -6.1540 C.2   601  PP9601      0.0336
      9  C4A        5.1840   17.7200   -6.3760 C.1   601  PP9601      0.0084
     10  CMA        5.1760   20.1720   -5.3880 C.3   601  PP9601      0.0412
     11  CAA        7.8420   20.1740   -6.6200 C.3   601  PP9601      0.0411
     12  CBA        8.3770   20.1070   -5.1970 C.3   601  PP9601      0.1188
     13  CGA        8.0960   21.0300   -4.1260 C.2   601  PP9601      0.3652
     14  O1A        7.6970   22.1550   -4.3840 O.co2 601  PP9601     -0.2456
     15  O2A        8.2330   20.5970   -2.9920 O.co2 601  PP9601     -0.2456
     16  NB         3.9630   15.0940   -6.6010 N.2   601  PP9601     -0.3327
     17  C1B        3.3470   16.1960   -6.0490 C.1   601  PP9601      0.0183
     18  C2B        2.0310   15.9190   -5.6070 C.2   601  PP9601      0.0407
     19  C3B        1.7920   14.6290   -5.8600 C.2   601  PP9601      0.0404
     20  C4B        3.0100   14.1040   -6.4670 C.1   601  PP9601      0.0183
     21  CMB        1.0550   16.8950   -4.9530 C.3   601  PP9601      0.0418
     22  CAB        0.4890   13.9100   -5.5270 C.3   601  PP9601      0.0364
     23  CBB       -0.6900   14.0580   -6.4710 C.3   601  PP9601      0.0058
     24  NC         5.4840   13.0870   -7.7890 N.2   601  PP9601     -0.3673
     25  C1C        4.4090   12.2860   -7.4330 C.1   601  PP9601      0.0084
     26  C2C        4.6390   10.9220   -7.8190 C.2   601  PP9601      0.0336
     27  C3C        5.8190   10.8690   -8.4490 C.2   601  PP9601      0.0138
     28  C4C        6.3420   12.2090   -8.4410 C.2   601  PP9601      0.1469
     29  CMC        3.7440    9.7130   -7.5650 C.3   601  PP9601      0.0412
     30  CAC        6.4640    9.5970   -8.9940 C.3   601  PP9601      0.0293
     31  CBC        6.6680    8.4030   -8.0720 C.3   601  PP9601      0.0051
     32  ND         7.5210   14.9360   -8.3720 N.2   601  PP9601     -0.3335
     33  C1D        8.0930   13.8670   -9.0290 C.1   601  PP9601      0.0116
     34  C2D        9.3160   14.2580   -9.6780 C.2   601  PP9601      0.0442
     35  C3D        9.5130   15.5640   -9.4200 C.2   601  PP9601      0.0623
     36  C4D        8.4120   15.9840   -8.6030 C.1   601  PP9601      0.0153
     37  CMD       10.2600   13.3870  -10.5180 C.3   601  PP9601      0.0421
     38  CAD       10.6950   16.3790   -9.9220 C.2   601  PP9601      0.0167
     39  CBD       12.0220   16.3290   -9.2270 C.2   601  PP9601      0.0868
     40  CGD       13.1020   17.1680   -9.8400 C.2   601  PP9601      0.3880
     41  O1D       13.3880   16.9700  -11.0230 O.co2 601  PP9601     -0.2405
     42  O2D       13.6630   18.0280   -9.1570 O.co2 601  PP9601     -0.2405
@<TRIPOS>BOND
     1    41    40   ar
     2    37    34    1
     3    38    35    1
     4    38    39    2
     5    40    39    1
     6    40    42   ar
     7    34    35    2
     8    34    33    1
     9    35    36    1
    10    33     4    2
    11    33    32    2
    12     4    28    1
    13    30    27    1
    14    30    31    1
    15    36    32    2
    16    36     1    2
    17    27    28    1
    18    27    26    2
    19    28    24    2
    20     1     6    1
    21    26    29    1
    22    26    25    1
    23    24    25    2
    24    25     3    2
    25     6     5    2
    26     6     7    1
    27     5     9    2
    28     3    20    1
    29     7    11    1
    30     7     8    2
    31    11    12    1
    32    16    20    2
    33    16    17    2
    34    23    22    1
    35    20    19    2
    36     9     8    1
    37     9     2    2
    38     8    10    1
    39    17     2    1
    40    17    18    2
    41    19    18    1
    42    19    22    1
    43    18    21    1
    44    12    13    1
    45    14    13   ar
    46    13    15   ar
