@<TRIPOS>MOLECULE
2hrg_CBS_A_1.pdb
 28 29 0 0 0
SMALL
GASTEIGER

@<TRIPOS>ATOM
      1  C1A       -2.2870   -3.9100   11.1240 C.3   497  CBS497      0.2546
      2  C2A       -3.5120   -3.1070   11.5560 C.3   497  CBS497      0.1643
      3  C3A       -4.8360   -3.8580   11.6210 C.3   497  CBS497      0.2055
      4  C4A       -4.9800   -5.1260   10.7720 C.3   497  CBS497      0.2132
      5  C5A       -3.6880   -5.8560   10.3780 C.3   497  CBS497      0.1834
      6  C6A       -3.7330   -6.7140    9.1220 C.3   497  CBS497      0.2142
      7  C7A       -2.9300   -0.8380   12.3620 C.3   497  CBS497      0.2259
      8  C8A       -3.0890    0.0720   13.5640 C.3   497  CBS497      0.0555
      9  N2A       -3.2850   -2.2060   12.6740 N.3   497  CBS497     -0.1828
     10  O1A       -1.2890   -3.1280   10.4920 O.3   497  CBS497     -0.3266
     11  O3A       -5.9710   -3.0210   11.6830 O.3   497  CBS497     -0.2186
     12  O4A       -6.0890   -5.9240   11.1600 O.3   497  CBS497     -0.2176
     13  O5A       -2.4530   -5.1260   10.3960 O.3   497  CBS497     -0.3265
     14  O6A       -2.6630   -7.6180    9.3310 O.3   497  CBS497     -0.2176
     15  O7A       -3.6530   -0.3250   11.2580 O.3   497  CBS497     -0.2036
     16  C1B        2.8390   -3.0410   11.5610 C.3   497  CBS497      0.1623
     17  C2B        2.1300   -4.3540   11.8390 C.3   497  CBS497      0.1376
     18  C3B        0.6740   -4.4540   11.4410 C.3   497  CBS497      0.1998
     19  C4B       -0.1050   -3.1340   11.2660 C.3   497  CBS497      0.1790
     20  C5B        0.7060   -1.8780   10.9460 C.3   497  CBS497      0.1777
     21  C6B        0.0330   -0.5550   11.2690 C.3   497  CBS497      0.2140
     22  C7B        3.6150   -6.1620   12.6420 C.3   497  CBS497      0.2258
     23  C8B        3.8240   -7.6330   12.3390 C.3   497  CBS497      0.0555
     24  N2B        2.9310   -5.5210   11.5370 N.3   497  CBS497     -0.1854
     25  O3B        0.0750   -5.4870   12.1920 O.3   497  CBS497     -0.2189
     26  O5B        2.0830   -1.8720   11.2980 O.3   497  CBS497     -0.3494
     27  O6B        0.0740   -0.3170   12.6610 O.3   497  CBS497     -0.2176
     28  O7B        2.8800   -6.0280   13.8390 O.3   497  CBS497     -0.2036
@<TRIPOS>BOND
     1     6    14    1
     2     6     5    1
     3     5    13    1
     4     5     4    1
     5    13     1    1
     6    10     1    1
     7    10    19    1
     8     4    12    1
     9     4     3    1
    10    20    19    1
    11    20    21    1
    12    20    26    1
    13     1     2    1
    14    15     7    1
    15    19    18    1
    16    21    27    1
    17    26    16    1
    18    18    17    1
    19    18    25    1
    20    24    17    1
    21    24    22    1
    22     2     3    1
    23     2     9    1
    24    16    17    1
    25     3    11    1
    26    23    22    1
    27     7     9    1
    28     7     8    1
    29    22    28    1
