@<TRIPOS>MOLECULE
2hrg_4MA_A_1.pdb
 10 10 0 0 0
SMALL
GASTEIGER

@<TRIPOS>ATOM
      1  O1        -9.1920   16.8950    4.5520 O.co2 3001  4MA3001    -0.2406
      2  C7       -10.2380   16.6640    3.9090 C.2   3001  4MA3001     0.3878
      3  O2       -11.3490   16.7430    4.4840 O.co2 3001  4MA3001    -0.2406
      4  C1       -10.1820   16.3100    2.4540 C.ar  3001  4MA3001     0.0798
      5  C2        -8.9810   16.3880    1.7430 C.ar  3001  4MA3001     0.0063
      6  C3        -8.9520   16.0580    0.3860 C.ar  3001  4MA3001    -0.0040
      7  C4       -10.1310   15.6560   -0.2510 C.ar  3001  4MA3001    -0.0218
      8  C8       -10.1260   15.3300   -1.5800 C.3   3001  4MA3001     0.0310
      9  C5       -11.3280   15.5780    0.4580 C.ar  3001  4MA3001    -0.0040
     10  C6       -11.3530   15.9050    1.8110 C.ar  3001  4MA3001     0.0063
@<TRIPOS>BOND
     1     8     7    1
     2     7     6   ar
     3     7     9   ar
     4     6     5   ar
     5     9    10   ar
     6     5     4   ar
     7    10     4   ar
     8     4     2    1
     9     2     3   ar
    10     2     1   ar
