@<TRIPOS>MOLECULE
2hrh_CBS_A_1.pdb
 28 29 0 0 0
SMALL
GASTEIGER

@<TRIPOS>ATOM
      1  C1A      -25.3400  -18.8110  -15.7730 C.3   1001  CBS1001     0.2546
      2  C2A      -24.4610  -17.5910  -15.5010 C.3   1001  CBS1001     0.1643
      3  C3A      -25.1500  -16.2160  -15.5200 C.3   1001  CBS1001     0.2055
      4  C4A      -26.4600  -16.0230  -16.3190 C.3   1001  CBS1001     0.2132
      5  C5A      -27.2590  -17.3020  -16.5870 C.3   1001  CBS1001     0.1834
      6  C6A      -27.7460  -17.3640  -18.0130 C.3   1001  CBS1001     0.2142
      7  C7A      -22.1500  -18.2300  -14.7690 C.3   1001  CBS1001     0.2259
      8  C8A      -21.2300  -18.2000  -13.5480 C.3   1001  CBS1001     0.0555
      9  N2A      -23.5090  -17.8470  -14.4330 N.3   1001  CBS1001    -0.1828
     10  O1A      -24.5920  -19.8250  -16.4440 O.3   1001  CBS1001    -0.3266
     11  O3A      -24.2290  -15.1490  -15.4700 O.3   1001  CBS1001    -0.2186
     12  O4A      -27.2970  -14.8680  -16.0910 O.3   1001  CBS1001    -0.2176
     13  O5A      -26.6350  -18.5780  -16.3850 O.3   1001  CBS1001    -0.3265
     14  O6A      -28.8480  -18.2600  -17.9030 O.3   1001  CBS1001    -0.2176
     15  O7A      -21.7230  -17.3450  -15.7670 O.3   1001  CBS1001    -0.2036
     16  C1B      -24.2970  -23.9690  -15.6010 C.3   1001  CBS1001     0.1623
     17  C2B      -25.5890  -23.3010  -15.2290 C.3   1001  CBS1001     0.1376
     18  C3B      -25.7570  -21.8280  -15.5020 C.3   1001  CBS1001     0.1998
     19  C4B      -24.4820  -20.9820  -15.6520 C.3   1001  CBS1001     0.1790
     20  C5B      -23.2090  -21.7440  -16.0520 C.3   1001  CBS1001     0.1777
     21  C6B      -21.9010  -21.0970  -15.6040 C.3   1001  CBS1001     0.2140
     22  C7B      -27.3960  -24.7790  -14.4720 C.3   1001  CBS1001     0.2258
     23  C8B      -28.8700  -24.8540  -14.8250 C.3   1001  CBS1001     0.0555
     24  N2B      -26.7590  -24.0720  -15.5660 N.3   1001  CBS1001    -0.1854
     25  O3B      -26.9380  -21.3650  -14.8500 O.3   1001  CBS1001    -0.2189
     26  O5B      -23.1740  -23.1880  -15.8800 O.3   1001  CBS1001    -0.3494
     27  O6B      -21.4340  -21.6390  -14.3630 O.3   1001  CBS1001    -0.2176
     28  O7B      -27.2080  -24.0990  -13.2230 O.3   1001  CBS1001    -0.2036
@<TRIPOS>BOND
     1     6    14    1
     2     6     5    1
     3     5    13    1
     4     5     4    1
     5    10     1    1
     6    10    19    1
     7    13     1    1
     8     4    12    1
     9     4     3    1
    10    20    26    1
    11    20    19    1
    12    20    21    1
    13    26    16    1
    14     1     2    1
    15    15     7    1
    16    19    18    1
    17    21    27    1
    18    16    17    1
    19    24    17    1
    20    24    22    1
    21     3     2    1
    22     3    11    1
    23    18    17    1
    24    18    25    1
    25     2     9    1
    26    23    22    1
    27     7     9    1
    28     7     8    1
    29    22    28    1
