@<TRIPOS>MOLECULE
2hrm_UC5_A_1.pdb
 24 25 0 0 0
SMALL
GASTEIGER

@<TRIPOS>ATOM
      1  O4        26.5010   20.9970    2.4950 O.2   777  UC5777     -0.2085
      2  C4        25.6100   21.4820    3.2110 C.1   777  UC5777      0.2182
      3  C5        25.7480   22.7390    3.8280 C.2   777  UC5777      0.1242
      4  C6        24.7130   23.2360    4.6310 C.2   777  UC5777      0.0928
      5  N3        24.4480   20.7790    3.4000 N.2   777  UC5777     -0.2452
      6  C2        23.4040   21.2410    4.2320 C.1   777  UC5777      0.2844
      7  O2        22.3830   20.5290    4.4210 O.2   777  UC5777     -0.1918
      8  N1        23.5370   22.4810    4.8210 N.am  777  UC5777     -0.1790
      9  C1'       22.5280   23.0630    5.7260 C.3   777  UC5777      0.2090
     10  C2'       23.1430   23.1820    7.1450 C.3   777  UC5777      0.0874
     11  C3'       23.2990   24.6540    7.4080 C.3   777  UC5777      0.1857
     12  O3'       23.1650   25.0720    8.7730 O.3   777  UC5777     -0.2203
     13  O4'       22.1580   24.3960    5.3420 O.3   777  UC5777     -0.3339
     14  C4'       22.2970   25.2710    6.4520 C.3   777  UC5777      0.1773
     15  C5'       22.8570   26.6350    6.0230 C.3   777  UC5777      0.1835
     16  O5'       21.9230   27.2550    5.2220 O.3   777  UC5777     -0.2897
     17  PA        22.2450   28.7830    4.7820 P.3   777  UC5777      0.3770
     18  O1A       20.8970   29.3130    4.3430 O.2   777  UC5777     -0.2550
     19  O2A       22.9390   29.5700    5.8760 O.3   777  UC5777     -0.1394
     20  C3A       23.4270   28.5370    3.4200 C.3   777  UC5777      0.1765
     21  PB        23.7150   29.8960    2.2740 P.3   777  UC5777      0.1295
     22  O1B       23.8890   31.1550    3.0930 O.3   777  UC5777     -0.3567
     23  O2B       24.9100   29.7550    1.4310 O.3   777  UC5777     -0.3567
     24  O3B       22.4810   30.0340    1.2420 O.2   777  UC5777     -0.4595
@<TRIPOS>BOND
     1    24    21    2
     2    23    21    1
     3    21    22    1
     4    21    20    1
     5     1     2    2
     6     2     5    2
     7     2     3    1
     8     5     6    2
     9    20    17    1
    10     3     4    2
    11     6     7    2
    12     6     8   am
    13    18    17    2
    14     4     8    1
    15    17    16    1
    16    17    19    1
    17     8     9    1
    18    16    15    1
    19    13     9    1
    20    13    14    1
    21     9    10    1
    22    15    14    1
    23    14    11    1
    24    10    11    1
    25    11    12    1
