@<TRIPOS>MOLECULE
2hrq_SIA_A_1.pdb
 21 21 0 0 0
SMALL
GASTEIGER

@<TRIPOS>ATOM
      1  C1        33.8040  -21.7070   19.4660 C.2   182  SIA182      0.4179
      2  C2        34.7160  -20.4980   19.6540 C.3   182  SIA182      0.3155
      3  C3        35.9810  -20.9320   20.4140 C.3   182  SIA182      0.1056
      4  C4        36.9280  -19.7460   20.6280 C.3   182  SIA182      0.1798
      5  C5        36.5640  -18.5780   19.6960 C.3   182  SIA182      0.1554
      6  C6        36.2180  -19.1220   18.2950 C.3   182  SIA182      0.1734
      7  C7        35.9710  -17.9770   17.3020 C.3   182  SIA182      0.2135
      8  C8        36.8610  -18.0840   16.0600 C.3   182  SIA182      0.2173
      9  C9        36.5940  -19.3750   15.2820 C.3   182  SIA182      0.2175
     10  C10       37.7570  -16.6340   20.5020 C.2   182  SIA182      0.2420
     11  C11       38.5930  -16.8810   21.7500 C.3   182  SIA182      0.0964
     12  N5        37.6640  -17.6300   19.6200 N.am  182  SIA182     -0.2020
     13  O1A       32.5930  -21.5960   19.7610 O.co2 182  SIA182     -0.2401
     14  O1B       34.2960  -22.7690   19.0250 O.co2 182  SIA182     -0.2401
     15  O2        34.0410  -19.5130   20.3590 O.3   182  SIA182     -0.1830
     16  O4        36.8620  -19.3240   21.9820 O.3   182  SIA182     -0.2210
     17  O6        35.0380  -19.9810   18.3430 O.3   182  SIA182     -0.3220
     18  O7        34.6090  -17.9680   16.8970 O.3   182  SIA182     -0.2176
     19  O8        36.6130  -16.9700   15.2170 O.3   182  SIA182     -0.2175
     20  O9        37.5600  -20.3550   15.6360 O.3   182  SIA182     -0.2175
     21  O10       37.2020  -15.5420   20.3430 O.2   182  SIA182     -0.2733
@<TRIPOS>BOND
     1    19     8    1
     2     9    20    1
     3     9     8    1
     4     8     7    1
     5    18     7    1
     6     7     6    1
     7     6    17    1
     8     6     5    1
     9    17     2    1
    10    14     1   ar
    11     1     2    1
    12     1    13   ar
    13    12     5    1
    14    12    10   am
    15     2    15    1
    16     2     3    1
    17     5     4    1
    18    21    10    2
    19     3     4    1
    20    10    11    1
    21     4    16    1
