@<TRIPOS>MOLECULE
2hrq_GD7_A_1.pdb
 10 9 0 0 0
SMALL
GASTEIGER

@<TRIPOS>ATOM
      1  C1        27.4220  -24.1490  -11.5300 C.3     1  GD71        0.0024
      2  C2        27.4290  -26.1420  -13.0540 C.3     1  GD71        0.0024
      3  C3        27.0340  -26.4590  -10.5970 C.3     1  GD71        0.0024
      4  C4        30.2020  -25.0490  -12.4410 C.3     1  GD71        0.0325
      5  C5        29.3440  -25.8410  -11.4010 C.3     1  GD71        0.1212
      6  C6        27.8130  -25.6410  -11.6490 C.3     1  GD71        0.0254
      7  C7        31.5600  -27.3250   -9.5290 C.3     1  GD71        0.0904
      8  OH        29.6550  -25.3600  -10.0750 O.3     1  GD71       -0.3199
      9  P1        31.2290  -25.5760   -9.6770 P.3     1  GD71        0.2205
     10  O11       31.4810  -25.0110   -8.3150 O.3     1  GD71       -0.1774
@<TRIPOS>BOND
     1     2     6    1
     2     4     5    1
     3     6     1    1
     4     6     5    1
     5     6     3    1
     6     5     8    1
     7     8     9    1
     8     9     7    1
     9     9    10    1
