@<TRIPOS>MOLECULE
2hrr_SIA_A_1.pdb
 21 21 0 0 0
SMALL
GASTEIGER

@<TRIPOS>ATOM
      1  C1       -36.8500  -34.6790   30.0870 C.2   182  SIA182      0.4179
      2  C2       -35.8750  -35.0980   31.1840 C.3   182  SIA182      0.3155
      3  C3       -34.4600  -35.2110   30.5960 C.3   182  SIA182      0.1056
      4  C4       -33.4480  -35.6390   31.6710 C.3   182  SIA182      0.1798
      5  C5       -34.0060  -35.4030   33.0840 C.3   182  SIA182      0.1554
      6  C6       -34.7740  -34.0660   33.1210 C.3   182  SIA182      0.1734
      7  C7       -35.2140  -33.6800   34.5550 C.3   182  SIA182      0.2135
      8  C8       -36.7260  -33.8360   34.7460 C.3   182  SIA182      0.2173
      9  C9       -37.0360  -34.5090   36.0800 C.3   182  SIA182      0.2175
     10  C10      -32.6670  -36.4700   34.7840 C.2   182  SIA182      0.2420
     11  C11      -31.6130  -37.4370   34.2620 C.3   182  SIA182      0.0964
     12  N5       -32.9190  -35.3910   34.0470 N.am  182  SIA182     -0.2020
     13  O1A      -36.8540  -35.3150   29.0110 O.co2 182  SIA182     -0.2401
     14  O1B      -37.6300  -33.7250   30.3030 O.co2 182  SIA182     -0.2401
     15  O2       -36.2690  -36.3160   31.7130 O.3   182  SIA182     -0.1830
     16  O4       -33.1190  -37.0130   31.5070 O.3   182  SIA182     -0.2210
     17  O6       -35.9350  -34.1000   32.2300 O.3   182  SIA182     -0.3220
     18  O7       -34.5230  -34.4520   35.5290 O.3   182  SIA182     -0.2176
     19  O8       -37.3480  -32.5590   34.6890 O.3   182  SIA182     -0.2175
     20  O9       -36.4840  -35.8180   36.0960 O.3   182  SIA182     -0.2175
     21  O10      -33.2460  -36.7050   35.8480 O.2   182  SIA182     -0.2733
@<TRIPOS>BOND
     1    13     1   ar
     2     1    14   ar
     3     1     2    1
     4     3     2    1
     5     3     4    1
     6     2    15    1
     7     2    17    1
     8    16     4    1
     9     4     5    1
    10    17     6    1
    11     5     6    1
    12     5    12    1
    13     6     7    1
    14    12    10   am
    15    11    10    1
    16     7     8    1
    17     7    18    1
    18    19     8    1
    19     8     9    1
    20    10    21    2
    21     9    20    1
