@<TRIPOS>MOLECULE
2hru_ADP_A_1.pdb
 27 29 0 0 0
SMALL
GASTEIGER

@<TRIPOS>ATOM
      1  PB        28.1740  -31.6920  128.0700 P.3   2005  ADP2005     0.5373
      2  O1B       29.6070  -31.9630  127.8210 O.3   2005  ADP2005    -0.1143
      3  O2B       27.2630  -31.8200  126.7500 O.2   2005  ADP2005    -0.2221
      4  O3B       27.5210  -32.7010  129.1400 O.3   2005  ADP2005    -0.1143
      5  PA        26.5310  -29.8330  129.3390 P.3   2005  ADP2005     0.2231
      6  O1A       26.1330  -30.9690  130.2060 O.3   2005  ADP2005    -0.4370
      7  O2A       25.6010  -29.3860  128.2840 O.2   2005  ADP2005    -0.5169
      8  O3A       27.9230  -30.2030  128.6250 O.3   2005  ADP2005    -0.2261
      9  O5'       26.9400  -28.5930  130.2770 O.3   2005  ADP2005    -0.3111
     10  C5'       27.5010  -27.4110  129.7020 C.3   2005  ADP2005     0.1813
     11  C4'       28.3630  -26.6960  130.7440 C.3   2005  ADP2005     0.1821
     12  O4'       27.5370  -26.4320  131.8920 O.3   2005  ADP2005    -0.3135
     13  C3'       29.4480  -27.6700  131.2120 C.3   2005  ADP2005     0.2184
     14  O3'       30.5890  -26.9440  131.6760 O.3   2005  ADP2005    -0.2174
     15  C2'       28.7370  -28.3600  132.3760 C.3   2005  ADP2005     0.2570
     16  O2'       29.7060  -28.9200  133.2650 O.3   2005  ADP2005    -0.2130
     17  C1'       28.1200  -27.1170  133.0110 C.3   2005  ADP2005     0.3186
     18  N9        27.0950  -27.4530  134.0320 N.pl3 2005  ADP2005    -0.1439
     19  C8        25.8380  -27.7980  133.7750 C.3   2005  ADP2005     0.3377
     20  N7        25.1930  -28.0150  134.9220 N.2   2005  ADP2005    -0.2095
     21  C5        26.0500  -27.8200  135.9130 C.2   2005  ADP2005     0.2526
     22  C6        25.9740  -27.9010  137.2960 C.2   2005  ADP2005     0.4393
     23  N6        24.8390  -28.2720  137.8860 N.pl3 2005  ADP2005     0.2180
     24  N1        27.0610  -27.6290  138.0280 N.2   2005  ADP2005     0.0021
     25  C2        28.2030  -27.2890  137.4560 C.3   2005  ADP2005     0.5254
     26  N3        28.3120  -27.1980  136.1430 N.2   2005  ADP2005    -0.0055
     27  C4        27.2660  -27.4560  135.3410 C.2   2005  ADP2005     0.3518
@<TRIPOS>BOND
     1     3     1    2
     2     2     1    1
     3     1     8    1
     4     1     4    1
     5     7     5    2
     6     8     5    1
     7     5     6    1
     8     5     9    1
     9    10     9    1
    10    10    11    1
    11    11    13    1
    12    11    12    1
    13    13    14    1
    14    13    15    1
    15    12    17    1
    16    15    17    1
    17    15    16    1
    18    17    18    1
    19    19    18    1
    20    19    20    1
    21    18    27    1
    22    20    21    2
    23    27    21    1
    24    27    26    2
    25    21    22    1
    26    26    25    1
    27    22    23    1
    28    22    24    2
    29    25    24    1
