@<TRIPOS>MOLECULE
2hry_ACP_A_1.pdb
 31 33 0 0 0
SMALL
GASTEIGER

@<TRIPOS>ATOM
      1  PG        53.5530  -34.1470  190.4040 P.3   900  ACP900      0.1295
      2  O1G       52.4550  -34.4470  191.4070 O.3   900  ACP900     -0.3567
      3  O2G       54.7250  -35.0410  190.6320 O.3   900  ACP900     -0.3567
      4  O3G       53.0410  -34.1800  188.9730 O.2   900  ACP900     -0.4595
      5  PB        55.2760  -32.0090  191.2700 P.3   900  ACP900      0.3815
      6  O1B       55.8740  -30.9110  190.4450 O.2   900  ACP900     -0.2547
      7  O2B       56.2940  -33.0110  191.5950 O.3   900  ACP900     -0.1391
      8  C3B       53.9850  -32.4700  190.3790 C.3   900  ACP900      0.1768
      9  PA        54.0030  -31.1160  193.9510 P.3   900  ACP900      0.2209
     10  O1A       54.1880  -32.2660  194.9150 O.3   900  ACP900     -0.4371
     11  O2A       52.6140  -30.9950  193.4140 O.2   900  ACP900     -0.5170
     12  O3A       55.0300  -31.2400  192.7220 O.3   900  ACP900     -0.2483
     13  O5'       54.6800  -29.9090  194.7610 O.3   900  ACP900     -0.3111
     14  C5'       54.8570  -28.6740  194.0060 C.3   900  ACP900      0.1813
     15  C4'       55.8550  -27.4870  194.3140 C.3   900  ACP900      0.1821
     16  O4'       55.4780  -26.7490  195.4470 O.3   900  ACP900     -0.3135
     17  C3'       57.1190  -28.2090  194.6450 C.3   900  ACP900      0.2184
     18  O3'       58.2230  -27.5160  194.1070 O.3   900  ACP900     -0.2174
     19  C2'       57.0650  -28.3770  196.1920 C.3   900  ACP900      0.2570
     20  O2'       58.3630  -28.3960  196.7580 O.3   900  ACP900     -0.2130
     21  C1'       56.1970  -27.2440  196.5900 C.3   900  ACP900      0.3186
     22  N9        55.1640  -27.5550  197.6700 N.pl3 900  ACP900     -0.1439
     23  C8        53.8990  -28.0210  197.5890 C.3   900  ACP900      0.3377
     24  N7        53.2480  -28.1970  198.7370 N.2   900  ACP900     -0.2095
     25  C5        54.1640  -27.8160  199.6220 C.2   900  ACP900      0.2526
     26  C6        54.2070  -27.7260  201.0700 C.2   900  ACP900      0.4393
     27  N6        53.1330  -28.0840  201.8340 N.pl3 900  ACP900      0.2180
     28  N1        55.3560  -27.2720  201.7260 N.2   900  ACP900      0.0021
     29  C2        56.4600  -26.9040  200.9990 C.3   900  ACP900      0.5254
     30  N3        56.5120  -26.9560  199.6330 N.2   900  ACP900     -0.0055
     31  C4        55.3750  -27.4050  199.0030 C.2   900  ACP900      0.3518
@<TRIPOS>BOND
     1     4     1    2
     2     8     1    1
     3     8     5    1
     4     1     3    1
     5     1     2    1
     6     6     5    2
     7     5     7    1
     8     5    12    1
     9    12     9    1
    10    11     9    2
    11     9    13    1
    12     9    10    1
    13    14    15    1
    14    14    13    1
    15    18    17    1
    16    15    17    1
    17    15    16    1
    18    17    19    1
    19    16    21    1
    20    19    21    1
    21    19    20    1
    22    21    22    1
    23    23    22    1
    24    23    24    1
    25    22    31    1
    26    24    25    2
    27    31    25    1
    28    31    30    2
    29    25    26    1
    30    30    29    1
    31    29    28    1
    32    26    28    2
    33    26    27    1
