@<TRIPOS>MOLECULE
2hs0_ATP_A_1.pdb
 31 33 0 0 0
SMALL
GASTEIGER

@<TRIPOS>ATOM
      1  PG        24.4340  -43.5880  153.6180 P.3   1065  ATP1065     0.5373
      2  O1G       24.8410  -42.2530  154.2300 O.3   1065  ATP1065    -0.1143
      3  O2G       24.0720  -43.5280  152.1780 O.2   1065  ATP1065    -0.2221
      4  O3G       23.2850  -44.2860  154.3300 O.3   1065  ATP1065    -0.1143
      5  PB        26.6710  -45.4410  152.8590 P.3   1065  ATP1065     0.2277
      6  O1B       26.8260  -44.7050  151.5540 O.2   1065  ATP1065    -0.5168
      7  O2B       27.7940  -45.8370  153.7540 O.3   1065  ATP1065    -0.4368
      8  O3B       25.6190  -44.6940  153.8480 O.3   1065  ATP1065    -0.2258
      9  PA        25.0940  -47.2030  151.1740 P.3   1065  ATP1065     0.2189
     10  O1A       24.6270  -45.9500  150.5180 O.2   1065  ATP1065    -0.5170
     11  O2A       24.0960  -48.2540  151.5430 O.3   1065  ATP1065    -0.4371
     12  O3A       25.8880  -46.8200  152.5330 O.3   1065  ATP1065    -0.2700
     13  O5'       26.3690  -47.7850  150.4190 O.3   1065  ATP1065    -0.3112
     14  C5'       27.0780  -48.9020  150.9190 C.3   1065  ATP1065     0.1813
     15  C4'       28.3020  -49.1830  150.0450 C.3   1065  ATP1065     0.1821
     16  O4'       27.7780  -49.7960  148.8650 O.3   1065  ATP1065    -0.3135
     17  C3'       29.0210  -47.9150  149.6140 C.3   1065  ATP1065     0.2184
     18  O3'       30.4440  -48.0990  149.5280 O.3   1065  ATP1065    -0.2174
     19  C2'       28.4340  -47.6620  148.2180 C.3   1065  ATP1065     0.2570
     20  O2'       29.2760  -46.7880  147.4500 O.3   1065  ATP1065    -0.2130
     21  C1'       28.1710  -49.0740  147.6940 C.3   1065  ATP1065     0.3186
     22  N9        27.0720  -48.9980  146.7100 N.pl3 1065  ATP1065    -0.1439
     23  C8        25.8610  -48.4710  146.9590 C.3   1065  ATP1065     0.3377
     24  N7        25.0710  -48.4050  145.8560 N.2   1065  ATP1065    -0.2095
     25  C5        25.8320  -48.8630  144.8470 C.2   1065  ATP1065     0.2526
     26  C6        25.5780  -49.0680  143.4280 C.2   1065  ATP1065     0.4393
     27  N6        24.3700  -48.7130  142.8800 N.pl3 1065  ATP1065     0.2180
     28  N1        26.6530  -49.4840  142.7380 N.2   1065  ATP1065     0.0021
     29  C2        27.8440  -49.7600  143.2580 C.3   1065  ATP1065     0.5254
     30  N3        28.1240  -49.6250  144.5540 N.2   1065  ATP1065    -0.0055
     31  C4        27.1450  -49.2240  145.3930 C.2   1065  ATP1065     0.3518
@<TRIPOS>BOND
     1    28    29    1
     2    28    26    2
     3    27    26    1
     4    29    30    1
     5    26    25    1
     6    30    31    2
     7    25    31    1
     8    25    24    2
     9    31    22    1
    10    24    23    1
    11    22    23    1
    12    22    21    1
    13    20    19    1
    14    21    19    1
    15    21    16    1
    16    19    17    1
    17    16    15    1
    18    18    17    1
    19    17    15    1
    20    15    14    1
    21    13    14    1
    22    13     9    1
    23    10     9    2
    24     9    11    1
    25     9    12    1
    26     6     5    2
    27     3     1    2
    28    12     5    1
    29     5     7    1
    30     5     8    1
    31     1     8    1
    32     1     2    1
    33     1     4    1
