@<TRIPOS>MOLECULE
2hs1_017_A_1.pdb
 38 41 0 0 0
SMALL
GASTEIGER

@<TRIPOS>ATOM
      1  N1        -1.2940    8.2620   29.8300 N.pl3 201  017201     -0.1281
      2  C2        -0.8280    8.5490   31.1020 C.ar  201  017201      0.0892
      3  C3         0.4250    8.0880   31.4730 C.ar  201  017201      0.0194
      4  C4         0.9200    8.3460   32.7100 C.ar  201  017201      0.0213
      5  C5         0.1980    9.0660   33.6280 C.ar  201  017201      0.1223
      6  C6        -1.0480    9.5490   33.3140 C.ar  201  017201      0.0213
      7  C7        -1.5610    9.2870   32.0450 C.ar  201  017201      0.0194
      8  S8         0.7890    9.2590   35.2520 S.O2  201  017201      0.0634
      9  O9         2.2310    9.0680   35.1950 O.2   201  017201     -0.1528
     10  O10        0.2870   10.4610   35.7810 O.2   201  017201     -0.1528
     11  N11        0.1740    8.0660   36.2430 N.3   201  017201     -0.1529
     12  C12       -1.2910    8.0190   36.3910 C.3   201  017201      0.0958
     13  C13       -1.7500    7.6730   37.7900 C.3   201  017201      0.0178
     14  C14       -1.2450    8.6560   38.8220 C.3   201  017201      0.0015
     15  C15       -3.2530    7.5460   37.8520 C.3   201  017201      0.0015
     16  C16        0.8050    6.7340   36.2310 C.3   201  017201      0.1304
     17  C17        1.4980    6.4280   37.5590 C.3   201  017201      0.1898
     18  O18        1.8620    5.0460   37.5910 O.3   201  017201     -0.2197
     19  C19        2.7360    7.2970   37.8680 C.3   201  017201      0.1347
     20  N20        3.1030    7.0790   39.2530 N.am  201  017201     -0.1675
     21  C21        2.9370    8.0290   40.2010 C.2   201  017201      0.4211
     22  O22        2.5280    9.2000   40.0720 O.2   201  017201     -0.2246
     23  O23        3.3030    7.5090   41.3910 O.3   201  017201     -0.4345
     24  C24        3.4220    8.4640   42.5090 C.3   201  017201      0.2048
     25  C25        2.9760    7.6430   43.7780 C.3   201  017201      0.1884
     26  O26        4.0980    6.7860   44.0650 O.3   201  017201     -0.3265
     27  C27        5.2850    7.5520   43.7520 C.3   201  017201      0.2388
     28  O28        6.1250    6.7300   43.0080 O.3   201  017201     -0.3304
     29  C29        6.2670    7.2060   41.6490 C.3   201  017201      0.1451
     30  C30        5.8740    8.6700   41.7000 C.3   201  017201      0.0409
     31  C31        4.8810    8.7320   42.8400 C.3   201  017201      0.1016
     32  C32        3.9560    7.0470   36.9580 C.3   201  017201      0.0508
     33  C33        6.2390    7.3670   37.9690 C.ar  201  017201     -0.0042
     34  C34        7.3210    8.1750   38.3500 C.ar  201  017201     -0.0003
     35  C35        7.2620    9.5160   38.1280 C.ar  201  017201     -0.0000
     36  C36        6.1490   10.0800   37.5210 C.ar  201  017201     -0.0003
     37  C37        5.0910    9.3160   37.1470 C.ar  201  017201     -0.0042
     38  C38        5.1240    7.9490   37.3620 C.ar  201  017201     -0.0204
@<TRIPOS>BOND
     1     1     2    1
     2     2     3   ar
     3     2     7   ar
     4     3     4   ar
     5     7     6   ar
     6     4     5   ar
     7     6     5   ar
     8     5     8    1
     9     9     8    2
    10     8    10    2
    11     8    11    1
    12    16    11    1
    13    16    17    1
    14    11    12    1
    15    12    13    1
    16    32    38    1
    17    32    19    1
    18    37    38   ar
    19    37    36   ar
    20    38    33   ar
    21    36    35   ar
    22    17    18    1
    23    17    19    1
    24    13    15    1
    25    13    14    1
    26    19    20    1
    27    33    34   ar
    28    35    34   ar
    29    20    21   am
    30    22    21    2
    31    21    23    1
    32    23    24    1
    33    29    30    1
    34    29    28    1
    35    30    31    1
    36    24    31    1
    37    24    25    1
    38    31    27    1
    39    28    27    1
    40    27    26    1
    41    25    26    1
