@<TRIPOS>MOLECULE
2hs2_017_A_1.pdb
 38 41 0 0 0
SMALL
GASTEIGER

@<TRIPOS>ATOM
      1  N1        -1.1340    8.3150   29.9190 N.pl3 201  017201     -0.1281
      2  C2        -0.6920    8.5640   31.1990 C.ar  201  017201      0.0892
      3  C3         0.5620    8.1180   31.6170 C.ar  201  017201      0.0194
      4  C4         1.0190    8.3660   32.9120 C.ar  201  017201      0.0213
      5  C5         0.2090    9.0700   33.8020 C.ar  201  017201      0.1223
      6  C6        -1.0480    9.5190   33.3890 C.ar  201  017201      0.0213
      7  C7        -1.5170    9.2760   32.0910 C.ar  201  017201      0.0194
      8  S8         0.8330    9.2460   35.4870 S.O2  201  017201      0.0634
      9  O9         2.2730    9.0540   35.3980 O.2   201  017201     -0.1528
     10  O10        0.3180   10.5000   36.0330 O.2   201  017201     -0.1528
     11  N11        0.1790    7.9900   36.4100 N.3   201  017201     -0.1529
     12  C12       -1.2770    7.9740   36.6370 C.3   201  017201      0.0958
     13  C13       -1.6860    7.6240   38.0700 C.3   201  017201      0.0178
     14  C14       -1.3470    8.7190   39.0730 C.3   201  017201      0.0015
     15  C15       -3.1710    7.2880   38.0850 C.3   201  017201      0.0015
     16  C16        0.8050    6.6540   36.3730 C.3   201  017201      0.1304
     17  C17        1.5520    6.3500   37.6780 C.3   201  017201      0.1898
     18  O18        1.9230    4.9680   37.6790 O.3   201  017201     -0.2197
     19  C19        2.7400    7.2720   37.9880 C.3   201  017201      0.1347
     20  N20        3.0860    7.0990   39.3960 N.am  201  017201     -0.1675
     21  C21        2.9650    7.9710   40.4010 C.2   201  017201      0.4211
     22  O22        2.5800    9.1220   40.2330 O.2   201  017201     -0.2246
     23  O23        3.3200    7.4150   41.6010 O.3   201  017201     -0.4345
     24  C24        3.3320    8.3160   42.7500 C.3   201  017201      0.2048
     25  C25        2.9340    7.4970   43.9950 C.3   201  017201      0.1884
     26  O26        4.0870    6.6850   44.2790 O.3   201  017201     -0.3265
     27  C27        5.2350    7.4880   43.9720 C.3   201  017201      0.2388
     28  O28        6.1130    6.7090   43.2210 O.3   201  017201     -0.3304
     29  C29        6.2500    7.2350   41.9090 C.3   201  017201      0.1451
     30  C30        5.8000    8.6640   41.9280 C.3   201  017201      0.0409
     31  C31        4.7770    8.6940   43.1060 C.3   201  017201      0.1016
     32  C32        3.9670    6.9630   37.0980 C.3   201  017201      0.0508
     33  C33        6.2560    7.2800   38.1610 C.ar  201  017201     -0.0042
     34  C34        7.3030    8.1060   38.5460 C.ar  201  017201     -0.0003
     35  C35        7.2450    9.4680   38.3150 C.ar  201  017201     -0.0000
     36  C36        6.1250   10.0360   37.6900 C.ar  201  017201     -0.0003
     37  C37        5.0670    9.2190   37.2970 C.ar  201  017201     -0.0042
     38  C38        5.1290    7.8460   37.5300 C.ar  201  017201     -0.0204
@<TRIPOS>BOND
     1     1     2    1
     2     2     3   ar
     3     2     7   ar
     4     3     4   ar
     5     7     6   ar
     6     4     5   ar
     7     6     5   ar
     8     5     8    1
     9     9     8    2
    10     8    10    2
    11     8    11    1
    12    16    11    1
    13    16    17    1
    14    11    12    1
    15    12    13    1
    16    32    38    1
    17    32    19    1
    18    37    38   ar
    19    37    36   ar
    20    38    33   ar
    21    17    18    1
    22    17    19    1
    23    36    35   ar
    24    19    20    1
    25    13    15    1
    26    13    14    1
    27    33    34   ar
    28    35    34   ar
    29    20    21   am
    30    22    21    2
    31    21    23    1
    32    23    24    1
    33    29    30    1
    34    29    28    1
    35    30    31    1
    36    24    31    1
    37    24    25    1
    38    31    27    1
    39    28    27    1
    40    27    26    1
    41    25    26    1
