@<TRIPOS>MOLECULE
2hs3_FGR_A_1.pdb
 20 20 0 0 0
SMALL
GASTEIGER

@<TRIPOS>ATOM
      1  C1        43.3620    9.4910   92.7070 C.3   2166  FGR2166     0.2159
      2  O6        43.7230    8.1370   92.3010 O.3   2166  FGR2166    -0.2175
      3  C2        42.7400   10.4210   91.6600 C.3   2166  FGR2166     0.2325
      4  O8        41.9190    9.7170   90.7050 O.3   2166  FGR2166    -0.2157
      5  C3        41.9760   11.3720   92.5190 C.3   2166  FGR2166     0.2447
      6  O4        41.7870   10.7570   93.7830 O.3   2166  FGR2166    -0.3316
      7  C5        42.3290    9.4270   93.7910 C.3   2166  FGR2166     0.1801
      8  C10       42.7450    9.1170   95.1950 C.3   2166  FGR2166     0.1859
      9  O12       41.6180    9.0210   96.0600 O.3   2166  FGR2166    -0.2675
     10  N19       42.6690   12.6380   92.6830 N.am  2166  FGR2166    -0.1736
     11  C21       42.0640   13.8480   92.7710 C.2   2166  FGR2166     0.2656
     12  O22       40.8540   13.9500   92.7180 O.2   2166  FGR2166    -0.2713
     13  C23       42.8960   15.0930   92.9340 C.3   2166  FGR2166     0.2019
     14  N24       44.3460   14.7800   92.9720 N.am  2166  FGR2166    -0.1878
     15  P15       41.7840    8.3830   97.5270 P.3   2166  FGR2166     0.5327
     16  O16       42.7380    9.3520   98.2550 O.3   2166  FGR2166    -0.1145
     17  O17       42.3310    6.9710   97.4530 O.2   2166  FGR2166    -0.2224
     18  O18       40.3670    8.4180   98.1150 O.3   2166  FGR2166    -0.1145
     19  C19       44.7010   15.2770   91.7700 C.2   2166  FGR2166     0.3206
     20  O20       45.8630   15.1790   91.4660 O.2   2166  FGR2166    -0.2633
@<TRIPOS>BOND
     1     4     3    1
     2    20    19    2
     3     3     5    1
     4     3     1    1
     5    19    14   am
     6     2     1    1
     7     5    10    1
     8     5     6    1
     9    10    11   am
    10     1     7    1
    11    12    11    2
    12    11    13    1
    13    13    14    1
    14     6     7    1
    15     7     8    1
    16     8     9    1
    17     9    15    1
    18    17    15    2
    19    15    18    1
    20    15    16    1
