@<TRIPOS>MOLECULE
2hs4_FGR_A_1.pdb
 20 20 0 0 0
SMALL
GASTEIGER

@<TRIPOS>ATOM
      1  C1        20.7510  -38.1040  127.8330 C.3   2166  FGR2166     0.2159
      2  O6        19.3820  -38.3790  127.4240 O.3   2166  FGR2166    -0.2175
      3  C2        21.7340  -37.5980  126.7730 C.3   2166  FGR2166     0.2325
      4  O8        21.0970  -36.8860  125.6960 O.3   2166  FGR2166    -0.2157
      5  C3        22.6770  -36.7570  127.5640 C.3   2166  FGR2166     0.2447
      6  O4        22.0910  -36.4910  128.8240 O.3   2166  FGR2166    -0.3316
      7  C5        20.7620  -37.0470  128.9240 C.3   2166  FGR2166     0.1801
      8  C10       20.5420  -37.4530  130.3760 C.3   2166  FGR2166     0.1859
      9  O12       20.5200  -36.3210  131.2710 O.3   2166  FGR2166    -0.2675
     10  N19       23.9660  -37.4260  127.7090 N.am  2166  FGR2166    -0.1736
     11  C21       25.1420  -36.8510  128.0550 C.2   2166  FGR2166     0.2656
     12  O22       25.2220  -35.6660  128.2980 O.2   2166  FGR2166    -0.2713
     13  C23       26.3850  -37.6980  128.1370 C.3   2166  FGR2166     0.2019
     14  N24       26.1020  -39.1180  127.7890 N.am  2166  FGR2166    -0.1878
     15  P15       19.8810  -36.4280  132.7590 P.3   2166  FGR2166     0.5327
     16  O16       20.7690  -37.4150  133.5260 O.3   2166  FGR2166    -0.1145
     17  O17       18.4550  -36.8720  132.6920 O.2   2166  FGR2166    -0.2224
     18  O18       20.0210  -35.0090  133.3320 O.3   2166  FGR2166    -0.1145
     19  C19       26.7100  -39.1490  126.5730 C.2   2166  FGR2166     0.3206
     20  O20       26.6810  -40.1850  125.9550 O.2   2166  FGR2166    -0.2633
@<TRIPOS>BOND
     1     4     3    1
     2    20    19    2
     3    19    14   am
     4     3     5    1
     5     3     1    1
     6     2     1    1
     7     5    10    1
     8     5     6    1
     9    10    11   am
    10    14    13    1
    11     1     7    1
    12    11    13    1
    13    11    12    2
    14     6     7    1
    15     7     8    1
    16     8     9    1
    17     9    15    1
    18    17    15    2
    19    15    18    1
    20    15    16    1
