@<TRIPOS>MOLECULE
2hs4_ACP_A_1.pdb
 31 33 0 0 0
SMALL
GASTEIGER

@<TRIPOS>ATOM
      1  PG        27.8270  -32.8610  127.4150 P.3   900  ACP900      0.1295
      2  O1G       26.6730  -31.8850  127.5420 O.3   900  ACP900     -0.3567
      3  O2G       27.5750  -34.0580  128.2620 O.3   900  ACP900     -0.3567
      4  O3G       28.1430  -33.1990  125.9590 O.2   900  ACP900     -0.4595
      5  PB        29.4990  -31.5420  129.2850 P.3   900  ACP900      0.3815
      6  O1B       30.8850  -30.9880  129.3320 O.2   900  ACP900     -0.2547
      7  O2B       29.2630  -32.4750  130.3880 O.3   900  ACP900     -0.1391
      8  C3B       29.3630  -32.1330  127.7700 C.3   900  ACP900      0.1768
      9  PA        27.5370  -29.6660  130.7820 P.3   900  ACP900      0.2209
     10  O1A       26.6280  -30.7900  131.2400 O.3   900  ACP900     -0.4371
     11  O2A       26.8130  -28.4860  130.2130 O.2   900  ACP900     -0.5170
     12  O3A       28.5660  -30.2320  129.6830 O.3   900  ACP900     -0.2483
     13  O5'       28.4920  -29.4800  132.0700 O.3   900  ACP900     -0.3111
     14  C5'       29.4710  -28.4260  131.9270 C.3   900  ACP900      0.1813
     15  C4'       30.5580  -27.9350  132.9450 C.3   900  ACP900      0.1821
     16  O4'       29.9960  -27.1320  133.9440 O.3   900  ACP900     -0.3135
     17  C3'       31.0010  -29.2010  133.5830 C.3   900  ACP900      0.2184
     18  O3'       32.0070  -29.8060  132.8140 O.3   900  ACP900     -0.2174
     19  C2'       31.3760  -28.7680  135.0150 C.3   900  ACP900      0.2570
     20  O2'       32.7630  -28.5180  135.1200 O.3   900  ACP900     -0.2130
     21  C1'       30.4850  -27.6000  135.2080 C.3   900  ACP900      0.3186
     22  N9        29.2910  -27.8590  136.1150 N.pl3 900  ACP900     -0.1439
     23  C8        28.0180  -28.2220  135.8530 C.3   900  ACP900      0.3377
     24  N7        27.2180  -28.3780  136.9100 N.2   900  ACP900     -0.2095
     25  C5        28.0420  -28.0930  137.9250 C.2   900  ACP900      0.2526
     26  C6        27.9150  -28.0500  139.3860 C.2   900  ACP900      0.4393
     27  N6        26.7380  -28.3480  140.0090 N.pl3 900  ACP900      0.2180
     28  N1        29.0050  -27.7030  140.1960 N.2   900  ACP900      0.0021
     29  C2        30.2190  -27.3970  139.6200 C.3   900  ACP900      0.5254
     30  N3        30.4350  -27.4140  138.2620 N.2   900  ACP900     -0.0055
     31  C4        29.3440  -27.7600  137.4730 C.2   900  ACP900      0.3518
@<TRIPOS>BOND
     1     4     1    2
     2     1     2    1
     3     1     8    1
     4     1     3    1
     5     8     5    1
     6     5     6    2
     7     5    12    1
     8     5     7    1
     9    12     9    1
    10    11     9    2
    11     9    10    1
    12     9    13    1
    13    14    13    1
    14    14    15    1
    15    18    17    1
    16    15    17    1
    17    15    16    1
    18    17    19    1
    19    16    21    1
    20    19    20    1
    21    19    21    1
    22    21    22    1
    23    23    22    1
    24    23    24    1
    25    22    31    1
    26    24    25    2
    27    31    25    1
    28    31    30    2
    29    25    26    1
    30    30    29    1
    31    26    27    1
    32    26    28    2
    33    29    28    1
