@<TRIPOS>MOLECULE
2hs6_FMN_A_1.pdb
 31 33 0 0 0
SMALL
GASTEIGER

@<TRIPOS>ATOM
      1  N1         2.2440    2.9660    1.2230 N.2   401  FMN401     -0.2890
      2  C2         2.3650    1.6010    1.2610 C.1   401  FMN401      0.3669
      3  O2         2.2680    0.9450    2.2650 O.2   401  FMN401     -0.1744
      4  N3         2.6290    0.9000    0.0340 N.2   401  FMN401     -0.2300
      5  C4         2.7680    1.4740   -1.1840 C.1   401  FMN401      0.2513
      6  O4         3.0010    0.7870   -2.1830 O.2   401  FMN401     -0.2057
      7  C4A        2.6300    2.9340   -1.2310 C.2   401  FMN401      0.2700
      8  N5         2.7520    3.5930   -2.3810 N.2   401  FMN401     -0.3878
      9  C5A        2.6410    4.9610   -2.3840 C.2   401  FMN401      0.1320
     10  C6         2.7880    5.7090   -3.6370 C.2   401  FMN401      0.0250
     11  C7         2.7080    7.0750   -3.7080 C.2   401  FMN401     -0.0238
     12  C7M        2.8710    7.8550   -5.0190 C.3   401  FMN401      0.0308
     13  C8         2.4580    7.8470   -2.4760 C.2   401  FMN401     -0.0280
     14  C8M        2.3660    9.3510   -2.4880 C.3   401  FMN401      0.0304
     15  C9         2.3150    7.1510   -1.2890 C.2   401  FMN401     -0.0041
     16  C9A        2.3950    5.7460   -1.1880 C.3   401  FMN401      0.1497
     17  N10        2.2660    5.0030    0.0230 N.pl3 401  FMN401     -0.2691
     18  C10        2.3670    3.6210    0.0630 C.2   401  FMN401      0.2416
     19  C1'        2.0420    5.7100    1.2990 C.3   401  FMN401      0.1294
     20  C2'        3.4320    6.0920    1.8350 C.3   401  FMN401      0.2044
     21  O2'        4.2170    4.9720    2.2380 O.3   401  FMN401     -0.2185
     22  C3'        3.4930    7.0100    3.0610 C.3   401  FMN401      0.2164
     23  O3'        2.6910    6.3850    4.1110 O.3   401  FMN401     -0.2175
     24  C4'        2.9530    8.3950    2.8350 C.3   401  FMN401      0.2147
     25  O4'        3.5780    8.9680    1.6570 O.3   401  FMN401     -0.2176
     26  C5'        3.3010    9.2560    4.0150 C.3   401  FMN401      0.1892
     27  O5'        3.0260   10.6340    3.7700 O.3   401  FMN401     -0.2674
     28  P          3.9900   11.6730    3.1030 P.3   401  FMN401      0.5327
     29  O1P        5.3620   11.4680    3.6850 O.3   401  FMN401     -0.1145
     30  O2P        3.9280   11.5120    1.6030 O.2   401  FMN401     -0.2224
     31  O3P        3.4090   13.0350    3.5920 O.3   401  FMN401     -0.1145
@<TRIPOS>BOND
     1    12    11    1
     2    11    10    2
     3    11    13    1
     4    10     9    1
     5    14    13    1
     6    13    15    2
     7     9     8    2
     8     9    16    1
     9     8     7    2
    10     6     5    2
    11    15    16    1
    12     7     5    1
    13     7    18    1
    14    16    17    1
    15     5     4    2
    16    17    18    1
    17    17    19    1
    18     4     2    2
    19    18     1    2
    20     1     2    2
    21     2     3    2
    22    19    20    1
    23    30    28    2
    24    25    24    1
    25    20    21    1
    26    20    22    1
    27    24    22    1
    28    24    26    1
    29    22    23    1
    30    28    31    1
    31    28    29    1
    32    28    27    1
    33    27    26    1
