@<TRIPOS>MOLECULE
2hs8_FMN_A_1.pdb
 31 33 0 0 0
SMALL
GASTEIGER

@<TRIPOS>ATOM
      1  N1        22.0840   -3.9280    0.6050 N.2   1401  FMN1401    -0.2890
      2  C2        21.8600   -2.5770    0.5220 C.1   1401  FMN1401     0.3669
      3  O2        21.6130   -1.9070    1.4570 O.2   1401  FMN1401    -0.1744
      4  N3        21.9210   -1.9570   -0.7760 N.2   1401  FMN1401    -0.2300
      5  C4        22.1920   -2.6060   -1.9610 C.1   1401  FMN1401     0.2513
      6  O4        22.2140   -1.9870   -3.0360 O.2   1401  FMN1401    -0.2057
      7  C4A       22.4320   -4.0460   -1.8640 C.2   1401  FMN1401     0.2700
      8  N5        22.6910   -4.7970   -2.9770 N.2   1401  FMN1401    -0.3878
      9  C5A       22.8620   -6.1600   -2.8540 C.2   1401  FMN1401     0.1320
     10  C6        23.1030   -6.9990   -4.0480 C.2   1401  FMN1401     0.0250
     11  C7        23.2340   -8.3760   -3.9700 C.2   1401  FMN1401    -0.0238
     12  C7M       23.4480   -9.2440   -5.2100 C.3   1401  FMN1401     0.0308
     13  C8        23.1430   -9.0440   -2.6330 C.2   1401  FMN1401    -0.0280
     14  C8M       23.2550  -10.5310   -2.4150 C.3   1401  FMN1401     0.0304
     15  C9        22.9280   -8.2620   -1.5200 C.2   1401  FMN1401    -0.0041
     16  C9A       22.7740   -6.8610   -1.5550 C.3   1401  FMN1401     0.1497
     17  N10       22.5260   -6.0340   -0.4020 N.pl3 1401  FMN1401    -0.2691
     18  C10       22.3430   -4.6350   -0.4930 C.2   1401  FMN1401     0.2416
     19  C1'       22.4150   -6.6610    0.9460 C.3   1401  FMN1401     0.1294
     20  C2'       20.9720   -7.1130    0.9950 C.3   1401  FMN1401     0.2044
     21  O2'       20.0510   -6.0340    0.9880 O.3   1401  FMN1401    -0.2185
     22  C3'       20.4850   -7.9390    2.1870 C.3   1401  FMN1401     0.2164
     23  O3'       20.7610   -7.2890    3.4590 O.3   1401  FMN1401    -0.2175
     24  C4'       21.0410   -9.3500    2.2040 C.3   1401  FMN1401     0.2147
     25  O4'       20.8150   -9.9520    0.8590 O.3   1401  FMN1401    -0.2176
     26  C5'       20.2250  -10.1240    3.2340 C.3   1401  FMN1401     0.1892
     27  O5'       20.5470  -11.5240    3.4110 O.3   1401  FMN1401    -0.2674
     28  P         19.8170  -12.6010    2.4960 P.3   1401  FMN1401     0.5327
     29  O1P       20.4630  -12.5630    1.1690 O.2   1401  FMN1401    -0.2224
     30  O2P       18.3310  -12.3020    2.4500 O.3   1401  FMN1401    -0.1145
     31  O3P       20.0610  -13.9670    3.2050 O.3   1401  FMN1401    -0.1145
@<TRIPOS>BOND
     1    12    11    1
     2    10    11    2
     3    10     9    1
     4    11    13    1
     5     6     5    2
     6     8     9    2
     7     8     7    2
     8     9    16    1
     9    13    14    1
    10    13    15    2
    11     5     7    1
    12     5     4    2
    13     7    18    1
    14    16    15    1
    15    16    17    1
    16     4     2    2
    17    18    17    1
    18    18     1    2
    19    17    19    1
    20     2     1    2
    21     2     3    2
    22    25    24    1
    23    19    20    1
    24    21    20    1
    25    20    22    1
    26    29    28    2
    27    22    24    1
    28    22    23    1
    29    24    26    1
    30    30    28    1
    31    28    31    1
    32    28    27    1
    33    26    27    1
