@<TRIPOS>MOLECULE
2hsa_FMN_A_1.pdb
 31 33 0 0 0
SMALL
GASTEIGER

@<TRIPOS>ATOM
      1  N1        11.8580   -1.1870   37.3300 N.2   401  FMN401     -0.2890
      2  C2        12.8900   -1.2550   36.4610 C.1   401  FMN401      0.3669
      3  O2        13.4130   -0.2690   36.0180 O.2   401  FMN401     -0.1744
      4  N3        13.3560   -2.5570   36.0460 N.2   401  FMN401     -0.2300
      5  C4        12.8560   -3.7460   36.4820 C.1   401  FMN401      0.2513
      6  O4        13.2740   -4.8320   36.0800 O.2   401  FMN401     -0.2057
      7  C4A       11.7600   -3.6570   37.4360 C.2   401  FMN401      0.2700
      8  N5        11.1900   -4.7670   37.9010 N.2   401  FMN401     -0.3878
      9  C5A       10.0890   -4.6360   38.7090 C.2   401  FMN401      0.1320
     10  C6         9.3920   -5.8100   39.1580 C.2   401  FMN401      0.0250
     11  C7         8.2440   -5.7520   39.9010 C.2   401  FMN401     -0.0238
     12  C7M        7.4850   -6.9990   40.3410 C.3   401  FMN401      0.0308
     13  C8         7.6990   -4.4570   40.2780 C.2   401  FMN401     -0.0280
     14  C8M        6.4230   -4.3620   41.0900 C.3   401  FMN401      0.0304
     15  C9         8.3590   -3.3180   39.8690 C.2   401  FMN401     -0.0041
     16  C9A        9.5260   -3.3530   39.0950 C.3   401  FMN401      0.1497
     17  N10       10.1990   -2.2060   38.6110 N.pl3 401  FMN401     -0.2691
     18  C10       11.2980   -2.2940   37.7920 C.2   401  FMN401      0.2416
     19  C1'        9.6610   -0.8570   38.8960 C.3   401  FMN401      0.1294
     20  C2'        8.5640   -0.6750   37.7880 C.3   401  FMN401      0.2044
     21  O2'        9.1060   -0.5360   36.4630 O.3   401  FMN401     -0.2185
     22  C3'        7.6370    0.5350   37.9410 C.3   401  FMN401      0.2164
     23  O3'        8.4800    1.7060   38.1490 O.3   401  FMN401     -0.2175
     24  C4'        6.6630    0.4790   39.0990 C.3   401  FMN401      0.2147
     25  O4'        6.0610   -0.8460   39.0650 O.3   401  FMN401     -0.2176
     26  C5'        5.5580    1.4970   38.8640 C.3   401  FMN401      0.1892
     27  O5'        4.6860    1.6450   39.9890 O.3   401  FMN401     -0.2674
     28  P          3.2940    0.8540   39.8690 P.3   401  FMN401      0.5327
     29  O1P        2.7510    1.1000   38.5200 O.2   401  FMN401     -0.2224
     30  O2P        3.5590   -0.5810   40.1390 O.3   401  FMN401     -0.1145
     31  O3P        2.4410    1.4780   40.9780 O.3   401  FMN401     -0.1145
@<TRIPOS>BOND
     1     3     2    2
     2     4     2    2
     3     4     5    2
     4     6     5    2
     5     2     1    2
     6    21    20    1
     7     5     7    1
     8     1    18    2
     9     7    18    1
    10     7     8    2
    11    20    22    1
    12    20    19    1
    13    18    17    1
    14     8     9    2
    15    22    23    1
    16    22    24    1
    17    29    28    2
    18    17    19    1
    19    17    16    1
    20     9    16    1
    21     9    10    1
    22    26    24    1
    23    26    27    1
    24    25    24    1
    25    16    15    1
    26    10    11    2
    27    15    13    2
    28    28    27    1
    29    28    30    1
    30    28    31    1
    31    11    13    1
    32    11    12    1
    33    13    14    1
