@<TRIPOS>MOLECULE
2hsd_NAD_A_1.pdb
 44 48 0 0 0
SMALL
GASTEIGER

@<TRIPOS>ATOM
      1  PA        73.4920  -12.0420   90.6410 P.3   256  NAD256      0.2189
      2  O1A       72.2670  -11.2330   90.4000 O.2   256  NAD256     -0.5170
      3  O2A       73.3380  -13.3730   91.3050 O.3   256  NAD256     -0.4371
      4  O5B       74.5460  -11.1180   91.4770 O.3   256  NAD256     -0.3112
      5  C5B       74.9080   -9.7820   91.0650 C.3   256  NAD256      0.1813
      6  C4B       74.3090   -8.6920   91.9440 C.3   256  NAD256      0.1821
      7  O4B       73.4540   -7.7320   91.2810 O.3   256  NAD256     -0.3135
      8  C3B       73.5560   -9.1720   93.1890 C.3   256  NAD256      0.2184
      9  O3B       74.3830   -9.2490   94.3540 O.3   256  NAD256     -0.2174
     10  C2B       72.4650   -8.1240   93.3430 C.3   256  NAD256      0.2570
     11  O2B       72.2680   -7.7880   94.7110 O.3   256  NAD256     -0.2130
     12  C1B       73.0140   -7.0240   92.4550 C.3   256  NAD256      0.3186
     13  N9A       72.1400   -5.8410   92.3480 N.pl3 256  NAD256     -0.1439
     14  C8A       70.8820   -5.7730   91.8630 C.3   256  NAD256      0.3377
     15  N7A       70.3770   -4.5270   91.9480 N.2   256  NAD256     -0.2095
     16  C5A       71.3710   -3.8510   92.5140 C.2   256  NAD256      0.2526
     17  C6A       71.3400   -2.4870   92.8010 C.2   256  NAD256      0.4393
     18  N6A       70.2500   -1.7810   92.5630 N.pl3 256  NAD256      0.2180
     19  N1A       72.4600   -1.9610   93.3660 N.2   256  NAD256      0.0021
     20  C2A       73.5450   -2.7250   93.6280 C.3   256  NAD256      0.5254
     21  N3A       73.5720   -4.0440   93.3420 N.2   256  NAD256     -0.0055
     22  C4A       72.4850   -4.6350   92.7820 C.2   256  NAD256      0.3518
     23  O3        74.2200  -12.2760   89.2120 O.3   256  NAD256     -0.2703
     24  PN        75.7080  -12.5580   88.7040 P.3   256  NAD256      0.2189
     25  O1N       75.7640  -13.9590   88.2150 O.2   256  NAD256     -0.5170
     26  O2N       76.7150  -12.1360   89.7030 O.3   256  NAD256     -0.4371
     27  O5D       75.8360  -11.5820   87.4420 O.3   256  NAD256     -0.3112
     28  C5D       75.3310  -10.2480   87.5280 C.3   256  NAD256      0.1813
     29  C4D       75.4840   -9.4830   86.2270 C.3   256  NAD256      0.1799
     30  O4D       75.9510  -10.3640   85.1950 O.3   256  NAD256     -0.3327
     31  C3D       74.1250   -8.9520   85.7890 C.3   256  NAD256      0.2158
     32  O3D       74.1930   -7.7730   84.9590 O.3   256  NAD256     -0.2175
     33  C2D       73.6100  -10.1340   85.0000 C.3   256  NAD256      0.2309
     34  O2D       72.5170   -9.6600   84.2250 O.3   256  NAD256     -0.2158
     35  C1D       74.8860  -10.4310   84.2200 C.3   256  NAD256      0.2263
     36  N1N       74.8620  -11.7120   83.4770 N.pl3 256  NAD256     -0.2787
     37  C2N       74.8340  -12.9490   84.1440 C.3   256  NAD256      0.1244
     38  C3N       74.8080  -14.1400   83.4130 C.2   256  NAD256      0.0544
     39  C7N       74.7890  -15.4980   84.1230 C.2   256  NAD256      0.2818
     40  O7N       74.6680  -16.5510   83.4950 O.2   256  NAD256     -0.2670
     41  N7N       74.9320  -15.4580   85.4470 N.am  256  NAD256     -0.0839
     42  C4N       74.7990  -14.0990   82.0180 C.2   256  NAD256      0.0033
     43  C5N       74.8220  -12.8740   81.3560 C.2   256  NAD256      0.0157
     44  C6N       74.8640  -11.6820   82.0780 C.2   256  NAD256      0.0633
@<TRIPOS>BOND
     1    43    42    1
     2    43    44    2
     3    42    38    2
     4    44    36    1
     5    38    39    1
     6    38    37    1
     7    36    37    1
     8    36    35    1
     9    40    39    2
    10    39    41   am
    11    35    33    1
    12    35    30    1
    13    34    33    1
    14    32    31    1
    15    33    31    1
    16    30    29    1
    17    31    29    1
    18    29    28    1
    19    27    28    1
    20    27    24    1
    21    25    24    2
    22    24    23    1
    23    24    26    1
    24    23     1    1
    25     2     1    2
    26     1     3    1
    27     1     4    1
    28     5     4    1
    29     5     6    1
    30     7     6    1
    31     7    12    1
    32    14    15    1
    33    14    13    1
    34     6     8    1
    35    15    16    2
    36    13    12    1
    37    13    22    1
    38    12    10    1
    39    16    22    1
    40    16    17    1
    41    18    17    1
    42    22    21    2
    43    17    19    2
    44     8    10    1
    45     8     9    1
    46    21    20    1
    47    10    11    1
    48    19    20    1
