@<TRIPOS>MOLECULE
2ht1_NUC_J_1.pdb
 37 40 0 0 0
SMALL
GASTEIGER

@<TRIPOS>ATOM
      1  O5'      -55.5080  -85.5060  -44.6700 O.3     1  RU1        -0.2176
      2  C5'      -54.8290  -84.4900  -43.9420 C.3     1  RU1         0.2141
      3  C4'      -55.8140  -83.6210  -43.1820 C.3     1  RU1         0.1800
      4  O4'      -56.6600  -84.4560  -42.3590 O.3     1  RU1        -0.3320
      5  C3'      -55.1880  -82.6430  -42.1970 C.3     1  RU1         0.1858
      6  O3'      -54.8640  -81.4140  -42.8540 O.3     1  RU1        -0.3112
      7  C2'      -56.2760  -82.4530  -41.1340 C.3     1  RU1         0.2291
      8  O2'      -57.0070  -81.2520  -41.2920 O.3     1  RU1        -0.2158
      9  C1'      -57.2060  -83.6510  -41.3340 C.3     1  RU1         0.2400
     10  N1       -57.4290  -84.4860  -40.1010 N.am    1  RU1        -0.1766
     11  C2       -56.4080  -85.2290  -39.5120 C.1     1  RU1         0.2845
     12  O2       -55.2600  -85.2790  -39.9190 O.2     1  RU1        -0.1918
     13  N3       -56.7820  -85.9370  -38.3910 N.2     1  RU1        -0.2452
     14  C4       -58.0400  -85.9850  -37.8110 C.1     1  RU1         0.2182
     15  O4       -58.2230  -86.6680  -36.8080 O.2     1  RU1        -0.2085
     16  C5       -59.0450  -85.1910  -38.4780 C.2     1  RU1         0.1242
     17  C6       -58.7070  -84.4890  -39.5700 C.2     1  RU1         0.0929
     18  P        -53.5040  -80.6270  -42.5330 P.3     2  RC2         0.2141
     19  OP1      -53.6620  -79.2380  -43.0230 O.2     2  RC2        -0.5172
     20  OP2      -52.3740  -81.4500  -43.0220 O.3     2  RC2        -0.4373
     21  O5'      -53.4600  -80.5700  -40.9340 O.3     2  RC2        -0.3114
     22  C5'      -52.2840  -80.1190  -40.2810 C.3     2  RC2         0.1813
     23  C4'      -52.4410  -78.6830  -39.8140 C.3     2  RC2         0.1799
     24  O4'      -53.3120  -78.6570  -38.6540 O.3     2  RC2        -0.3320
     25  C3'      -51.1320  -78.0260  -39.3930 C.3     2  RC2         0.2158
     26  O3'      -50.6400  -77.2110  -40.4530 O.3     2  RC2        -0.2175
     27  C2'      -51.5060  -77.2040  -38.1590 C.3     2  RC2         0.2319
     28  O2'      -51.8850  -75.8780  -38.4770 O.3     2  RC2        -0.2157
     29  C1'      -52.7020  -77.9590  -37.5820 C.3     2  RC2         0.2400
     30  N1       -52.3770  -78.9120  -36.4470 N.am    2  RC2        -0.1778
     31  C2       -52.3620  -78.4530  -35.1160 C.1     2  RC2         0.2756
     32  O2       -52.6120  -77.2660  -34.8700 O.2     2  RC2        -0.1925
     33  N3       -52.0690  -79.3290  -34.1160 N.2     2  RC2        -0.3024
     34  C4       -51.8000  -80.6090  -34.3920 C.2     2  RC2         0.2346
     35  N4       -51.5170  -81.4350  -33.3790 N.pl3   2  RC2        -0.0921
     36  C5       -51.8080  -81.1000  -35.7320 C.2     2  RC2         0.0687
     37  C6       -52.0990  -80.2300  -36.7070 C.2     2  RC2         0.0836
@<TRIPOS>BOND
     1     1     2    1
     2     2     3    1
     3     3     4    1
     4     3     5    1
     5    19    18    2
     6    20    18    1
     7     6    18    1
     8     6     5    1
     9    18    21    1
    10     4     9    1
    11     5     7    1
    12     9     7    1
    13     9    10    1
    14     8     7    1
    15    21    22    1
    16    26    25    1
    17    22    23    1
    18    10    17    1
    19    10    11   am
    20    12    11    2
    21    23    25    1
    22    23    24    1
    23    17    16    2
    24    11    13    2
    25    25    27    1
    26    24    29    1
    27    16    14    1
    28    28    27    1
    29    13    14    2
    30    27    29    1
    31    14    15    2
    32    29    30    1
    33    37    30    1
    34    37    36    2
    35    30    31   am
    36    36    34    1
    37    31    32    2
    38    31    33    2
    39    34    33    2
    40    34    35    1
