@<TRIPOS>MOLECULE
2ht6_GDP_A_1.pdb
 28 30 0 0 0
SMALL
GASTEIGER

@<TRIPOS>ATOM
      1  PB        21.4870    9.8200   53.3830 P.3   545  GDP545      0.5373
      2  O1B       21.7000    8.6140   52.5060 O.2   545  GDP545     -0.2221
      3  O2B       22.7990   10.0430   54.0900 O.3   545  GDP545     -0.1143
      4  O3B       20.3610    9.6390   54.3690 O.3   545  GDP545     -0.1143
      5  O3A       21.1360   11.0200   52.3910 O.3   545  GDP545     -0.2261
      6  PA        19.9660   12.0720   52.6470 P.3   545  GDP545      0.2231
      7  O1A       20.1330   12.6150   54.0480 O.3   545  GDP545     -0.4370
      8  O2A       18.6150   11.4810   52.3850 O.2   545  GDP545     -0.5169
      9  O5'       20.2290   13.1590   51.5140 O.3   545  GDP545     -0.3111
     10  C5'       21.2440   14.1770   51.6510 C.3   545  GDP545      0.1813
     11  C4'       20.8360   15.3370   50.7490 C.3   545  GDP545      0.1799
     12  O4'       20.6120   14.8500   49.4110 O.3   545  GDP545     -0.3326
     13  C3'       19.5420   15.9660   51.2420 C.3   545  GDP545      0.2158
     14  O3'       19.7160   17.3840   51.3190 O.3   545  GDP545     -0.2175
     15  C2'       18.4970   15.6180   50.1880 C.3   545  GDP545      0.2310
     16  O2'       17.6660   16.7700   49.8910 O.3   545  GDP545     -0.2158
     17  C1'       19.3410   15.3170   48.9430 C.3   545  GDP545      0.2293
     18  N9        18.6910   14.3210   48.0620 N.pl3 545  GDP545     -0.2354
     19  C8        18.2820   13.0860   48.4100 C.3   545  GDP545      0.2246
     20  N7        17.7320   12.4400   47.3580 N.2   545  GDP545     -0.2322
     21  C5        17.7880   13.2690   46.3050 C.2   545  GDP545      0.2182
     22  C6        17.3800   13.2190   44.8810 C.1   545  GDP545      0.2372
     23  O6        16.8410   12.1980   44.4200 O.2   545  GDP545     -0.2069
     24  N1        17.6160   14.3010   44.1120 N.2   545  GDP545     -0.2485
     25  C2        18.2040   15.4190   44.6070 C.1   545  GDP545      0.2531
     26  N2        18.4150   16.4760   43.7910 N.pl3 545  GDP545     -0.0226
     27  N3        18.5940   15.5280   45.8980 N.2   545  GDP545     -0.3074
     28  C4        18.4160   14.5110   46.7750 C.2   545  GDP545      0.2300
@<TRIPOS>BOND
     1    26    25    1
     2    24    25    2
     3    24    22    2
     4    23    22    2
     5    25    27    2
     6    22    21    1
     7    27    28    2
     8    21    28    1
     9    21    20    2
    10    28    18    1
    11    20    19    1
    12    18    19    1
    13    18    17    1
    14    17    12    1
    15    17    15    1
    16    12    11    1
    17    16    15    1
    18    15    13    1
    19    11    13    1
    20    11    10    1
    21    13    14    1
    22     9    10    1
    23     9     6    1
    24     8     6    2
    25     5     6    1
    26     5     1    1
    27     2     1    2
    28     6     7    1
    29     1     3    1
    30     1     4    1
