@<TRIPOS>MOLECULE
2ht7_G39_A_1.pdb
 20 20 0 0 0
SMALL
GASTEIGER

@<TRIPOS>ATOM
      1  C1        21.2550   22.2300  -23.0610 C.2   800  G39800      0.3837
      2  O1A       22.4180   22.7180  -23.1730 O.co2 800  G39800     -0.2409
      3  O1B       20.9630   21.1170  -23.6110 O.co2 800  G39800     -0.2409
      4  C2        20.2860   22.9460  -22.2660 C.2   800  G39800      0.0571
      5  C3        18.8060   22.3690  -22.0170 C.3   800  G39800      0.0537
      6  C4        17.9480   23.0260  -20.8690 C.3   800  G39800      0.1190
      7  C5        18.1280   24.5390  -20.9270 C.3   800  G39800      0.1443
      8  N5        17.3410   25.1500  -19.7990 N.am  800  G39800     -0.2028
      9  C10       16.2610   25.8850  -20.0900 C.2   800  G39800      0.2419
     10  O10       15.8440   26.1020  -21.2710 O.2   800  G39800     -0.2733
     11  C11       15.5170   26.4780  -18.9470 C.3   800  G39800      0.0964
     12  C6        19.6510   24.9240  -20.8080 C.3   800  G39800      0.1582
     13  C7        20.6370   24.1790  -21.6680 C.2   800  G39800      0.0069
     14  O7        19.7640   26.4210  -20.9180 O.3   800  G39800     -0.3525
     15  C8        20.1500   27.3380  -19.8050 C.3   800  G39800      0.1156
     16  C9        21.5230   27.0710  -19.1620 C.3   800  G39800      0.0296
     17  C81       20.1060   28.7380  -20.4070 C.3   800  G39800      0.0296
     18  C82       18.7410   29.3430  -20.3770 C.3   800  G39800      0.0026
     19  C91       22.6830   26.9300  -20.1520 C.3   800  G39800      0.0026
     20  N4        16.5630   22.6570  -21.1170 N.3   800  G39800     -0.1306
@<TRIPOS>BOND
     1     3     1   ar
     2     2     1   ar
     3     1     4    1
     4     4     5    1
     5     4    13    2
     6     5     6    1
     7    13    12    1
     8    10     9    2
     9    20     6    1
    10     7     6    1
    11     7    12    1
    12     7     8    1
    13    14    12    1
    14    14    15    1
    15    17    18    1
    16    17    15    1
    17    19    16    1
    18     9     8   am
    19     9    11    1
    20    15    16    1
