@<TRIPOS>MOLECULE
2ht8_G39_A_1.pdb
 20 20 0 0 0
SMALL
GASTEIGER

@<TRIPOS>ATOM
      1  C1        22.1850  -21.7180  -23.8770 C.2   800  G39800      0.3837
      2  O1A       22.6960  -22.8590  -23.8570 O.co2 800  G39800     -0.2409
      3  O1B       21.1200  -21.5100  -24.5120 O.co2 800  G39800     -0.2409
      4  C2        22.8090  -20.6780  -23.1160 C.2   800  G39800      0.0571
      5  C3        22.1430  -19.2270  -22.9830 C.3   800  G39800      0.0537
      6  C4        22.6920  -18.2710  -21.8690 C.3   800  G39800      0.1190
      7  C5        24.2090  -18.3620  -21.8780 C.3   800  G39800      0.1443
      8  N5        24.7740  -17.4580  -20.8070 N.am  800  G39800     -0.2028
      9  C10       25.4790  -16.3760  -21.1950 C.2   800  G39800      0.2419
     10  O10       25.6910  -16.0680  -22.4000 O.2   800  G39800     -0.2733
     11  C11       26.0420  -15.4960  -20.1390 C.3   800  G39800      0.0964
     12  C6        24.6650  -19.8490  -21.6230 C.3   800  G39800      0.1582
     13  C7        24.0200  -20.9250  -22.4370 C.2   800  G39800      0.0069
     14  O7        26.1460  -19.8660  -21.6940 O.3   800  G39800     -0.3525
     15  C8        27.0610  -19.9500  -20.5460 C.3   800  G39800      0.1156
     16  C9        26.9040  -21.1890  -19.6510 C.3   800  G39800      0.0296
     17  C81       28.4360  -19.8970  -21.1730 C.3   800  G39800      0.0296
     18  C82       28.8510  -18.5050  -21.5130 C.3   800  G39800      0.0026
     19  C91       27.1030  -22.5290  -20.3670 C.3   800  G39800      0.0026
     20  N4        22.2300  -16.9440  -22.2010 N.3   800  G39800     -0.1306
@<TRIPOS>BOND
     1     3     1   ar
     2     1     2   ar
     3     1     4    1
     4     4     5    1
     5     4    13    2
     6     5     6    1
     7    13    12    1
     8    10     9    2
     9    20     6    1
    10     7     6    1
    11     7    12    1
    12     7     8    1
    13    14    12    1
    14    14    15    1
    15    18    17    1
    16     9     8   am
    17     9    11    1
    18    17    15    1
    19    15    16    1
    20    19    16    1
