@<TRIPOS>MOLECULE
2ht9_GSH_A_1.pdb
 20 19 0 0 0
SMALL
GASTEIGER

@<TRIPOS>ATOM
      1  N1       -16.0570   37.6080  -15.9010 N.3   200  GSH200     -0.1208
      2  CA1      -16.6460   37.6490  -14.5790 C.3   200  GSH200      0.1948
      3  C1       -17.3550   38.9710  -14.3730 C.2   200  GSH200      0.3819
      4  O11      -17.1960   39.8770  -15.2440 O.co2 200  GSH200     -0.2441
      5  O12      -18.0800   39.1310  -13.3690 O.co2 200  GSH200     -0.2441
      6  CB1      -15.5080   37.4570  -13.5650 C.3   200  GSH200      0.0402
      7  CG1      -16.0340   37.0100  -12.2160 C.3   200  GSH200      0.0889
      8  CD1      -14.9560   36.6050  -11.2380 C.2   200  GSH200      0.2418
      9  OE1      -14.0130   35.8870  -11.5360 O.2   200  GSH200     -0.2733
     10  N2       -15.1450   37.0670  -10.0230 N.am  200  GSH200     -0.1968
     11  CA2      -14.2030   36.7790   -8.9450 C.3   200  GSH200      0.1843
     12  C2       -14.6600   35.7050   -8.0080 C.2   200  GSH200      0.2627
     13  O2       -15.8240   35.6740   -7.6650 O.2   200  GSH200     -0.2714
     14  CB2      -14.1000   38.0740   -8.1700 C.3   200  GSH200      0.0997
     15  SG2      -13.5350   39.4400   -9.2120 S.3   200  GSH200     -0.0797
     16  N3       -13.7220   34.8450   -7.5830 N.am  200  GSH200     -0.1917
     17  CA3      -13.8880   33.7220   -6.6570 C.3   200  GSH200      0.2285
     18  C3       -12.9420   32.5910   -7.0750 C.2   200  GSH200      0.3865
     19  O31      -12.6890   31.6550   -6.2720 O.co2 200  GSH200     -0.2437
     20  O32      -12.4210   32.6270   -8.2160 O.co2 200  GSH200     -0.2437
@<TRIPOS>BOND
     1     1     2    1
     2     4     3   ar
     3     2     3    1
     4     2     6    1
     5     3     5   ar
     6     6     7    1
     7     7     8    1
     8     9     8    2
     9     8    10   am
    10    10    11    1
    11    15    14    1
    12    11    14    1
    13    11    12    1
    14    20    18   ar
    15    12    13    2
    16    12    16   am
    17    16    17    1
    18    18    17    1
    19    18    19   ar
