@<TRIPOS>MOLECULE
2hte_MTA_A_1.pdb
 20 22 0 0 0
SMALL
GASTEIGER

@<TRIPOS>ATOM
      1  CS        16.1900  116.4640   32.1260 C.3   4000  MTA4000     0.0693
      2  S5'       15.9240  115.3480   30.7750 S.3   4000  MTA4000    -0.1367
      3  C5'       16.7690  115.6830   29.2300 C.3   4000  MTA4000     0.0899
      4  C4'       18.2150  116.0590   29.5400 C.3   4000  MTA4000     0.1630
      5  O4'       19.1280  115.7060   28.5130 O.3   4000  MTA4000    -0.3153
      6  C2'       19.6600  117.8940   28.9400 C.3   4000  MTA4000     0.2569
      7  O2'       20.5830  118.8610   29.4950 O.3   4000  MTA4000    -0.2130
      8  C3'       18.4620  117.5340   29.7960 C.3   4000  MTA4000     0.2168
      9  O3'       18.8450  117.5860   31.1600 O.3   4000  MTA4000    -0.2175
     10  C1'       20.2880  116.5180   28.7380 C.3   4000  MTA4000     0.3185
     11  N9        21.1540  116.4790   27.5540 N.pl3 4000  MTA4000    -0.1439
     12  C8        20.8950  117.1120   26.3840 C.3   4000  MTA4000     0.3377
     13  N7        21.8760  116.8700   25.4840 N.2   4000  MTA4000    -0.2095
     14  C5        22.7810  116.0580   26.0930 C.2   4000  MTA4000     0.2526
     15  C6        24.0660  115.4050   25.7120 C.2   4000  MTA4000     0.4393
     16  N6        24.6040  115.5810   24.4830 N.pl3 4000  MTA4000     0.2180
     17  N1        24.6900  114.6520   26.6440 N.2   4000  MTA4000     0.0021
     18  C2        24.1960  114.4630   27.8880 C.3   4000  MTA4000     0.5254
     19  N3        23.0380  115.0130   28.3030 N.2   4000  MTA4000    -0.0055
     20  C4        22.3000  115.8060   27.4630 C.2   4000  MTA4000     0.3518
@<TRIPOS>BOND
     1    16    15    1
     2    13    14    2
     3    13    12    1
     4    15    14    1
     5    15    17    2
     6    14    20    1
     7    12    11    1
     8    17    18    1
     9    20    11    1
    10    20    19    2
    11    11    10    1
    12    18    19    1
    13     5    10    1
    14     5     4    1
    15    10     6    1
    16     6     7    1
    17     6     8    1
    18     3     4    1
    19     3     2    1
    20     4     8    1
    21     8     9    1
    22     2     1    1
