@<TRIPOS>MOLECULE
2htn_HEM_A_1.pdb
 43 50 0 0 0
SMALL
GASTEIGER

@<TRIPOS>ATOM
      1  CHA        8.9170  120.4500   -8.6960 C.2   200  HEM200      0.0000
      2  CHB       13.0620  122.7740   -9.6790 C.2   200  HEM200      0.0000
      3  CHC       10.6920  126.9970  -10.1740 C.2   200  HEM200      0.0000
      4  CHD        6.4940  124.6710   -9.4120 C.2   200  HEM200      0.0000
      5  C1A       10.2470  120.6840   -8.9750 C.ar  200  HEM200      0.0000
      6  C2A       11.3110  119.7030   -9.0980 C.ar  200  HEM200      0.0000
      7  C3A       12.4550  120.3490   -9.3670 C.ar  200  HEM200      0.0000
      8  C4A       12.1580  121.7670   -9.4250 C.ar  200  HEM200      0.0000
      9  CMA       13.8540  119.7240   -9.6020 C.3   200  HEM200      0.0000
     10  CAA       11.1460  118.1720   -8.9490 C.3   200  HEM200      0.0000
     11  CBA       10.8490  117.5700  -10.3170 C.3   200  HEM200      0.0000
     12  CGA       10.7260  116.0700  -10.2600 C.2   200  HEM200      0.0000
     13  O1A       11.6230  115.4100   -9.6720 O.co2 200  HEM200      0.0000
     14  O2A        9.7470  115.5270  -10.8400 O.co2 200  HEM200      0.0000
     15  C1B       12.7820  124.1030   -9.8880 C.2   200  HEM200      0.0000
     16  C2B       13.7580  125.1410  -10.1470 C.2   200  HEM200      0.0000
     17  C3B       13.1060  126.2930  -10.2850 C.2   200  HEM200      0.0000
     18  C4B       11.6900  126.0500  -10.1100 C.2   200  HEM200      0.0000
     19  CMB       15.2890  124.9830  -10.2580 C.3   200  HEM200      0.0000
     20  CAB       13.7810  127.6500  -10.5610 C.2   200  HEM200      0.0000
     21  CBB       14.4990  128.2110   -9.5840 C.2   200  HEM200      0.0000
     22  C1C        9.3440  126.7500  -10.0440 C.ar  200  HEM200      0.0000
     23  C2C        8.2740  127.7080  -10.2070 C.ar  200  HEM200      0.0000
     24  C3C        7.1300  127.0640   -9.9940 C.ar  200  HEM200      0.0000
     25  C4C        7.4100  125.6730   -9.6820 C.ar  200  HEM200      0.0000
     26  CMC        8.4310  129.2040  -10.5590 C.3   200  HEM200      0.0000
     27  CAC        5.7400  127.7100  -10.0560 C.2   200  HEM200      0.0000
     28  CBC        5.1390  127.9810   -8.9030 C.2   200  HEM200      0.0000
     29  C1D        6.7350  123.3400   -9.1130 C.2   200  HEM200      0.0000
     30  C2D        5.7240  122.3680   -8.7350 C.2   200  HEM200      0.0000
     31  C3D        6.4900  121.0550   -8.5020 C.2   200  HEM200      0.0000
     32  C4D        7.8820  121.3580   -8.7700 C.2   200  HEM200      0.0000
     33  CMD        4.1990  122.5820   -8.5890 C.3   200  HEM200      0.0000
     34  CAD        5.8680  119.6970   -8.1050 C.3   200  HEM200      0.0000
     35  CBD        5.9740  119.3770   -6.6180 C.3   200  HEM200      0.0000
     36  CGD        5.1490  118.1400   -6.3420 C.2   200  HEM200      0.0000
     37  O1D        5.4960  117.0350   -6.8370 O.co2 200  HEM200      0.0000
     38  O2D        4.1180  118.2530   -5.6330 O.co2 200  HEM200      0.0000
     39  NA        10.8120  121.9230   -9.1820 N.ar  200  HEM200      0.0000
     40  NB        11.5330  124.6980   -9.8740 N.2   200  HEM200      0.0000
     41  NC         8.7750  125.5270   -9.7400 N.ar  200  HEM200      0.0000
     42  ND         7.9680  122.6990   -9.1160 N.2   200  HEM200      0.0000
     43 FE          9.7400  123.7100   -9.4800 Fe    200  HEM200      0.0000
@<TRIPOS>BOND
     1    14    12   ar
     2    20    17    1
     3    20    21    2
     4    26    23    1
     5    11    12    1
     6    11    10    1
     7    17    16    2
     8    17    18    1
     9    12    13   ar
    10    19    16    1
    11    23    22   ar
    12    23    24   ar
    13     3    18    2
    14     3    22    1
    15    16    15    1
    16    18    40    1
    17    27    24    1
    18    27    28    2
    19    22    41   ar
    20    24    25   ar
    21    15    40    2
    22    15     2    1
    23    40    43    1
    24    41    25   ar
    25    41    43    1
    26    25     4    1
    27     2     8    2
    28     9     7    1
    29    43    39    1
    30    43    42    1
    31     8     7   ar
    32     8    39   ar
    33     4    29    2
    34     7     6   ar
    35    39     5   ar
    36    42    29    1
    37    42    32    2
    38    29    30    1
    39     6     5   ar
    40     6    10    1
    41     5     1    2
    42    32     1    1
    43    32    31    1
    44    30    33    1
    45    30    31    2
    46    31    34    1
    47    34    35    1
    48    37    36   ar
    49    35    36    1
    50    36    38   ar
