@<TRIPOS>MOLECULE
2htq_ZMR_A_1.pdb
 23 23 0 0 0
SMALL
GASTEIGER

@<TRIPOS>ATOM
      1  C1        22.0770  -21.2430  -24.6360 C.2   472  ZMR472      0.4208
      2  O1A       22.7770  -22.3470  -24.9340 O.co2 472  ZMR472     -0.2371
      3  O1B       20.9200  -21.0880  -24.9270 O.co2 472  ZMR472     -0.2371
      4  C2        22.7990  -20.1710  -23.8960 C.2   472  ZMR472      0.2172
      5  C3        22.1760  -19.0040  -23.5300 C.2   472  ZMR472      0.0619
      6  C4        22.9570  -17.9710  -22.7480 C.3   472  ZMR472      0.2297
      7  C5        24.4470  -18.1230  -22.8410 C.3   472  ZMR472      0.1816
      8  N5        25.1080  -17.2760  -21.8680 N.am  472  ZMR472     -0.1994
      9  C10       25.8180  -16.1810  -22.1960 C.2   472  ZMR472      0.2420
     10  O10       25.9800  -15.7820  -23.3490 O.2   472  ZMR472     -0.2733
     11  C11       26.4150  -15.4430  -21.0180 C.3   472  ZMR472      0.0964
     12  C6        24.7810  -19.6470  -22.5780 C.3   472  ZMR472      0.2224
     13  O6        24.0920  -20.4100  -23.6080 O.2   472  ZMR472     -0.4683
     14  C7        26.2790  -20.1100  -22.5590 C.3   472  ZMR472      0.2262
     15  O7        26.3870  -19.7010  -23.5820 O.3   472  ZMR472     -0.2164
     16  C8        26.4820  -21.5160  -22.2950 C.3   472  ZMR472      0.2185
     17  O8        25.9260  -21.6750  -20.9820 O.3   472  ZMR472     -0.2174
     18  C9        27.9600  -21.9490  -22.2900 C.3   472  ZMR472      0.2175
     19  O9        28.6640  -21.3140  -21.2240 O.3   472  ZMR472     -0.2175
     20  NE        22.5980  -16.5870  -23.0310 N.pl3 472  ZMR472     -0.0835
     21  CZ        22.4310  -15.6720  -22.0370 C.cat 472  ZMR472      0.5348
     22  NH1       22.5830  -16.0100  -20.7450 N.pl3 472  ZMR472      0.1354
     23  NH2       22.1490  -14.4060  -22.3600 N.pl3 472  ZMR472      0.1354
@<TRIPOS>BOND
     1     2     1   ar
     2     3     1   ar
     3     1     4    1
     4     4    13    1
     5     4     5    2
     6    13    12    1
     7    15    14    1
     8     5     6    1
     9    10     9    2
    10    20     6    1
    11    20    21    2
    12     7     6    1
    13     7    12    1
    14     7     8    1
    15    12    14    1
    16    14    16    1
    17    23    21    1
    18    16    18    1
    19    16    17    1
    20    18    19    1
    21     9     8   am
    22     9    11    1
    23    21    22    1
