@<TRIPOS>MOLECULE
2htr_DAN_A_1.pdb
 20 20 0 0 0
SMALL
GASTEIGER

@<TRIPOS>ATOM
      1  C1        22.0890   21.2670   18.3330 C.2   1850  DAN1850     0.3914
      2  C2        22.8060   20.2370   17.6480 C.3   1850  DAN1850     0.2203
      3  C3        22.1440   18.9020   17.3900 C.3   1850  DAN1850     0.0760
      4  C4        22.8720   18.1160   16.2610 C.3   1850  DAN1850     0.1773
      5  C5        24.3810   18.3290   16.3030 C.3   1850  DAN1850     0.1552
      6  C6        24.6480   19.8380   16.1750 C.3   1850  DAN1850     0.1710
      7  C7        26.1330   20.2030   16.2220 C.3   1850  DAN1850     0.2134
      8  C8        26.3640   21.7070   16.0770 C.3   1850  DAN1850     0.2173
      9  C9        27.8600   22.0840   16.1330 C.3   1850  DAN1850     0.2175
     10  C10       25.6600   16.4290   15.3770 C.2   1850  DAN1850     0.2420
     11  C11       26.2030   15.7100   14.1680 C.3   1850  DAN1850     0.0964
     12  N5        24.9540   17.5470   15.2120 N.am  1850  DAN1850    -0.2020
     13  O1A       20.8370   21.0720   18.8550 O.co2 1850  DAN1850    -0.2430
     14  O1B       22.6330   22.4370   18.4660 O.co2 1850  DAN1850    -0.2430
     15  O4        22.5460   16.7280   16.4020 O.3   1850  DAN1850    -0.2211
     16  O6        24.0140   20.5350   17.2790 O.3   1850  DAN1850    -0.3429
     17  O7        26.6940   19.8320   17.4830 O.3   1850  DAN1850    -0.2176
     18  O8        25.8300   22.1480   14.8290 O.3   1850  DAN1850    -0.2175
     19  O9        28.6570   21.4090   15.1900 O.3   1850  DAN1850    -0.2175
     20  O10       25.9220   15.8880   16.6110 O.2   1850  DAN1850    -0.2733
@<TRIPOS>BOND
     1    11    10    1
     2    18     8    1
     3    19     9    1
     4    12    10   am
     5    12     5    1
     6    10    20    2
     7     8     9    1
     8     8     7    1
     9     6     7    1
    10     6     5    1
    11     6    16    1
    12     7    17    1
    13     4     5    1
    14     4    15    1
    15     4     3    1
    16    16     2    1
    17     3     2    1
    18     2     1    1
    19     1    14   ar
    20     1    13   ar
