@<TRIPOS>MOLECULE
2htu_BCZ_A_1.pdb
 23 23 0 0 0
SMALL
GASTEIGER

@<TRIPOS>ATOM
      1  C2        22.0320   26.6170    9.2920 C.3   801  BCZ801      0.1858
      2  N25       22.3250   27.3620    8.0560 N.pl3 801  BCZ801     -0.0901
      3  C26       22.6250   28.6200    8.0860 C.cat 801  BCZ801      0.5345
      4  N30       22.7090   29.4190    9.1980 N.pl3 801  BCZ801      0.1354
      5  N27       22.8890   29.2430    6.8980 N.pl3 801  BCZ801      0.1354
      6  C3        20.9440   25.5330    9.0380 C.3   801  BCZ801      0.0907
      7  C10       19.4380   25.9750    8.7990 C.3   801  BCZ801      0.1010
      8  C24       18.4700   24.7070    8.5470 C.3   801  BCZ801      0.0202
      9  C37       18.9210   23.8680    7.2950 C.3   801  BCZ801      0.0017
     10  C38       18.7160   22.3370    7.3660 C.3   801  BCZ801      0.0001
     11  C36       16.9850   25.2090    8.3580 C.3   801  BCZ801      0.0017
     12  C39       16.4040   26.0410    9.5370 C.3   801  BCZ801      0.0001
     13  N11       19.3620   26.8830    7.6360 N.am  801  BCZ801     -0.2070
     14  C13       19.1290   28.2140    7.8280 C.2   801  BCZ801      0.2418
     15  C15       19.0580   29.1060    6.6080 C.3   801  BCZ801      0.0964
     16  O14       18.9760   28.7510    8.9110 O.2   801  BCZ801     -0.2733
     17  C4        21.0940   24.5930   10.2800 C.3   801  BCZ801      0.1677
     18  O9        20.1920   25.0550   11.3360 O.3   801  BCZ801     -0.2224
     19  C5        22.5610   24.7310   10.7770 C.3   801  BCZ801      0.1373
     20  C6        23.3110   23.4370   10.8620 C.2   801  BCZ801      0.3669
     21  O8        24.5130   23.3660   11.0890 O.co2 801  BCZ801     -0.2456
     22  O7        22.6150   22.2990   10.6780 O.co2 801  BCZ801     -0.2456
     23  C1        23.2180   25.7580    9.8170 C.3   801  BCZ801      0.0572
@<TRIPOS>BOND
     1    15    14    1
     2     5     3    1
     3     9    10    1
     4     9     8    1
     5    13    14   am
     6    13     7    1
     7    14    16    2
     8     2     3    2
     9     2     1    1
    10     3     4    1
    11    11     8    1
    12    11    12    1
    13     8     7    1
    14     7     6    1
    15     6     1    1
    16     6    17    1
    17     1    23    1
    18    23    19    1
    19    17    19    1
    20    17    18    1
    21    22    20   ar
    22    19    20    1
    23    20    21   ar
