@<TRIPOS>MOLECULE
2htw_DAN_A_1.pdb
 20 20 0 0 0
SMALL
GASTEIGER

@<TRIPOS>ATOM
      1  C1         2.5290  -30.6450  -59.2950 C.2   1850  DAN1850     0.3914
      2  C2         1.4730  -30.6260  -60.2420 C.3   1850  DAN1850     0.2203
      3  C3         0.9080  -29.2880  -60.6200 C.3   1850  DAN1850     0.0760
      4  C4        -0.1060  -29.3900  -61.7760 C.3   1850  DAN1850     0.1773
      5  C5        -0.8530  -30.7020  -61.7790 C.3   1850  DAN1850     0.1552
      6  C6         0.1700  -31.8490  -61.8750 C.3   1850  DAN1850     0.1710
      7  C7        -0.4970  -33.2430  -61.8950 C.3   1850  DAN1850     0.2134
      8  C8         0.4870  -34.4080  -62.0110 C.3   1850  DAN1850     0.2173
      9  C9        -0.2370  -35.7640  -62.0540 C.3   1850  DAN1850     0.2175
     10  C10       -3.0940  -30.6550  -62.7380 C.2   1850  DAN1850     0.2420
     11  C11       -3.9890  -30.5830  -63.9460 C.3   1850  DAN1850     0.0964
     12  N5        -1.7780  -30.6400  -62.9000 N.am  1850  DAN1850    -0.2020
     13  O1A        2.3000  -30.8190  -57.9440 O.co2 1850  DAN1850    -0.2430
     14  O1B        3.7420  -30.4700  -59.7100 O.co2 1850  DAN1850    -0.2430
     15  O4        -1.0060  -28.2920  -61.6710 O.3   1850  DAN1850    -0.2211
     16  O6         1.0580  -31.7860  -60.7130 O.3   1850  DAN1850    -0.3429
     17  O7        -1.2350  -33.4640  -60.6810 O.3   1850  DAN1850    -0.2176
     18  O8         1.2590  -34.2840  -63.1970 O.3   1850  DAN1850    -0.2175
     19  O9        -1.1050  -35.9020  -63.1590 O.3   1850  DAN1850    -0.2175
     20  O10       -3.6850  -30.7330  -61.4950 O.2   1850  DAN1850    -0.2733
@<TRIPOS>BOND
     1    11    10    1
     2    18     8    1
     3    19     9    1
     4    12    10   am
     5    12     5    1
     6    10    20    2
     7     9     8    1
     8     8     7    1
     9     7     6    1
    10     7    17    1
    11     6     5    1
    12     6    16    1
    13     5     4    1
    14     4    15    1
    15     4     3    1
    16    16     2    1
    17     3     2    1
    18     2     1    1
    19    14     1   ar
    20     1    13   ar
