@<TRIPOS>MOLECULE
2htx_220_A_1.pdb
 12 11 0 0 0
SMALL
GASTEIGER

@<TRIPOS>ATOM
      1  C6       -19.7510   18.5630    4.0050 C.3   9130  2209130     0.0355
      2  C7       -19.1530   19.7260    4.7970 C.3   9130  2209130     0.0027
      3  C8       -18.3470   19.1080    5.9260 C.3   9130  2209130     0.0001
      4  C9       -18.3840   19.8730    7.2400 C.3   9130  2209130     0.0000
      5  C10      -19.3060   19.3700    8.3450 C.3   9130  2209130     0.0001
      6  C11      -20.3110   20.3730    8.8560 C.3   9130  2209130     0.0027
      7  C12      -19.7670   21.7530    9.1410 C.3   9130  2209130     0.0355
      8  C13      -20.8500   22.8300    9.0810 C.3   9130  2209130     0.1821
      9  O2       -20.0880   23.9850    8.6670 O.3   9130  2209130    -0.2204
     10  C14      -18.5210   18.9030    9.5890 C.3   9130  2209130     0.0000
     11  C15      -19.8380   18.8030    2.4990 C.3   9130  2209130     0.1821
     12  O4       -19.8930   17.4950    1.8850 O.3   9130  2209130    -0.2204
@<TRIPOS>BOND
     1    12    11    1
     2    11     1    1
     3     1     2    1
     4     2     3    1
     5     3     4    1
     6     4     5    1
     7     5     6    1
     8     5    10    1
     9     9     8    1
    10     6     7    1
    11     8     7    1
