@<TRIPOS>MOLECULE
2hu0_G39_B_1.pdb
 20 20 0 0 0
SMALL
GASTEIGER

@<TRIPOS>ATOM
      1  C1         4.7430   19.9680  110.2590 C.2   800  G39800      0.3644
      2  O1A        5.1010   18.9200  110.8810 O.co2 800  G39800     -0.2457
      3  O1B        5.5030   20.9770  110.1900 O.co2 800  G39800     -0.2457
      4  C2         3.4070   20.0120  109.6020 C.3   800  G39800      0.1074
      5  C3         2.6040   21.3190  109.3990 C.3   800  G39800      0.0322
      6  C4         1.7170   21.2970  108.1210 C.3   800  G39800      0.1146
      7  C5         0.8400   20.0300  108.0960 C.3   800  G39800      0.1398
      8  N5        -0.0860   20.0580  106.9590 N.am  800  G39800     -0.2032
      9  C10       -1.3230   19.5880  107.0420 C.2   800  G39800      0.2419
     10  O10       -1.9780   19.6140  108.0550 O.2   800  G39800     -0.2733
     11  C11       -1.8800   19.0190  105.7990 C.3   800  G39800      0.0964
     12  C6         1.7800   18.7850  108.0790 C.3   800  G39800      0.1369
     13  C7         2.8660   18.8490  109.1650 C.3   800  G39800      0.0427
     14  O7         1.0940   17.5250  108.1780 O.3   800  G39800     -0.3569
     15  C8         1.2960   16.7330  107.0180 C.3   800  G39800      0.1152
     16  C9         2.7150   16.1820  107.0820 C.3   800  G39800      0.0296
     17  C81        0.2350   15.6200  107.0140 C.3   800  G39800      0.0296
     18  C82       -1.1270   15.9840  107.6030 C.3   800  G39800      0.0026
     19  C91        2.8850   15.3090  108.3140 C.3   800  G39800      0.0026
     20  N4         0.9410   22.5200  107.8790 N.3   800  G39800     -0.1310
@<TRIPOS>BOND
     1    11     9    1
     2     8     9   am
     3     8     7    1
     4    17    15    1
     5    17    18    1
     6    15    16    1
     7    15    14    1
     8     9    10    2
     9    16    19    1
    10    20     6    1
    11    12     7    1
    12    12    14    1
    13    12    13    1
    14     7     6    1
    15     6     5    1
    16    13     4    1
    17     5     4    1
    18     4     1    1
    19     3     1   ar
    20     1     2   ar
