@<TRIPOS>MOLECULE
2hu1_220_A_1.pdb
 12 11 0 0 0
SMALL
GASTEIGER

@<TRIPOS>ATOM
      1  C6       -19.5650   18.4380    4.6240 C.3   9130  2209130     0.0355
      2  C7       -19.0750   19.5760    5.5270 C.3   9130  2209130     0.0027
      3  C8       -18.5460   19.0970    6.8850 C.3   9130  2209130     0.0001
      4  C9       -19.5920   18.7220    7.9410 C.3   9130  2209130     0.0000
      5  C10      -19.7260   19.5770    9.1950 C.3   9130  2209130     0.0001
      6  C11      -20.2070   20.9980    9.0060 C.3   9130  2209130     0.0027
      7  C12      -19.3500   22.1400    9.4540 C.3   9130  2209130     0.0355
      8  C13      -20.2320   23.1920   10.1020 C.3   9130  2209130     0.1821
      9  O2       -20.1480   24.2520    9.1300 O.3   9130  2209130    -0.2204
     10  C14      -18.4870   19.4980   10.1080 C.3   9130  2209130     0.0000
     11  C15      -19.8510   18.8270    3.1670 C.3   9130  2209130     0.1821
     12  O4       -20.0530   17.6000    2.4320 O.3   9130  2209130    -0.2204
@<TRIPOS>BOND
     1    12    11    1
     2    11     1    1
     3     1     2    1
     4     2     3    1
     5     3     4    1
     6     4     5    1
     7     6     5    1
     8     6     7    1
     9     9     8    1
    10     5    10    1
    11     7     8    1
