@<TRIPOS>MOLECULE
2hu2_NAD_A_1.pdb
 44 48 0 0 0
SMALL
GASTEIGER

@<TRIPOS>ATOM
      1  PA         4.0070   25.5150   26.6080 P.3   600  NAD600      0.2189
      2  O1A        3.4300   24.1500   26.5960 O.3   600  NAD600     -0.4371
      3  O2A        5.3550   25.5260   25.9890 O.2   600  NAD600     -0.5170
      4  O5B        4.0370   26.0670   28.1220 O.3   600  NAD600     -0.3112
      5  C5B        3.2300   25.4970   29.1330 C.3   600  NAD600      0.1813
      6  C4B        4.1070   25.0670   30.3030 C.3   600  NAD600      0.1821
      7  O4B        3.4350   25.3060   31.5250 O.3   600  NAD600     -0.3135
      8  C3B        4.4420   23.5820   30.2430 C.3   600  NAD600      0.2184
      9  O3B        5.8510   23.4300   30.1890 O.3   600  NAD600     -0.2174
     10  C2B        3.8820   22.9900   31.5270 C.3   600  NAD600      0.2570
     11  O2B        4.8210   22.1450   32.1550 O.3   600  NAD600     -0.2130
     12  C1B        3.6000   24.2060   32.4020 C.3   600  NAD600      0.3186
     13  N9A        2.4080   24.0390   33.2670 N.pl3 600  NAD600     -0.1439
     14  C8A        1.2520   23.3560   32.9760 C.3   600  NAD600      0.3377
     15  N7A        0.4140   23.4500   34.0330 N.2   600  NAD600     -0.2095
     16  C5A        1.0110   24.1830   34.9950 C.2   600  NAD600      0.2526
     17  C6A        0.5990   24.5790   36.2640 C.2   600  NAD600      0.4393
     18  N6A       -0.4600   24.0020   36.8200 N.pl3 600  NAD600      0.2180
     19  N1A        1.4400   25.3460   37.0460 N.2   600  NAD600      0.0021
     20  C2A        2.6830   25.7140   36.5660 C.3   600  NAD600      0.5254
     21  N3A        3.0860   25.3140   35.3050 N.2   600  NAD600     -0.0055
     22  C4A        2.2660   24.5590   34.5300 C.2   600  NAD600      0.3518
     23  O3         3.0350   26.5260   25.8130 O.3   600  NAD600     -0.2703
     24  PN         3.2820   28.1180   25.7730 P.3   600  NAD600      0.2189
     25  O1N        4.6400   28.4500   26.2640 O.3   600  NAD600     -0.4371
     26  O2N        2.8530   28.6240   24.4480 O.2   600  NAD600     -0.5170
     27  O5D        2.2230   28.5870   26.8860 O.3   600  NAD600     -0.3112
     28  C5D        1.5550   29.8190   26.7720 C.3   600  NAD600      0.1813
     29  C4D        0.0730   29.6280   27.0590 C.3   600  NAD600      0.1799
     30  O4D       -0.5600   30.8760   26.9000 O.3   600  NAD600     -0.3327
     31  C3D       -0.5800   28.6550   26.0870 C.3   600  NAD600      0.2158
     32  O3D       -0.9620   27.4750   26.7550 O.3   600  NAD600     -0.2175
     33  C2D       -1.7890   29.3750   25.5250 C.3   600  NAD600      0.2309
     34  O2D       -2.9770   28.8410   26.0650 O.3   600  NAD600     -0.2158
     35  C1D       -1.6300   30.8170   25.9790 C.3   600  NAD600      0.2263
     36  N1N       -1.3740   31.7430   24.8560 N.pl3 600  NAD600     -0.2787
     37  C2N       -2.2110   32.8170   24.7170 C.3   600  NAD600      0.1244
     38  C3N       -2.0340   33.7400   23.6890 C.2   600  NAD600      0.0544
     39  C7N       -2.6350   35.1080   23.8370 C.2   600  NAD600      0.2818
     40  O7N       -3.0860   35.7850   22.6840 O.2   600  NAD600     -0.2670
     41  N7N       -2.7340   35.6600   25.0560 N.am  600  NAD600     -0.0839
     42  C4N       -0.9860   33.5520   22.7930 C.2   600  NAD600      0.0033
     43  C5N       -0.1310   32.4620   22.9350 C.2   600  NAD600      0.0157
     44  C6N       -0.3340   31.5590   23.9780 C.2   600  NAD600      0.0633
@<TRIPOS>BOND
     1    40    39    2
     2    42    43    1
     3    42    38    2
     4    43    44    2
     5    38    39    1
     6    38    37    1
     7    39    41   am
     8    44    36    1
     9    26    24    2
    10    37    36    1
    11    36    35    1
    12    33    35    1
    13    33    34    1
    14    33    31    1
    15    24    23    1
    16    24    25    1
    17    24    27    1
    18    23     1    1
    19    35    30    1
    20     3     1    2
    21    31    32    1
    22    31    29    1
    23     2     1    1
    24     1     4    1
    25    28    27    1
    26    28    29    1
    27    30    29    1
    28     4     5    1
    29     5     6    1
    30     9     8    1
    31     8     6    1
    32     8    10    1
    33     6     7    1
    34     7    12    1
    35    10    11    1
    36    10    12    1
    37    12    13    1
    38    14    13    1
    39    14    15    1
    40    13    22    1
    41    15    16    2
    42    22    16    1
    43    22    21    2
    44    16    17    1
    45    21    20    1
    46    17    18    1
    47    17    19    2
    48    20    19    1
