@<TRIPOS>MOLECULE
2hu5_PHE_A_1.pdb
 12 12 0 0 0
SMALL
GASTEIGER

@<TRIPOS>ATOM
      1  N         -0.6330   23.7920   24.7000 N.3   1002  PHE1002    -0.1205
      2  CA        -0.3010   22.3830   24.5300 C.3   1002  PHE1002     0.1986
      3  C          0.1270   22.0950   23.0840 C.2   1002  PHE1002     0.3822
      4  O         -0.5710   21.3780   22.3790 O.co2 1002  PHE1002    -0.2440
      5  CB        -1.4810   21.4850   24.9530 C.3   1002  PHE1002     0.0569
      6  CG        -1.8410   21.6170   26.4070 C.ar  1002  PHE1002    -0.0202
      7  CD1       -3.0690   22.1470   26.7910 C.ar  1002  PHE1002    -0.0042
      8  CD2       -0.9460   21.2220   27.3890 C.ar  1002  PHE1002    -0.0042
      9  CE1       -3.4000   22.2840   28.1330 C.ar  1002  PHE1002    -0.0003
     10  CE2       -1.2750   21.3470   28.7460 C.ar  1002  PHE1002    -0.0003
     11  CZ        -2.4960   21.8790   29.1180 C.ar  1002  PHE1002    -0.0000
     12  OXT        1.1820   22.5160   22.5750 O.co2 1002  PHE1002    -0.2440
@<TRIPOS>BOND
     1     4     3   ar
     2    12     3   ar
     3     3     2    1
     4     2     1    1
     5     2     5    1
     6     5     6    1
     7     6     7   ar
     8     6     8   ar
     9     7     9   ar
    10     8    10   ar
    11     9    11   ar
    12    10    11   ar
