@<TRIPOS>MOLECULE
2hu6_37A_A_1.pdb
 28 31 0 0 0
SMALL
GASTEIGER

@<TRIPOS>ATOM
      1  O6         0.5330   -5.8410    5.5950 O.2   400  37A400     -0.2706
      2  C9         1.5110   -6.3100    5.0200 C.2   400  37A400      0.2715
      3  C6         1.3270   -7.1570    3.7870 C.3   400  37A400      0.2236
      4  O2         2.5770   -7.5640    3.2180 O.3   400  37A400     -0.3197
      5  C5         0.6860   -6.4020    2.6370 C.3   400  37A400      0.1735
      6  C7         0.0110   -7.4110    1.7120 C.3   400  37A400      0.1253
      7  N1         1.0300   -8.3930    1.2810 N.am  400  37A400     -0.2814
      8  C21        0.8530   -9.7200    1.2870 C.2   400  37A400      0.1672
      9  O1         1.3590  -10.4160    0.4140 O.2   400  37A400     -0.5250
     10  N2         0.1180  -10.2950    2.2360 N.am  400  37A400     -0.1835
     11  O4        -0.1440  -11.6660    2.1790 O.3   400  37A400     -0.4013
     12  C3         2.3170   -7.8590    0.8330 C.3   400  37A400      0.1542
     13  O3         1.7960   -5.8640    1.9350 O.3   400  37A400     -0.3269
     14  C1         2.7420   -6.9180    1.9470 C.3   400  37A400      0.2563
     15  N3         2.7700   -6.1330    5.4250 N.am  400  37A400     -0.1984
     16  C12        3.1510   -5.3630    6.6000 C.3   400  37A400      0.1415
     17  C13        4.3560   -6.0030    7.2710 C.ar  400  37A400     -0.0006
     18  C15        4.3010   -6.4440    8.5970 C.ar  400  37A400     -0.0026
     19  C19        5.4250   -7.0210    9.1910 C.ar  400  37A400     -0.0003
     20  C17        6.6190   -7.1670    8.4750 C.ar  400  37A400     -0.0000
     21  C16        6.6680   -6.7290    7.1510 C.ar  400  37A400     -0.0003
     22  C14        5.5480   -6.1440    6.5620 C.ar  400  37A400     -0.0026
     23  C18        7.8190   -7.8030    9.1070 C.ar  400  37A400     -0.0000
     24  C11        9.1190   -7.4480    8.7320 C.ar  400  37A400     -0.0000
     25  C2        10.2200   -8.0620    9.3320 C.ar  400  37A400      0.0000
     26  C20        7.6380   -8.7880   10.0810 C.ar  400  37A400     -0.0000
     27  C10        8.7380   -9.3990   10.6870 C.ar  400  37A400      0.0000
     28  C4        10.0310   -9.0370   10.3120 C.ar  400  37A400      0.0000
@<TRIPOS>BOND
     1     9     8    2
     2    12     7    1
     3    12    14    1
     4     7     8   am
     5     7     6    1
     6     8    10   am
     7     6     5    1
     8    13    14    1
     9    13     5    1
    10    14     4    1
    11    11    10    1
    12     5     3    1
    13     4     3    1
    14     3     2    1
    15     2    15   am
    16     2     1    2
    17    15    16    1
    18    22    21   ar
    19    22    17   ar
    20    16    17    1
    21    21    20   ar
    22    17    18   ar
    23    20    23    1
    24    20    19   ar
    25    18    19   ar
    26    24    23   ar
    27    24    25   ar
    28    23    26   ar
    29    25    28   ar
    30    26    27   ar
    31    28    27   ar
