@<TRIPOS>MOLECULE
2hu7_PHE_A_1.pdb
 12 12 0 0 0
SMALL
GASTEIGER

@<TRIPOS>ATOM
      1  N         -1.1040   23.9390   25.1800 N.3   1002  PHE1002    -0.1205
      2  CA        -0.7740   22.5760   24.7740 C.3   1002  PHE1002     0.1986
      3  C         -0.5390   22.5280   23.2690 C.2   1002  PHE1002     0.3822
      4  O         -0.1120   23.5310   22.6850 O.co2 1002  PHE1002    -0.2440
      5  CB        -1.8760   21.6050   25.2210 C.3   1002  PHE1002     0.0569
      6  CG        -2.1280   21.6490   26.7020 C.ar  1002  PHE1002    -0.0202
      7  CD1       -3.2760   22.2200   27.2120 C.ar  1002  PHE1002    -0.0042
      8  CD2       -1.1760   21.1590   27.5830 C.ar  1002  PHE1002    -0.0042
      9  CE1       -3.4950   22.2760   28.5810 C.ar  1002  PHE1002    -0.0003
     10  CE2       -1.3880   21.2050   28.9450 C.ar  1002  PHE1002    -0.0003
     11  CZ        -2.5510   21.7820   29.4500 C.ar  1002  PHE1002    -0.0000
     12  OXT       -0.7560   21.5010   22.6140 O.co2 1002  PHE1002    -0.2440
@<TRIPOS>BOND
     1    12     3   ar
     2     4     3   ar
     3     3     2    1
     4     2     1    1
     5     2     5    1
     6     5     6    1
     7     6     7   ar
     8     6     8   ar
     9     7     9   ar
    10     8    10   ar
    11     9    11   ar
    12    10    11   ar
