@<TRIPOS>MOLECULE
2hu8_PHE_A_1.pdb
 12 12 0 0 0
SMALL
GASTEIGER

@<TRIPOS>ATOM
      1  N         -1.3520   23.4830   25.4230 N.3   1003  PHE1003    -0.1205
      2  CA        -0.8660   22.1330   25.1960 C.3   1003  PHE1003     0.1986
      3  C         -0.5930   21.9080   23.7200 C.2   1003  PHE1003     0.3822
      4  O         -1.3620   21.2210   23.0550 O.co2 1003  PHE1003    -0.2440
      5  CB        -1.9060   21.1240   25.6950 C.3   1003  PHE1003     0.0569
      6  CG        -2.3440   21.3610   27.1160 C.ar  1003  PHE1003    -0.0202
      7  CD1       -3.6780   21.5570   27.4230 C.ar  1003  PHE1003    -0.0042
      8  CD2       -1.4150   21.3940   28.1430 C.ar  1003  PHE1003    -0.0042
      9  CE1       -4.0750   21.7770   28.7250 C.ar  1003  PHE1003    -0.0003
     10  CE2       -1.8110   21.6090   29.4510 C.ar  1003  PHE1003    -0.0003
     11  CZ        -3.1390   21.8020   29.7400 C.ar  1003  PHE1003    -0.0000
     12  OXT        0.3960   22.4000   23.1710 O.co2 1003  PHE1003    -0.2440
@<TRIPOS>BOND
     1     4     3   ar
     2    12     3   ar
     3     3     2    1
     4     2     1    1
     5     2     5    1
     6     5     6    1
     7     6     7   ar
     8     6     8   ar
     9     7     9   ar
    10     8    10   ar
    11     9    11   ar
    12    10    11   ar
