@<TRIPOS>MOLECULE
2hun_NAD_A_1.pdb
 44 48 0 0 0
SMALL
GASTEIGER

@<TRIPOS>ATOM
      1  PA        22.3420   77.4650   23.2840 P.3   801  NAD801      0.2189
      2  O1A       23.0510   78.4070   22.4040 O.2   801  NAD801     -0.5170
      3  O2A       21.8600   77.9250   24.6170 O.3   801  NAD801     -0.4371
      4  O5B       23.3270   76.2260   23.5410 O.3   801  NAD801     -0.3112
      5  C5B       23.9370   75.4660   22.4870 C.3   801  NAD801      0.1813
      6  C4B       24.8770   74.5010   23.2220 C.3   801  NAD801      0.1821
      7  O4B       25.5290   73.6250   22.2820 O.3   801  NAD801     -0.3135
      8  C3B       26.0000   75.2720   23.9730 C.3   801  NAD801      0.2184
      9  O3B       26.1600   74.7510   25.3030 O.3   801  NAD801     -0.2174
     10  C2B       27.2190   75.0960   23.0490 C.3   801  NAD801      0.2570
     11  O2B       28.5030   75.1760   23.6680 O.3   801  NAD801     -0.2130
     12  C1B       26.9430   73.7320   22.4150 C.3   801  NAD801      0.3186
     13  N9A       27.5620   73.5470   21.0840 N.pl3 801  NAD801     -0.1439
     14  C8A       27.4520   74.3290   19.9940 C.3   801  NAD801      0.3377
     15  N7A       28.1680   73.8040   19.0010 N.2   801  NAD801     -0.2095
     16  C5A       28.7410   72.6870   19.4390 C.2   801  NAD801      0.2526
     17  C6A       29.6030   71.7100   18.8680 C.2   801  NAD801      0.4393
     18  N6A       30.0420   71.7680   17.6180 N.pl3 801  NAD801      0.2180
     19  N1A       30.0010   70.6360   19.6990 N.2   801  NAD801      0.0021
     20  C2A       29.5550   70.5590   21.0270 C.3   801  NAD801      0.5254
     21  N3A       28.7450   71.4810   21.5640 N.2   801  NAD801     -0.0055
     22  C4A       28.3510   72.5170   20.7790 C.2   801  NAD801      0.3518
     23  O3        21.0200   77.1130   22.4750 O.3   801  NAD801     -0.2703
     24  PN        19.7190   76.2460   22.7240 P.3   801  NAD801      0.2189
     25  O1N       18.6390   77.2660   22.5910 O.2   801  NAD801     -0.5170
     26  O2N       19.7550   75.5450   24.0240 O.3   801  NAD801     -0.4371
     27  O5D       19.5990   75.2980   21.4200 O.3   801  NAD801     -0.3112
     28  C5D       19.5320   73.8700   21.4690 C.3   801  NAD801      0.1813
     29  C4D       18.9870   73.3480   20.1150 C.3   801  NAD801      0.1799
     30  O4D       17.5910   73.6600   19.9730 O.3   801  NAD801     -0.3327
     31  C3D       19.7300   73.9410   18.9110 C.3   801  NAD801      0.2158
     32  O3D       19.9800   72.8750   17.9580 O.3   801  NAD801     -0.2175
     33  C2D       18.7330   74.9970   18.3570 C.3   801  NAD801      0.2309
     34  O2D       18.9140   75.1490   16.9460 O.3   801  NAD801     -0.2158
     35  C1D       17.3950   74.3890   18.7460 C.3   801  NAD801      0.2263
     36  N1N       16.2980   75.3600   18.9380 N.pl3 801  NAD801     -0.2787
     37  C2N       16.2890   76.3090   20.0150 C.3   801  NAD801      0.1244
     38  C3N       15.2000   77.1900   20.1340 C.2   801  NAD801      0.0544
     39  C7N       15.1180   78.2300   21.2750 C.2   801  NAD801      0.2818
     40  O7N       14.0620   78.8550   21.4350 O.2   801  NAD801     -0.2670
     41  N7N       16.1670   78.4190   22.0660 N.am  801  NAD801     -0.0839
     42  C4N       14.1340   77.1380   19.2000 C.2   801  NAD801      0.0033
     43  C5N       14.1620   76.2000   18.1470 C.2   801  NAD801      0.0157
     44  C6N       15.2350   75.3050   18.0050 C.2   801  NAD801      0.0633
@<TRIPOS>BOND
     1    34    33    1
     2    18    17    1
     3    32    31    1
     4    44    43    2
     5    44    36    1
     6    43    42    1
     7    33    35    1
     8    33    31    1
     9    35    36    1
    10    35    30    1
    11    17    16    1
    12    17    19    2
    13    31    29    1
    14    36    37    1
    15    15    16    2
    16    15    14    1
    17    42    38    2
    18    16    22    1
    19    19    20    1
    20    30    29    1
    21    14    13    1
    22    37    38    1
    23    29    28    1
    24    38    39    1
    25    22    13    1
    26    22    21    2
    27    20    21    1
    28    13    12    1
    29    39    40    2
    30    39    41   am
    31    27    28    1
    32    27    24    1
    33     7    12    1
    34     7     6    1
    35     2     1    2
    36    12    10    1
    37    23    24    1
    38    23     1    1
    39     5     6    1
    40     5     4    1
    41    25    24    2
    42    24    26    1
    43    10    11    1
    44    10     8    1
    45     6     8    1
    46     1     4    1
    47     1     3    1
    48     8     9    1
