@<TRIPOS>MOLECULE
2huo_INS_A_1.pdb
 12 12 0 0 0
SMALL
GASTEIGER

@<TRIPOS>ATOM
      1  C1        31.9250   21.2870   31.3340 C.3   303  INS303      0.2175
      2  C2        31.8470   20.9010   32.8130 C.3   303  INS303      0.2175
      3  C3        33.2430   21.1500   33.4870 C.3   303  INS303      0.2175
      4  C4        34.3550   20.4510   32.7120 C.3   303  INS303      0.2175
      5  C5        34.3440   20.9630   31.2430 C.3   303  INS303      0.2175
      6  C6        33.0440   20.5700   30.6250 C.3   303  INS303      0.2175
      7  O1        30.6300   21.3020   30.6160 O.3   303  INS303     -0.2175
      8  O2        31.5650   19.4520   32.9660 O.3   303  INS303     -0.2175
      9  O3        33.3330   20.6860   34.9350 O.3   303  INS303     -0.2175
     10  O4        35.6330   20.7900   33.2080 O.3   303  INS303     -0.2175
     11  O5        35.4720   20.3890   30.6370 O.3   303  INS303     -0.2175
     12  O6        33.1280   20.9310   29.1480 O.3   303  INS303     -0.2175
@<TRIPOS>BOND
     1    12     6    1
     2     7     1    1
     3     6     5    1
     4     6     1    1
     5    11     5    1
     6     5     4    1
     7     1     2    1
     8     4    10    1
     9     4     3    1
    10     2     8    1
    11     2     3    1
    12     3     9    1
