@<TRIPOS>MOLECULE
2huq_SAH_A_1.pdb
 26 28 0 0 0
SMALL
GASTEIGER

@<TRIPOS>ATOM
      1  N         33.4760   92.4570   67.1060 N.3   1001  SAH1001    -0.1208
      2  CA        32.0580   92.1840   66.8300 C.3   1001  SAH1001     0.1952
      3  CB        31.3690   91.6160   68.0790 C.3   1001  SAH1001     0.0422
      4  CG        32.0590   90.3580   68.5900 C.3   1001  SAH1001     0.0597
      5  SD        31.0960   89.5210   69.9150 S.3   1001  SAH1001    -0.1375
      6  C         31.3690   93.4880   66.4290 C.2   1001  SAH1001     0.3819
      7  O         31.9950   94.5420   66.4130 O.co2 1001  SAH1001    -0.2441
      8  OXT       30.1700   93.4900   66.1210 O.co2 1001  SAH1001    -0.2441
      9  C5'       29.9910   88.4970   68.8880 C.3   1001  SAH1001     0.0899
     10  C4'       28.5260   88.5340   69.3480 C.3   1001  SAH1001     0.1630
     11  O4'       27.9250   89.8210   69.1200 O.3   1001  SAH1001    -0.3153
     12  C3'       27.6550   87.5460   68.5750 C.3   1001  SAH1001     0.2168
     13  O3'       27.7810   86.2480   69.1570 O.3   1001  SAH1001    -0.2175
     14  C2'       26.2830   88.1240   68.9400 C.3   1001  SAH1001     0.2569
     15  O2'       25.9920   87.8950   70.3160 O.3   1001  SAH1001    -0.2130
     16  C1'       26.5620   89.6130   68.6980 C.3   1001  SAH1001     0.3185
     17  N9        26.4590   89.9340   67.2590 N.pl3 1001  SAH1001    -0.1439
     18  C8        27.4780   90.1900   66.4260 C.3   1001  SAH1001     0.3377
     19  N7        27.0010   90.4960   65.2240 N.2   1001  SAH1001    -0.2095
     20  C5        25.6810   90.4390   65.2730 C.2   1001  SAH1001     0.2526
     21  C6        24.6530   90.6530   64.3650 C.2   1001  SAH1001     0.4393
     22  N6        24.9230   91.0070   63.1120 N.pl3 1001  SAH1001     0.2180
     23  N1        23.3810   90.5020   64.7660 N.2   1001  SAH1001     0.0021
     24  C2        23.0860   90.1510   66.0030 C.3   1001  SAH1001     0.5254
     25  N3        24.0390   89.9390   66.8990 N.2   1001  SAH1001    -0.0055
     26  C4        25.3270   90.0740   66.5750 C.2   1001  SAH1001     0.3518
@<TRIPOS>BOND
     1    22    21    1
     2    21    23    2
     3    21    20    1
     4    23    24    1
     5    19    20    2
     6    19    18    1
     7    20    26    1
     8    24    25    1
     9     8     6   ar
    10     7     6   ar
    11    18    17    1
    12     6     2    1
    13    26    25    2
    14    26    17    1
    15     2     1    1
    16     2     3    1
    17    17    16    1
    18     3     4    1
    19    12    14    1
    20    12    13    1
    21    12    10    1
    22     4     5    1
    23    16    14    1
    24    16    11    1
    25     9    10    1
    26     9     5    1
    27    14    15    1
    28    11    10    1
