@<TRIPOS>MOLECULE
2hut_SAH_A_1.pdb
 26 28 0 0 0
SMALL
GASTEIGER

@<TRIPOS>ATOM
      1  N         33.7300   92.7210   66.7900 N.3   1001  SAH1001    -0.1208
      2  CA        32.3220   92.4080   66.5070 C.3   1001  SAH1001     0.1952
      3  CB        31.6730   91.7690   67.7370 C.3   1001  SAH1001     0.0422
      4  CG        32.4380   90.5290   68.2070 C.3   1001  SAH1001     0.0597
      5  SD        31.6350   89.6980   69.6270 S.3   1001  SAH1001    -0.1375
      6  C         31.5800   93.7010   66.1590 C.2   1001  SAH1001     0.3819
      7  O         32.1610   94.7830   66.2200 O.co2 1001  SAH1001    -0.2441
      8  OXT       30.3980   93.6720   65.8200 O.co2 1001  SAH1001    -0.2441
      9  C5'       30.5640   88.5160   68.7280 C.3   1001  SAH1001     0.0899
     10  C4'       29.0900   88.5570   69.1400 C.3   1001  SAH1001     0.1630
     11  O4'       28.4720   89.8230   68.8500 O.3   1001  SAH1001    -0.3153
     12  C3'       28.2650   87.5300   68.3640 C.3   1001  SAH1001     0.2168
     13  O3'       28.3930   86.2540   68.9970 O.3   1001  SAH1001    -0.2175
     14  C2'       26.8730   88.0830   68.6540 C.3   1001  SAH1001     0.2569
     15  O2'       26.5220   87.8240   70.0160 O.3   1001  SAH1001    -0.2130
     16  C1'       27.1130   89.5790   68.4400 C.3   1001  SAH1001     0.3185
     17  N9        26.9980   89.9320   67.0060 N.pl3 1001  SAH1001    -0.1439
     18  C8        28.0020   90.2010   66.1730 C.3   1001  SAH1001     0.3377
     19  N7        27.5190   90.5400   64.9790 N.2   1001  SAH1001    -0.2095
     20  C5        26.1930   90.4840   65.0490 C.2   1001  SAH1001     0.2526
     21  C6        25.1570   90.7280   64.1550 C.2   1001  SAH1001     0.4393
     22  N6        25.4140   91.1030   62.9050 N.pl3 1001  SAH1001     0.2180
     23  N1        23.8900   90.5720   64.5680 N.2   1001  SAH1001     0.0021
     24  C2        23.6080   90.1920   65.8030 C.3   1001  SAH1001     0.5254
     25  N3        24.5680   89.9520   66.6790 N.2   1001  SAH1001    -0.0055
     26  C4        25.8590   90.0900   66.3390 C.2   1001  SAH1001     0.3518
@<TRIPOS>BOND
     1    22    21    1
     2    21    23    2
     3    21    20    1
     4    23    24    1
     5    19    20    2
     6    19    18    1
     7    20    26    1
     8    24    25    1
     9     8     6   ar
    10     6     7   ar
    11     6     2    1
    12    18    17    1
    13    26    25    2
    14    26    17    1
    15     2     1    1
    16     2     3    1
    17    17    16    1
    18     3     4    1
    19     4     5    1
    20    12    14    1
    21    12    13    1
    22    12    10    1
    23    16    14    1
    24    16    11    1
    25    14    15    1
    26     9    10    1
    27     9     5    1
    28    11    10    1
