@<TRIPOS>MOLECULE
2huv_SAH_A_1.pdb
 26 28 0 0 0
SMALL
GASTEIGER

@<TRIPOS>ATOM
      1  N         33.2770   92.0450   66.2960 N.3   1001  SAH1001    -0.1208
      2  CA        31.8460   91.7920   66.0690 C.3   1001  SAH1001     0.1952
      3  CB        31.2030   91.2390   67.3430 C.3   1001  SAH1001     0.0422
      4  CG        31.8940   89.9590   67.8190 C.3   1001  SAH1001     0.0597
      5  SD        31.0300   89.1660   69.2250 S.3   1001  SAH1001    -0.1375
      6  C         31.1580   93.1000   65.6760 C.2   1001  SAH1001     0.3819
      7  O         31.7790   94.1590   65.7020 O.co2 1001  SAH1001    -0.2441
      8  OXT       29.9740   93.1040   65.3300 O.co2 1001  SAH1001    -0.2441
      9  C5'       29.8970   88.0540   68.3150 C.3   1001  SAH1001     0.0899
     10  C4'       28.4480   88.1230   68.8030 C.3   1001  SAH1001     0.1630
     11  O4'       27.8490   89.4070   68.5530 O.3   1001  SAH1001    -0.3153
     12  C3'       27.5710   87.1200   68.0540 C.3   1001  SAH1001     0.2168
     13  O3'       27.6950   85.8400   68.6810 O.3   1001  SAH1001    -0.2175
     14  C2'       26.2000   87.7090   68.3800 C.3   1001  SAH1001     0.2569
     15  O2'       25.8530   87.4650   69.7460 O.3   1001  SAH1001    -0.2130
     16  C1'       26.4790   89.1980   68.1600 C.3   1001  SAH1001     0.3185
     17  N9        26.3460   89.5400   66.7260 N.pl3 1001  SAH1001    -0.1439
     18  C8        27.3420   89.7770   65.8710 C.3   1001  SAH1001     0.3377
     19  N7        26.8440   90.0950   64.6780 N.2   1001  SAH1001    -0.2095
     20  C5        25.5190   90.0570   64.7700 C.2   1001  SAH1001     0.2526
     21  C6        24.4710   90.2920   63.8860 C.2   1001  SAH1001     0.4393
     22  N6        24.7180   90.6100   62.6190 N.pl3 1001  SAH1001     0.2180
     23  N1        23.2090   90.1690   64.3220 N.2   1001  SAH1001     0.0021
     24  C2        22.9400   89.8270   65.5730 C.3   1001  SAH1001     0.5254
     25  N3        23.9110   89.5950   66.4380 N.2   1001  SAH1001    -0.0055
     26  C4        25.1980   89.7010   66.0740 C.2   1001  SAH1001     0.3518
@<TRIPOS>BOND
     1    22    21    1
     2    21    23    2
     3    21    20    1
     4    23    24    1
     5    19    20    2
     6    19    18    1
     7    20    26    1
     8     8     6   ar
     9    24    25    1
    10     6     7   ar
    11     6     2    1
    12    18    17    1
    13     2     1    1
    14     2     3    1
    15    26    25    2
    16    26    17    1
    17    17    16    1
    18     3     4    1
    19     4     5    1
    20    12    14    1
    21    12    13    1
    22    12    10    1
    23    16    14    1
    24    16    11    1
    25     9    10    1
    26     9     5    1
    27    14    15    1
    28    11    10    1
