@<TRIPOS>MOLECULE
2huw_YVN_A_1.pdb
 36 37 0 0 0
SMALL
GASTEIGER

@<TRIPOS>ATOM
      1  OBH        8.2350   63.7390   10.6730 O.3   203  YVN203     -0.1039
      2  PBF        8.2490   62.1720   10.3480 P.3   203  YVN203      0.5887
      3  OBI        8.2420   62.0480    8.7420 O.2   203  YVN203     -0.2114
      4  OBG        7.0960   61.4720   10.9650 O.3   203  YVN203     -0.1039
      5  OBE        9.6910   61.6470   10.8750 O.3   203  YVN203     -0.3998
      6  CBD       10.0850   60.4600   10.3110 C.ar  203  YVN203      0.1490
      7  CBC        9.4450   59.2470   10.6470 C.ar  203  YVN203      0.0371
      8  CBB        9.9710   58.0190   10.1910 C.ar  203  YVN203     -0.0011
      9  CBJ       11.2440   60.4390    9.5100 C.ar  203  YVN203      0.0371
     10  CBK       11.7670   59.2150    9.0560 C.ar  203  YVN203     -0.0011
     11  CBA       11.1360   57.9990    9.3970 C.ar  203  YVN203     -0.0213
     12  CAZ       11.7600   56.6480    8.9590 C.3   203  YVN203      0.0406
     13  CAF       11.0140   55.8130    7.8890 C.3   203  YVN203      0.0920
     14  CAC        9.6700   56.3640    7.3670 C.2   203  YVN203      0.2460
     15  OAD        9.6210   57.3720    6.6630 O.2   203  YVN203     -0.2730
     16  NAB        8.6000   55.6590    7.7340 N.am  203  YVN203     -0.1765
     17  CAA        7.5730   55.5170    6.9080 C.2   203  YVN203      0.1065
     18  CAG       12.2690   56.6010    7.5070 C.3   203  YVN203      0.0917
     19  CAH       13.5300   55.7590    7.2630 C.2   203  YVN203      0.2421
     20  OAI       13.7200   54.6960    7.8600 O.2   203  YVN203     -0.2733
     21  NAJ       14.3950   56.3020    6.4010 N.am  203  YVN203     -0.1978
     22  CAK       15.6610   55.6590    5.9810 C.3   203  YVN203      0.1726
     23  CAW       16.4190   56.5960    5.0170 C.3   203  YVN203      0.0290
     24  CAX       17.7310   55.9580    4.5270 C.3   203  YVN203      0.0023
     25  CAY       15.5390   56.9430    3.8140 C.3   203  YVN203      0.0023
     26  CAL       16.5550   55.2540    7.1720 C.2   203  YVN203      0.2616
     27  OAM       17.1560   54.1790    7.1480 O.2   203  YVN203     -0.2715
     28  NAN       16.6360   56.1260    8.1830 N.am  203  YVN203     -0.1958
     29  CAO       17.4730   55.8390    9.3740 C.3   203  YVN203      0.1836
     30  CAT       16.5980   55.4150   10.5710 C.2   203  YVN203      0.2811
     31  OAV       17.0320   55.4740   11.7240 O.2   203  YVN203     -0.2698
     32  NAU       15.3740   54.9870   10.2580 N.am  203  YVN203     -0.0863
     33  CAP       18.3380   57.0710    9.7400 C.3   203  YVN203      0.1196
     34  CAQ       17.5000   58.2790   10.2040 C.2   203  YVN203      0.2630
     35  OAS       16.3350   58.4270    9.8380 O.2   203  YVN203     -0.2716
     36  NAR       18.1290   59.1120   11.0290 N.am  203  YVN203     -0.0877
@<TRIPOS>BOND
     1    25    23    1
     2    24    23    1
     3    23    22    1
     4    22    21    1
     5    22    26    1
     6    21    19   am
     7    15    14    2
     8    17    16    2
     9    27    26    2
    10    26    28   am
    11    19    18    1
    12    19    20    2
    13    14    16    1
    14    14    13    1
    15    18    13    1
    16    18    12    1
    17    13    12    1
    18    28    29    1
    19     3     2    2
    20    12    11    1
    21    10    11   ar
    22    10     9   ar
    23    29    33    1
    24    29    30    1
    25    11     8   ar
    26     9     6   ar
    27    33    34    1
    28    35    34    2
    29     8     7   ar
    30    34    36   am
    31    32    30   am
    32     6     7   ar
    33     6     5    1
    34     2     1    1
    35     2     5    1
    36     2     4    1
    37    30    31    2
