@<TRIPOS>MOLECULE
2hux_SAH_A_1.pdb
 26 28 0 0 0
SMALL
GASTEIGER

@<TRIPOS>ATOM
      1  N         33.8170   93.8510   67.8570 N.3   1001  SAH1001    -0.1208
      2  CA        32.6040   93.5080   67.0990 C.3   1001  SAH1001     0.1952
      3  CB        31.7920   92.4570   67.8610 C.3   1001  SAH1001     0.0422
      4  CG        32.6270   91.7450   68.9280 C.3   1001  SAH1001     0.0597
      5  SD        31.6050   91.0210   70.2630 S.3   1001  SAH1001    -0.1375
      6  C         31.7530   94.7670   66.9080 C.2   1001  SAH1001     0.3819
      7  O         32.2530   95.8820   67.0440 O.co2 1001  SAH1001    -0.2441
      8  OXT       30.5460   94.6800   66.6840 O.co2 1001  SAH1001    -0.2441
      9  C5'       30.5240   89.9290   69.2670 C.3   1001  SAH1001     0.0899
     10  C4'       29.0650   89.8720   69.7290 C.3   1001  SAH1001     0.1630
     11  O4'       28.3300   91.0630   69.3960 O.3   1001  SAH1001    -0.3153
     12  C3'       28.3170   88.7360   69.0330 C.3   1001  SAH1001     0.2168
     13  O3'       28.5530   87.5210   69.7520 O.3   1001  SAH1001    -0.2175
     14  C2'       26.8850   89.1870   69.3040 C.3   1001  SAH1001     0.2569
     15  O2'       26.5770   88.9810   70.6860 O.3   1001  SAH1001    -0.2130
     16  C1'       26.9980   90.6830   68.9960 C.3   1001  SAH1001     0.3185
     17  N9        26.8670   90.9510   67.5470 N.pl3 1001  SAH1001    -0.1439
     18  C8        27.8640   91.2150   66.7030 C.3   1001  SAH1001     0.3377
     19  N7        27.3760   91.6600   65.5480 N.2   1001  SAH1001    -0.2095
     20  C5        26.0490   91.5780   65.6170 C.2   1001  SAH1001     0.2526
     21  C6        25.0090   91.8570   64.7390 C.2   1001  SAH1001     0.4393
     22  N6        25.2470   92.4310   63.5620 N.pl3 1001  SAH1001     0.2180
     23  N1        23.7480   91.6210   65.1330 N.2   1001  SAH1001     0.0021
     24  C2        23.4710   91.2180   66.3620 C.3   1001  SAH1001     0.5254
     25  N3        24.4350   91.0290   67.2470 N.2   1001  SAH1001    -0.0055
     26  C4        25.7240   91.1380   66.8930 C.2   1001  SAH1001     0.3518
@<TRIPOS>BOND
     1    22    21    1
     2    21    23    2
     3    21    20    1
     4    23    24    1
     5    19    20    2
     6    19    18    1
     7    20    26    1
     8    24    25    1
     9     8     6   ar
    10    18    17    1
    11    26    25    2
    12    26    17    1
    13     6     7   ar
    14     6     2    1
    15     2     1    1
    16     2     3    1
    17    17    16    1
    18     3     4    1
    19     4     5    1
    20    16    14    1
    21    16    11    1
    22    12    14    1
    23    12    10    1
    24    12    13    1
    25     9    10    1
    26     9     5    1
    27    14    15    1
    28    11    10    1
