@<TRIPOS>MOLECULE
2hv5_NAP_A_1.pdb
 48 52 0 0 0
SMALL
GASTEIGER

@<TRIPOS>ATOM
      1  PA        22.6310   -5.1570   26.9930 P.3   500  NAP500      0.2189
      2  O1A       23.5250   -4.1160   26.5090 O.2   500  NAP500     -0.5170
      3  O2A       21.5370   -4.8020   27.9360 O.3   500  NAP500     -0.4371
      4  O5B       23.5200   -6.3610   27.5680 O.3   500  NAP500     -0.3112
      5  C5B       22.9450   -7.4800   28.1880 C.3   500  NAP500      0.1813
      6  C4B       24.1500   -8.4780   28.3210 C.3   500  NAP500      0.1820
      7  O4B       24.9190   -7.9670   29.4360 O.3   500  NAP500     -0.3136
      8  C3B       23.6640   -9.8890   28.7890 C.3   500  NAP500      0.2157
      9  O3B       24.6300  -10.8020   28.2880 O.3   500  NAP500     -0.2175
     10  C2B       23.7530   -9.7310   30.3460 C.3   500  NAP500      0.2314
     11  O2B       24.0480  -10.9990   30.9500 O.3   500  NAP500     -0.2630
     12  C1B       24.9710   -8.8320   30.5160 C.3   500  NAP500      0.3158
     13  N9A       24.9680   -8.1510   31.7570 N.pl3 500  NAP500     -0.1439
     14  C8A       23.8740   -7.4790   32.3100 C.3   500  NAP500      0.3377
     15  N7A       24.1270   -6.8430   33.4080 N.2   500  NAP500     -0.2095
     16  C5A       25.4670   -7.1010   33.6090 C.2   500  NAP500      0.2526
     17  C6A       26.2260   -6.6320   34.6800 C.2   500  NAP500      0.4393
     18  N6A       25.8060   -5.8520   35.6850 N.pl3 500  NAP500      0.2180
     19  N1A       27.5500   -7.0440   34.6280 N.2   500  NAP500      0.0021
     20  C2A       28.0400   -7.8390   33.6120 C.3   500  NAP500      0.5254
     21  N3A       27.2850   -8.2950   32.5700 N.2   500  NAP500     -0.0055
     22  C4A       25.9610   -7.8930   32.6060 C.2   500  NAP500      0.3518
     23  O3        22.0070   -5.8950   25.7070 O.3   500  NAP500     -0.2703
     24  PN        20.6560   -5.9030   24.8410 P.3   500  NAP500      0.2189
     25  O1N       19.8060   -7.0390   25.3310 O.3   500  NAP500     -0.4371
     26  O2N       20.9340   -5.8730   23.3810 O.2   500  NAP500     -0.5170
     27  O5D       19.9740   -4.4690   25.0920 O.3   500  NAP500     -0.3112
     28  C5D       19.1340   -4.2510   26.2500 C.3   500  NAP500      0.1813
     29  C4D       17.6810   -4.3460   25.8430 C.3   500  NAP500      0.1799
     30  O4D       17.2610   -3.2860   24.8870 O.3   500  NAP500     -0.3327
     31  C3D       17.1850   -5.6430   25.1380 C.3   500  NAP500      0.2158
     32  O3D       17.0700   -6.7570   25.9860 O.3   500  NAP500     -0.2175
     33  C2D       15.8430   -5.1380   24.5550 C.3   500  NAP500      0.2309
     34  O2D       14.8620   -5.0750   25.5900 O.3   500  NAP500     -0.2158
     35  C1D       16.2070   -3.7660   24.0450 C.3   500  NAP500      0.2263
     36  N1N       16.7000   -3.7290   22.6050 N.pl3 500  NAP500     -0.2787
     37  C2N       15.8270   -3.1330   21.7080 C.3   500  NAP500      0.1244
     38  C3N       16.1900   -3.1380   20.3750 C.2   500  NAP500      0.0544
     39  C7N       15.2510   -2.4870   19.3530 C.2   500  NAP500      0.2818
     40  O7N       15.4980   -2.7970   18.2010 O.2   500  NAP500     -0.2670
     41  N7N       14.2990   -1.7080   19.8120 N.am  500  NAP500     -0.0839
     42  C4N       17.4100   -3.7290   19.8900 C.2   500  NAP500      0.0033
     43  C5N       18.2760   -4.3250   20.8500 C.2   500  NAP500      0.0157
     44  C6N       17.9340   -4.3240   22.2300 C.2   500  NAP500      0.0633
     45  P2B       22.9670  -11.9630   31.6900 P.3   500  NAP500      0.5328
     46  O1X       23.1360  -11.5770   33.1990 O.3   500  NAP500     -0.1145
     47  O2X       21.6370  -11.6840   31.1070 O.2   500  NAP500     -0.2224
     48  O3X       23.5430  -13.3790   31.4460 O.3   500  NAP500     -0.1145
@<TRIPOS>BOND
     1    40    39    2
     2    39    41   am
     3    39    38    1
     4    42    38    2
     5    42    43    1
     6    38    37    1
     7    43    44    2
     8    37    36    1
     9    44    36    1
    10    36    35    1
    11    26    24    2
    12    35    33    1
    13    35    30    1
    14    33    31    1
    15    33    34    1
    16    24    27    1
    17    24    25    1
    18    24    23    1
    19    30    29    1
    20    27    28    1
    21    31    29    1
    22    31    32    1
    23    23     1    1
    24    29    28    1
    25     2     1    2
    26     1     4    1
    27     1     3    1
    28     4     5    1
    29     5     6    1
    30     9     8    1
    31     6     8    1
    32     6     7    1
    33     8    10    1
    34     7    12    1
    35    10    12    1
    36    10    11    1
    37    12    13    1
    38    11    45    1
    39    47    45    2
    40    48    45    1
    41    45    46    1
    42    13    14    1
    43    13    22    1
    44    14    15    1
    45    21    22    2
    46    21    20    1
    47    22    16    1
    48    15    16    2
    49    16    17    1
    50    20    19    1
    51    19    17    2
    52    17    18    1
