@<TRIPOS>MOLECULE
2hv5_ZST_A_1.pdb
 29 32 0 0 0
SMALL
GASTEIGER

@<TRIPOS>ATOM
      1  C1        17.7160   -9.3260   15.0530 C.ar  600  ZST600      0.2767
      2  O1        17.9920   -9.9540   14.0320 O.2   600  ZST600     -0.2655
      3  C2        16.7750   -9.8380   16.0140 C.ar  600  ZST600      0.0588
      4  C3        16.4560   -9.0880   17.1530 C.ar  600  ZST600      0.0204
      5  C4        17.0780   -7.8000   17.3100 C.ar  600  ZST600      0.0902
      6  C5        16.2030  -11.1010   15.7970 C.ar  600  ZST600      0.0048
      7  C6        15.3290  -11.6090   16.7030 C.ar  600  ZST600      0.0002
      8  C7        14.9950  -10.8800   17.8280 C.ar  600  ZST600      0.0000
      9  C8        15.5470   -9.6570   18.0540 C.ar  600  ZST600      0.0014
     10  N1        18.1990   -8.0690   15.3360 N.ar  600  ZST600     -0.2091
     11  N2        17.8930   -7.3110   16.4580 N.ar  600  ZST600     -0.1702
     12  C9        19.1540   -7.3550   14.4790 C.3   600  ZST600      0.1956
     13  C10       18.2270   -6.5890   13.4910 C.2   600  ZST600      0.1594
     14  C11       16.2890   -5.7090   12.1920 C.3   600  ZST600      0.1279
     15  C12       17.5390   -5.1880   11.8500 C.2   600  ZST600      0.1234
     16  C13       15.0850   -5.3390   11.5680 C.2   600  ZST600     -0.0083
     17  C14       15.1920   -4.3990   10.5830 C.2   600  ZST600      0.0006
     18  C15       16.4170   -3.8740   10.2300 C.2   600  ZST600      0.0734
     19  C16       17.5920   -4.2360   10.8310 C.2   600  ZST600      0.0326
     20  N3        18.6110   -5.7150   12.6150 N.2   600  ZST600     -0.4012
     21  S1        16.5040   -6.8360   13.4530 S.3   600  ZST600     -0.0740
     22  C17       16.7530   -6.8810   18.4570 C.3   600  ZST600      0.1613
     23  C18       15.4340   -6.2000   18.2400 C.2   600  ZST600      0.3709
     24  O2        14.9900   -5.9970   17.0650 O.co2 600  ZST600     -0.2452
     25  O3        14.9100   -5.6390   19.2330 O.co2 600  ZST600     -0.2452
     26  C19       16.4440   -2.8420    9.1320 C.3   600  ZST600      0.4186
     27  F1        15.6460   -1.8210    9.4710 F     600  ZST600     -0.1659
     28  F2        16.1220   -3.2160    7.9300 F     600  ZST600     -0.1659
     29  F3        17.6230   -2.2420    9.0320 F     600  ZST600     -0.1659
@<TRIPOS>BOND
     1    28    26    1
     2    29    26    1
     3    26    27    1
     4    26    18    1
     5    18    17    1
     6    18    19    2
     7    17    16    2
     8    19    15    1
     9    16    14    1
    10    15    14    1
    11    15    20    2
    12    14    21    1
    13    20    13    2
    14    21    13    1
    15    13    12    1
    16     2     1    2
    17    12    10    1
    18     1    10   ar
    19     1     3   ar
    20    10    11   ar
    21     6     3   ar
    22     6     7   ar
    23     3     4   ar
    24    11     5   ar
    25     7     8   ar
    26    24    23   ar
    27     4     5   ar
    28     4     9   ar
    29     5    22    1
    30     8     9   ar
    31    23    22    1
    32    23    25   ar
