@<TRIPOS>MOLECULE
2hv7_ADP_B_1.pdb
 27 29 0 0 0
SMALL
GASTEIGER

@<TRIPOS>ATOM
      1  PB         8.5150  -34.5080   20.0730 P.3   324  ADP324      0.5373
      2  O1B        8.7480  -35.9780   19.8270 O.3   324  ADP324     -0.1143
      3  O2B        7.5720  -34.2160   21.2180 O.3   324  ADP324     -0.1143
      4  O3B        8.1840  -33.7270   18.8170 O.2   324  ADP324     -0.2221
      5  PA        11.2760  -33.5840   19.8390 P.3   324  ADP324      0.2231
      6  O1A       12.3620  -33.3320   20.8600 O.3   324  ADP324     -0.4370
      7  O2A       11.5300  -34.6280   18.7670 O.2   324  ADP324     -0.5169
      8  O3A        9.9420  -33.9930   20.6660 O.3   324  ADP324     -0.2261
      9  O5'       10.9130  -32.1520   19.1330 O.3   324  ADP324     -0.3111
     10  C5'        9.5980  -31.5370   19.1480 C.3   324  ADP324      0.1813
     11  C4'        9.4380  -30.1860   18.4220 C.3   324  ADP324      0.1821
     12  O4'        8.9060  -29.1990   19.3210 O.3   324  ADP324     -0.3135
     13  C3'       10.7450  -29.6000   17.9130 C.3   324  ADP324      0.2184
     14  O3'       10.4700  -28.8170   16.7470 O.3   324  ADP324     -0.2174
     15  C2'       11.2170  -28.7210   19.0610 C.3   324  ADP324      0.2570
     16  O2'       12.0440  -27.6270   18.6390 O.3   324  ADP324     -0.2130
     17  C1'        9.9180  -28.2640   19.7300 C.3   324  ADP324      0.3186
     18  N9        10.0850  -28.1780   21.2160 N.pl3 324  ADP324     -0.1439
     19  C8        10.5610  -29.1390   22.0340 C.3   324  ADP324      0.3377
     20  N7        10.5860  -28.7140   23.3220 N.2   324  ADP324     -0.2095
     21  C5        10.1270  -27.4520   23.3600 C.2   324  ADP324      0.2526
     22  C6         9.8970  -26.4100   24.3990 C.2   324  ADP324      0.4393
     23  N6        10.1600  -26.6190   25.7120 N.pl3 324  ADP324      0.2180
     24  N1         9.4030  -25.2180   23.9970 N.2   324  ADP324      0.0021
     25  C2         9.1220  -24.9720   22.7040 C.3   324  ADP324      0.5254
     26  N3         9.3100  -25.8700   21.7090 N.2   324  ADP324     -0.0055
     27  C4         9.8040  -27.1060   21.9650 C.2   324  ADP324      0.3518
@<TRIPOS>BOND
     1    14    13    1
     2    13    11    1
     3    13    15    1
     4    11    10    1
     5    11    12    1
     6    16    15    1
     7     7     5    2
     8     4     1    2
     9    15    17    1
    10     9    10    1
    11     9     5    1
    12    12    17    1
    13    17    18    1
    14     2     1    1
    15     5     8    1
    16     5     6    1
    17     1     8    1
    18     1     3    1
    19    18    27    1
    20    18    19    1
    21    26    27    2
    22    26    25    1
    23    27    21    1
    24    19    20    1
    25    25    24    1
    26    20    21    2
    27    21    22    1
    28    24    22    2
    29    22    23    1
