@<TRIPOS>MOLECULE
2hv8_GTP_A_1.pdb
 32 34 0 0 0
SMALL
GASTEIGER

@<TRIPOS>ATOM
      1  PG       -13.7790   11.8350    4.9900 P.3   200  GTP200      0.5373
      2  O1G      -12.7060   12.8760    4.7570 O.3   200  GTP200     -0.1143
      3  O2G      -13.1410   10.5410    5.4300 O.3   200  GTP200     -0.1143
      4  O3G      -14.5730   11.6220    3.7280 O.2   200  GTP200     -0.2221
      5  O3B      -14.7160   12.4510    6.1530 O.3   200  GTP200     -0.2258
      6  PB       -15.9280   11.6930    6.8910 P.3   200  GTP200      0.2277
      7  O1B      -17.1860   11.8410    6.0820 O.2   200  GTP200     -0.5168
      8  O2B      -15.5810   10.2510    7.1640 O.3   200  GTP200     -0.4368
      9  O3A      -16.1000   12.5490    8.2310 O.3   200  GTP200     -0.2700
     10  PA       -15.6510   12.1020    9.7100 P.3   200  GTP200      0.2189
     11  O1A      -16.4710   10.9420   10.2020 O.3   200  GTP200     -0.4371
     12  O2A      -14.1730   11.8520    9.8260 O.2   200  GTP200     -0.5170
     13  O5'      -16.0890   13.4190   10.5210 O.3   200  GTP200     -0.3112
     14  C5'      -15.5000   14.6780   10.2520 C.3   200  GTP200      0.1813
     15  C4'      -15.5990   15.5630   11.4920 C.3   200  GTP200      0.1799
     16  O4'      -16.9620   15.7390   11.8360 O.3   200  GTP200     -0.3326
     17  C3'      -14.9200   14.9260   12.6980 C.3   200  GTP200      0.2158
     18  O3'      -14.3270   15.9360   13.4800 O.3   200  GTP200     -0.2175
     19  C2'      -16.0610   14.2840   13.4580 C.3   200  GTP200      0.2310
     20  O2'      -15.8070   14.2010   14.8410 O.3   200  GTP200     -0.2158
     21  C1'      -17.2050   15.2310   13.1400 C.3   200  GTP200      0.2293
     22  N9       -18.5200   14.5690   13.1790 N.pl3 200  GTP200     -0.2354
     23  C8       -18.8980   13.3870   12.5950 C.3   200  GTP200      0.2246
     24  N7       -20.2060   13.1720   12.8860 N.2   200  GTP200     -0.2322
     25  C5       -20.6620   14.2010   13.6390 C.2   200  GTP200      0.2182
     26  C6       -21.8960   14.4980   14.2180 C.1   200  GTP200      0.2372
     27  O6       -22.8540   13.7450   14.0770 O.2   200  GTP200     -0.2069
     28  N1       -22.0470   15.6630   14.9490 N.2   200  GTP200     -0.2485
     29  C2       -20.9750   16.5270   15.1110 C.1   200  GTP200      0.2531
     30  N2       -21.1020   17.6460   15.8160 N.pl3 200  GTP200     -0.0226
     31  N3       -19.7550   16.2230   14.5490 N.2   200  GTP200     -0.3074
     32  C4       -19.6060   15.0860   13.8240 C.2   200  GTP200      0.2300
@<TRIPOS>BOND
     1     4     1    2
     2     2     1    1
     3     1     3    1
     4     1     5    1
     5     7     6    2
     6     5     6    1
     7     6     8    1
     8     6     9    1
     9     9    10    1
    10    10    12    2
    11    10    11    1
    12    10    13    1
    13    14    13    1
    14    14    15    1
    15    15    16    1
    16    15    17    1
    17    16    21    1
    18    23    24    1
    19    23    22    1
    20    17    19    1
    21    17    18    1
    22    24    25    2
    23    21    22    1
    24    21    19    1
    25    22    32    1
    26    19    20    1
    27    25    32    1
    28    25    26    1
    29    32    31    2
    30    27    26    2
    31    26    28    2
    32    31    29    2
    33    28    29    2
    34    29    30    1
