@<TRIPOS>MOLECULE
2hv9_SFG_A_1.pdb
 27 29 0 0 0
SMALL
GASTEIGER

@<TRIPOS>ATOM
      1  N         13.8370   30.4570   91.5330 N.3   299  SFG299     -0.1208
      2  CA        14.6100   31.4890   92.2940 C.3   299  SFG299      0.1944
      3  C         13.9060   32.8390   92.2850 C.2   299  SFG299      0.3819
      4  O         12.8280   32.9600   91.6870 O.co2 299  SFG299     -0.2441
      5  OXT       14.5560   33.8160   92.9520 O.co2 299  SFG299     -0.2441
      6  CB        16.0170   31.7300   91.7320 C.3   299  SFG299      0.0321
      7  CG        16.4030   30.8130   90.6530 C.3   299  SFG299      0.0212
      8  CD        17.7460   30.9990   89.9890 C.3   299  SFG299      0.0944
      9  NE        17.5780   32.1670   89.1030 N.3   299  SFG299     -0.1328
     10  C5'       17.7980   29.8290   89.0830 C.3   299  SFG299      0.0514
     11  C4'       18.0630   28.4800   89.7610 C.3   299  SFG299      0.1537
     12  O4'       18.0490   27.5030   88.7110 O.3   299  SFG299     -0.3161
     13  C3'       19.4690   28.3260   90.3720 C.3   299  SFG299      0.2159
     14  O3'       19.2600   28.3760   91.8300 O.3   299  SFG299     -0.2175
     15  C2'       19.9600   26.9630   89.9660 C.3   299  SFG299      0.2569
     16  O2'       20.5500   26.0720   90.8790 O.3   299  SFG299     -0.2130
     17  C1'       18.7380   26.4160   89.1980 C.3   299  SFG299      0.3185
     18  N9        19.0990   25.5680   88.1100 N.pl3 299  SFG299     -0.1439
     19  C8        19.9360   25.7970   87.0340 C.3   299  SFG299      0.3377
     20  N7        20.0420   24.7940   86.2160 N.2   299  SFG299     -0.2095
     21  C5        19.2250   23.8380   86.7890 C.2   299  SFG299      0.2526
     22  C6        18.8900   22.5150   86.4070 C.2   299  SFG299      0.4393
     23  N6        19.4100   21.9690   85.2890 N.pl3 299  SFG299      0.2180
     24  N1        18.0150   21.7730   87.2010 N.2   299  SFG299      0.0021
     25  C2        17.4930   22.3550   88.3430 C.3   299  SFG299      0.5254
     26  N3        17.7450   23.6130   88.8020 N.2   299  SFG299     -0.0055
     27  C4        18.6250   24.3050   87.9690 C.2   299  SFG299      0.3518
@<TRIPOS>BOND
     1    23    22    1
     2    20    21    2
     3    20    19    1
     4    22    21    1
     5    22    24    2
     6    21    27    1
     7    19    18    1
     8    24    25    1
     9    27    18    1
    10    27    26    2
    11    18    17    1
    12    25    26    1
    13    12    17    1
    14    12    11    1
    15    10    11    1
    16    10     8    1
    17     9     8    1
    18    17    15    1
    19    11    13    1
    20    15    13    1
    21    15    16    1
    22     8     7    1
    23    13    14    1
    24     7     6    1
    25     1     2    1
    26     4     3   ar
    27     6     2    1
    28     3     2    1
    29     3     5   ar
