@<TRIPOS>MOLECULE
2hvc_LGD_A_1.pdb
 26 27 0 0 0
SMALL
GASTEIGER

@<TRIPOS>ATOM
      1  N1         1.9340   25.8520    4.6770 N.2   2226  LGD2226    -0.3329
      2  C2         3.3210   25.6260    4.7650 C.1   2226  LGD2226     0.2053
      3  C3         4.2310   26.7400    4.9300 C.2   2226  LGD2226     0.1105
      4  C4         3.7160   28.1130    5.0010 C.2   2226  LGD2226     0.0863
      5  F1         4.4960   29.9010    6.3800 F     2226  LGD2226    -0.1658
      6  F2         6.0420   28.8460    5.2560 F     2226  LGD2226    -0.1658
      7  F3         4.6510   30.2950    4.2880 F     2226  LGD2226    -0.1658
      8  C5         2.2600   28.3290    4.9030 C.2   2226  LGD2226     0.0325
      9  C6         1.6350   29.6370    4.9550 C.2   2226  LGD2226    -0.0035
     10  C7         0.1990   29.8400    4.8680 C.3   2226  LGD2226     0.1031
     11  C8        -0.6400   28.6270    4.7170 C.2   2226  LGD2226    -0.0034
     12  C9        -0.0610   27.3060    4.6500 C.2   2226  LGD2226     0.0301
     13  C10        1.3690   27.1430    4.7380 C.2   2226  LGD2226     0.1438
     14  C11        4.7600   29.3240    5.1990 C.3   2226  LGD2226     0.4194
     15  C12       -1.8550   31.5670    4.9150 C.3   2226  LGD2226     0.1773
     16  N13       -0.3620   31.2670    4.9370 N.3   2226  LGD2226    -0.2525
     17  C14        0.5070   32.4560    4.7940 C.3   2226  LGD2226     0.1773
     18  F4        -3.6400   31.7120    5.9470 F     2226  LGD2226    -0.1685
     19  F5        -2.5160   30.1680    6.6510 F     2226  LGD2226    -0.1685
     20  F6        -1.9250   32.0570    7.2650 F     2226  LGD2226    -0.1685
     21  C15       -2.3970   31.3550    6.2240 C.3   2226  LGD2226     0.4121
     22  F7         0.4080   34.3030    4.1280 F     2226  LGD2226    -0.1685
     23  F8         1.9790   33.1860    3.4670 F     2226  LGD2226    -0.1685
     24  F9         0.1470   32.8420    2.5910 F     2226  LGD2226    -0.1685
     25  C16        0.7660   33.1050    3.7470 C.3   2226  LGD2226     0.4121
     26  O21        3.7340   24.4790    4.7060 O.2   2226  LGD2226    -0.2093
@<TRIPOS>BOND
     1    24    25    1
     2    23    25    1
     3    25    22    1
     4    25    17    1
     5     7    14    1
     6    12    11    2
     7    12    13    1
     8     1    13    2
     9     1     2    2
    10    26     2    2
    11    11    10    1
    12    13     8    1
    13     2     3    1
    14    17    16    1
    15    10    16    1
    16    10     9    1
    17     8     9    2
    18     8     4    1
    19    15    16    1
    20    15    21    1
    21     3     4    2
    22     4    14    1
    23    14     6    1
    24    14     5    1
    25    18    21    1
    26    21    19    1
    27    21    20    1
