@<TRIPOS>MOLECULE
2hvd_ADP_A_1.pdb
 27 29 0 0 0
SMALL
GASTEIGER

@<TRIPOS>ATOM
      1  PB       -10.0430   95.9210   15.4360 P.3   160  ADP160      0.5373
      2  O1B      -10.5640   96.7010   14.2500 O.2   160  ADP160     -0.2221
      3  O2B       -8.9410   94.9530   15.0750 O.3   160  ADP160     -0.1143
      4  O3B       -9.7910   96.7870   16.6540 O.3   160  ADP160     -0.1143
      5  PA       -12.8090   95.1700   15.8570 P.3   160  ADP160      0.2231
      6  O1A      -13.1160   96.5200   15.2460 O.2   160  ADP160     -0.5169
      7  O2A      -13.4120   93.9080   15.2950 O.3   160  ADP160     -0.4370
      8  O3A      -11.2180   94.8940   15.8540 O.3   160  ADP160     -0.2261
      9  O5'      -13.1130   95.3310   17.4240 O.3   160  ADP160     -0.3111
     10  C5'      -12.7610   96.5720   18.0200 C.3   160  ADP160      0.1813
     11  C4'      -12.2720   96.3730   19.4390 C.3   160  ADP160      0.1821
     12  O4'      -13.2370   95.6080   20.1640 O.3   160  ADP160     -0.3135
     13  C3'      -10.9460   95.6200   19.5250 C.3   160  ADP160      0.2184
     14  O3'       -9.8120   96.5030   19.4670 O.3   160  ADP160     -0.2174
     15  C2'      -11.0750   94.8640   20.8440 C.3   160  ADP160      0.2570
     16  O2'      -10.5300   95.5900   21.9600 O.3   160  ADP160     -0.2130
     17  C1'      -12.5800   94.6860   21.0300 C.3   160  ADP160      0.3186
     18  N9       -13.0010   93.3170   20.6660 N.pl3 160  ADP160     -0.1439
     19  C8       -13.0670   92.7720   19.4320 C.3   160  ADP160      0.3377
     20  N7       -13.4990   91.4850   19.4950 N.2   160  ADP160     -0.2095
     21  C5       -13.7080   91.2140   20.7980 C.2   160  ADP160      0.2526
     22  C6       -14.1610   90.0570   21.5840 C.2   160  ADP160      0.4393
     23  N6       -14.4820   88.9100   20.9510 N.pl3 160  ADP160      0.2180
     24  N1       -14.2450   90.1880   22.9250 N.2   160  ADP160      0.0021
     25  C2       -13.9220   91.3270   23.5710 C.3   160  ADP160      0.5254
     26  N3       -13.5020   92.4260   22.9270 N.2   160  ADP160     -0.0055
     27  C4       -13.3820   92.4210   21.5680 C.2   160  ADP160      0.3518
@<TRIPOS>BOND
     1     2     1    2
     2     3     1    1
     3     6     5    2
     4     7     5    1
     5     1     8    1
     6     1     4    1
     7     8     5    1
     8     5     9    1
     9     9    10    1
    10    10    11    1
    11    19    20    1
    12    19    18    1
    13    11    13    1
    14    11    12    1
    15    14    13    1
    16    20    21    2
    17    13    15    1
    18    12    17    1
    19    18    17    1
    20    18    27    1
    21    21    27    1
    22    21    22    1
    23    15    17    1
    24    15    16    1
    25    23    22    1
    26    27    26    2
    27    22    24    2
    28    24    25    1
    29    26    25    1
