@<TRIPOS>MOLECULE
2hve_ADP_A_1.pdb
 27 29 0 0 0
SMALL
GASTEIGER

@<TRIPOS>ATOM
      1  PB       -10.1650   96.2890   15.2100 P.3   160  ADP160      0.5373
      2  O1B      -10.5900   97.2230   14.0980 O.2   160  ADP160     -0.2221
      3  O2B       -8.9920   95.4010   14.8610 O.3   160  ADP160     -0.1143
      4  O3B      -10.0120   96.9760   16.5520 O.3   160  ADP160     -0.1143
      5  PA       -12.9400   95.4760   15.4740 P.3   160  ADP160      0.2231
      6  O1A      -13.2630   96.8030   14.8370 O.2   160  ADP160     -0.5169
      7  O2A      -13.6400   94.2250   14.9970 O.3   160  ADP160     -0.4370
      8  O3A      -11.3490   95.1890   15.3460 O.3   160  ADP160     -0.2261
      9  O5'      -13.1670   95.6430   17.0610 O.3   160  ADP160     -0.3111
     10  C5'      -12.9080   96.8920   17.6870 C.3   160  ADP160      0.1813
     11  C4'      -12.4080   96.6960   19.1110 C.3   160  ADP160      0.1821
     12  O4'      -13.4190   96.0480   19.8970 O.3   160  ADP160     -0.3135
     13  C3'      -11.1500   95.8360   19.2690 C.3   160  ADP160      0.2184
     14  O3'       -9.9180   96.5390   19.0380 O.3   160  ADP160     -0.2174
     15  C2'      -11.3010   95.3530   20.7050 C.3   160  ADP160      0.2570
     16  O2'      -10.8230   96.3160   21.6610 O.3   160  ADP160     -0.2130
     17  C1'      -12.8070   95.1860   20.8630 C.3   160  ADP160      0.3186
     18  N9       -13.2290   93.7920   20.5890 N.pl3 160  ADP160     -0.1439
     19  C8       -13.3410   93.2150   19.3730 C.3   160  ADP160      0.3377
     20  N7       -13.7610   91.9310   19.4900 N.2   160  ADP160     -0.2095
     21  C5       -13.9190   91.6820   20.8000 C.2   160  ADP160      0.2526
     22  C6       -14.3450   90.5280   21.6090 C.2   160  ADP160      0.4393
     23  N6       -14.6790   89.3710   20.9910 N.pl3 160  ADP160      0.2180
     24  N1       -14.3780   90.6690   22.9560 N.2   160  ADP160      0.0021
     25  C2       -14.0420   91.8270   23.5670 C.3   160  ADP160      0.5254
     26  N3       -13.6500   92.9250   22.8900 N.2   160  ADP160     -0.0055
     27  C4       -13.5720   92.9080   21.5290 C.2   160  ADP160      0.3518
@<TRIPOS>BOND
     1     2     1    2
     2     6     5    2
     3     3     1    1
     4     7     5    1
     5     1     8    1
     6     1     4    1
     7     8     5    1
     8     5     9    1
     9     9    10    1
    10    10    11    1
    11    14    13    1
    12    11    13    1
    13    11    12    1
    14    13    15    1
    15    19    20    1
    16    19    18    1
    17    20    21    2
    18    12    17    1
    19    18    17    1
    20    18    27    1
    21    15    17    1
    22    15    16    1
    23    21    27    1
    24    21    22    1
    25    23    22    1
    26    27    26    2
    27    22    24    2
    28    26    25    1
    29    24    25    1
