@<TRIPOS>MOLECULE
2hvh_DCT_A_1.pdb
 27 28 0 0 0
SMALL
GASTEIGER

@<TRIPOS>ATOM
      1  N1       125.7460  -24.8130   38.7250 N.am  883  DCT883     -0.1803
      2  C2       125.0610  -23.7120   38.1840 C.1   883  DCT883      0.2756
      3  N3       124.4980  -22.7540   39.0480 N.2   883  DCT883     -0.3024
      4  C4       124.6280  -22.8970   40.4360 C.2   883  DCT883      0.2346
      5  C5       125.3130  -23.9830   40.9720 C.2   883  DCT883      0.0687
      6  C6       125.8700  -24.9370   40.1260 C.2   883  DCT883      0.0835
      7  O2       124.9500  -23.5880   36.9600 O.2   883  DCT883     -0.1925
      8  N4       124.0920  -21.9870   41.2410 N.pl3 883  DCT883     -0.0921
      9  C1'      126.3480  -25.8250   37.8020 C.3   883  DCT883      0.2063
     10  C2'      127.5760  -25.1580   37.2030 C.3   883  DCT883      0.0545
     11  C3'      128.7200  -25.6790   38.0560 C.3   883  DCT883      0.0366
     12  C4'      128.2980  -27.0910   38.3110 C.3   883  DCT883      0.1472
     13  O4'      126.8410  -27.0450   38.4480 O.3   883  DCT883     -0.3366
     14  C5'      129.0210  -27.4590   39.6090 C.3   883  DCT883      0.1785
     15  O5'      128.7820  -26.5330   40.7000 O.3   883  DCT883     -0.3113
     16  PA       129.0880  -26.9170   42.2810 P.3   883  DCT883      0.2189
     17  O1A      127.9760  -26.3840   43.1010 O.3   883  DCT883     -0.4371
     18  O2A      129.4540  -28.3400   42.4120 O.2   883  DCT883     -0.5170
     19  O3A      130.4000  -26.0390   42.6270 O.3   883  DCT883     -0.2700
     20  PB       131.8070  -25.9260   41.7860 P.3   883  DCT883      0.2277
     21  O1B      131.9360  -24.4830   41.4490 O.3   883  DCT883     -0.4368
     22  O2B      131.9380  -26.9420   40.7090 O.2   883  DCT883     -0.5168
     23  O3B      132.8580  -26.3330   42.9580 O.3   883  DCT883     -0.2258
     24  PG       132.7970  -25.7750   44.4790 P.3   883  DCT883      0.5373
     25  O1G      132.2890  -24.2230   44.4630 O.2   883  DCT883     -0.2221
     26  O2G      131.9880  -26.6350   45.3760 O.3   883  DCT883     -0.1143
     27  O3G      134.3450  -25.6780   44.9680 O.3   883  DCT883     -0.1143
@<TRIPOS>BOND
     1     7     2    2
     2    10     9    1
     3    10    11    1
     4     9    13    1
     5     9     1    1
     6    11    12    1
     7     2     1   am
     8     2     3    2
     9    12    13    1
    10    12    14    1
    11     1     6    1
    12     3     4    2
    13    14    15    1
    14     6     5    2
    15     4     5    1
    16     4     8    1
    17    15    16    1
    18    22    20    2
    19    21    20    1
    20    20    19    1
    21    20    23    1
    22    16    18    2
    23    16    19    1
    24    16    17    1
    25    23    24    1
    26    25    24    2
    27    24    27    1
    28    24    26    1
