@<TRIPOS>MOLECULE
2hvi_DCT_A_1.pdb
 27 28 0 0 0
SMALL
GASTEIGER

@<TRIPOS>ATOM
      1  N1       125.8630  -24.8650   38.3920 N.am  201  DCT201     -0.1803
      2  C2       125.1210  -23.9100   37.6840 C.1   201  DCT201      0.2756
      3  N3       124.3720  -22.9640   38.3940 N.2   201  DCT201     -0.3024
      4  C4       124.3650  -22.9720   39.7940 C.2   201  DCT201      0.2346
      5  C5       125.0960  -23.9240   40.4970 C.2   201  DCT201      0.0687
      6  C6       125.8410  -24.8660   39.7940 C.2   201  DCT201      0.0835
      7  O2       125.1270  -23.8950   36.4540 O.2   201  DCT201     -0.1925
      8  N4       123.6620  -22.0520   40.4480 N.pl3 201  DCT201     -0.0921
      9  C1'      126.6810  -25.8480   37.6450 C.3   201  DCT201      0.2063
     10  C2'      128.0680  -25.2640   37.3600 C.3   201  DCT201      0.0545
     11  C3'      128.7600  -25.5820   38.6840 C.3   201  DCT201      0.0366
     12  C4'      128.3220  -27.0430   38.7700 C.3   201  DCT201      0.1472
     13  O4'      126.9150  -27.0020   38.4740 O.3   201  DCT201     -0.3366
     14  C5'      128.6150  -27.6740   40.1340 C.3   201  DCT201      0.1785
     15  O5'      127.8850  -27.0190   41.1740 O.3   201  DCT201     -0.3113
     16  PA       128.6540  -26.4410   42.4660 P.3   201  DCT201      0.2189
     17  O1A      127.6680  -25.8710   43.4110 O.3   201  DCT201     -0.4371
     18  O2A      129.6090  -27.4520   42.9720 O.2   201  DCT201     -0.5170
     19  O3A      129.4780  -25.2160   41.8240 O.3   201  DCT201     -0.2700
     20  PB       131.0720  -25.0400   41.9750 P.3   201  DCT201      0.2277
     21  O1B      131.4960  -23.9990   41.0130 O.2   201  DCT201     -0.5168
     22  O2B      131.7520  -26.3540   41.9280 O.3   201  DCT201     -0.4368
     23  O3B      131.1920  -24.4070   43.4530 O.3   201  DCT201     -0.2258
     24  PG       131.9540  -25.1500   44.6650 P.3   201  DCT201      0.5373
     25  O1G      131.3320  -24.8780   45.9800 O.3   201  DCT201     -0.1143
     26  O2G      131.9760  -26.7250   44.3340 O.2   201  DCT201     -0.2221
     27  O3G      133.4850  -24.6540   44.6040 O.3   201  DCT201     -0.1143
@<TRIPOS>BOND
     1     7     2    2
     2    10     9    1
     3    10    11    1
     4     9     1    1
     5     9    13    1
     6     2     1   am
     7     2     3    2
     8     1     6    1
     9     3     4    2
    10    13    12    1
    11    11    12    1
    12    12    14    1
    13     4     8    1
    14     4     5    1
    15     6     5    2
    16    14    15    1
    17    21    20    2
    18    15    16    1
    19    19    20    1
    20    19    16    1
    21    22    20    1
    22    20    23    1
    23    16    18    2
    24    16    17    1
    25    23    24    1
    26    26    24    2
    27    27    24    1
    28    24    25    1
