@<TRIPOS>MOLECULE
2hvj_TBA_C_1.pdb
 17 16 0 0 0
SMALL
GASTEIGER

@<TRIPOS>ATOM
      1  N1       156.4140  156.4230  -44.5730 N.4   4001  TBA4001     0.3899
      2  C11      155.6570  157.1390  -45.6120 C.3   4001  TBA4001    -0.0730
      3  C12      154.8180  158.2860  -45.0390 C.3   4001  TBA4001    -0.0223
      4  C21      157.1390  157.3790  -43.7230 C.3   4001  TBA4001    -0.0730
      5  C22      158.1320  158.1950  -44.5540 C.3   4001  TBA4001    -0.0223
      6  C31      157.3740  155.5370  -45.2470 C.3   4001  TBA4001    -0.0730
      7  C32      158.2140  154.7660  -44.2270 C.3   4001  TBA4001    -0.0223
      8  C41      155.5170  155.6190  -43.7280 C.3   4001  TBA4001    -0.0730
      9  C42      154.7650  154.5830  -44.5650 C.3   4001  TBA4001    -0.0223
     10  C13      153.6310  157.7860  -44.2150 C.3   4001  TBA4001    -0.0021
     11  C14      152.7920  158.9550  -43.6980 C.3   4001  TBA4001    -0.0001
     12  C23      158.8920  159.1870  -43.6710 C.3   4001  TBA4001    -0.0021
     13  C24      159.8770  160.0160  -44.4960 C.3   4001  TBA4001    -0.0001
     14  C33      159.2150  153.8500  -44.9350 C.3   4001  TBA4001    -0.0021
     15  C34      160.0710  153.0800  -43.9260 C.3   4001  TBA4001    -0.0001
     16  C43      153.8330  153.7490  -43.6850 C.3   4001  TBA4001    -0.0021
     17  C44      153.0800  152.7060  -44.5100 C.3   4001  TBA4001    -0.0001
@<TRIPOS>BOND
     1     2     3    1
     2     2     1    1
     3     6     1    1
     4     6     7    1
     5     3    10    1
     6    14     7    1
     7    14    15    1
     8     1     8    1
     9     1     4    1
    10     9     8    1
    11     9    16    1
    12     5     4    1
    13     5    12    1
    14    17    16    1
    15    13    12    1
    16    10    11    1
