@<TRIPOS>MOLECULE
2hvk_TBA_C_1.pdb
 17 16 0 0 0
SMALL
GASTEIGER

@<TRIPOS>ATOM
      1  N1       155.8640  155.8760  -45.7950 N.4   4001  TBA4001     0.3899
      2  C11      155.1050  156.5900  -46.8340 C.3   4001  TBA4001    -0.0730
      3  C12      154.2680  157.7380  -46.2610 C.3   4001  TBA4001    -0.0223
      4  C21      156.5910  156.8330  -44.9480 C.3   4001  TBA4001    -0.0730
      5  C22      157.5820  157.6480  -45.7820 C.3   4001  TBA4001    -0.0223
      6  C31      156.8230  154.9880  -46.4690 C.3   4001  TBA4001    -0.0730
      7  C32      157.6650  154.2190  -45.4490 C.3   4001  TBA4001    -0.0223
      8  C41      154.9690  155.0730  -44.9470 C.3   4001  TBA4001    -0.0730
      9  C42      154.2150  154.0360  -45.7810 C.3   4001  TBA4001    -0.0223
     10  C13      153.0820  157.2400  -45.4340 C.3   4001  TBA4001    -0.0021
     11  C14      152.2440  158.4100  -44.9180 C.3   4001  TBA4001    -0.0001
     12  C23      158.3440  158.6410  -44.9020 C.3   4001  TBA4001    -0.0021
     13  C24      159.3280  159.4680  -45.7310 C.3   4001  TBA4001    -0.0001
     14  C33      158.6640  153.3020  -46.1570 C.3   4001  TBA4001    -0.0021
     15  C34      159.5220  152.5330  -45.1490 C.3   4001  TBA4001    -0.0001
     16  C43      153.2840  153.2040  -44.8970 C.3   4001  TBA4001    -0.0021
     17  C44      152.5300  152.1590  -45.7190 C.3   4001  TBA4001    -0.0001
@<TRIPOS>BOND
     1     2     3    1
     2     2     1    1
     3     6     1    1
     4     6     7    1
     5     3    10    1
     6    14     7    1
     7    14    15    1
     8     1     4    1
     9     1     8    1
    10     5     4    1
    11     5    12    1
    12     9     8    1
    13     9    16    1
    14    13    12    1
    15    17    16    1
    16    10    11    1
