@<TRIPOS>MOLECULE
2hvn_ZST_A_1.pdb
 29 32 0 0 0
SMALL
GASTEIGER

@<TRIPOS>ATOM
      1  C1        17.6970   -8.9800   15.0320 C.ar  600  ZST600      0.2767
      2  O1        18.0530   -9.6060   14.0470 O.2   600  ZST600     -0.2655
      3  C2        16.7200   -9.5610   15.9220 C.ar  600  ZST600      0.0588
      4  C3        16.2930   -8.8220   17.0220 C.ar  600  ZST600      0.0204
      5  C4        16.8290   -7.5000   17.2310 C.ar  600  ZST600      0.0902
      6  C5        16.2770  -10.8540   15.6120 C.ar  600  ZST600      0.0048
      7  C6        15.3610  -11.4390   16.4620 C.ar  600  ZST600      0.0002
      8  C7        14.9480  -10.7090   17.5570 C.ar  600  ZST600      0.0000
      9  C8        15.3570   -9.4430   17.8770 C.ar  600  ZST600      0.0014
     10  N1        18.0800   -7.7030   15.3410 N.ar  600  ZST600     -0.2091
     11  N2        17.6820   -6.9420   16.4250 N.ar  600  ZST600     -0.1702
     12  C9        19.0520   -7.0190   14.4760 C.3   600  ZST600      0.1956
     13  C10       18.0510   -6.2410   13.5040 C.2   600  ZST600      0.1594
     14  C11       16.0750   -5.3760   12.2230 C.3   600  ZST600      0.1279
     15  C12       17.2870   -4.7790   11.9320 C.2   600  ZST600      0.1234
     16  C13       14.8570   -5.0230   11.6130 C.2   600  ZST600     -0.0083
     17  C14       14.8960   -4.0260   10.6730 C.2   600  ZST600      0.0006
     18  C15       16.1140   -3.4370   10.3880 C.2   600  ZST600      0.0734
     19  C16       17.3200   -3.7690   10.9760 C.2   600  ZST600      0.0326
     20  N3        18.3630   -5.2850   12.6650 N.2   600  ZST600     -0.4012
     21  S1        16.3100   -6.5840   13.4350 S.3   600  ZST600     -0.0740
     22  C17       16.4660   -6.6980   18.4550 C.3   600  ZST600      0.1613
     23  C18       15.2120   -5.9110   18.2680 C.2   600  ZST600      0.3709
     24  O2        14.6870   -5.8730   17.1340 O.co2 600  ZST600     -0.2452
     25  O3        14.5700   -5.5190   19.2580 O.co2 600  ZST600     -0.2452
     26  C19       16.1320   -2.3370    9.3670 C.3   600  ZST600      0.4186
     27  F1        15.1710   -1.4630    9.7550 F     600  ZST600     -0.1659
     28  F2        15.8860   -2.5970    8.1340 F     600  ZST600     -0.1659
     29  F3        17.2030   -1.5730    9.4990 F     600  ZST600     -0.1659
@<TRIPOS>BOND
     1    28    26    1
     2    26    29    1
     3    26    27    1
     4    26    18    1
     5    18    17    1
     6    18    19    2
     7    17    16    2
     8    19    15    1
     9    16    14    1
    10    15    14    1
    11    15    20    2
    12    14    21    1
    13    20    13    2
    14    21    13    1
    15    13    12    1
    16     2     1    2
    17    12    10    1
    18     1    10   ar
    19     1     3   ar
    20    10    11   ar
    21     6     3   ar
    22     6     7   ar
    23     3     4   ar
    24    11     5   ar
    25     7     8   ar
    26     4     5   ar
    27     4     9   ar
    28    24    23   ar
    29     5    22    1
    30     8     9   ar
    31    23    22    1
    32    23    25   ar
