@<TRIPOS>MOLECULE
2hvn_NAP_A_1.pdb
 48 52 0 0 0
SMALL
GASTEIGER

@<TRIPOS>ATOM
      1  PA        22.2710   -4.8960   27.0420 P.3   500  NAP500      0.2189
      2  O1A       23.2080   -3.8760   26.5530 O.2   500  NAP500     -0.5170
      3  O2A       21.2220   -4.6320   28.0190 O.3   500  NAP500     -0.4371
      4  O5B       23.1780   -6.1300   27.5530 O.3   500  NAP500     -0.3112
      5  C5B       22.5550   -7.3050   28.0470 C.3   500  NAP500      0.1813
      6  C4B       23.7670   -8.2710   28.2690 C.3   500  NAP500      0.1820
      7  O4B       24.5360   -7.7080   29.3840 O.3   500  NAP500     -0.3136
      8  C3B       23.3630   -9.7020   28.7480 C.3   500  NAP500      0.2157
      9  O3B       24.3050  -10.5900   28.1440 O.3   500  NAP500     -0.2175
     10  C2B       23.4990   -9.5590   30.2850 C.3   500  NAP500      0.2314
     11  O2B       23.8150  -10.8320   30.8820 O.3   500  NAP500     -0.2630
     12  C1B       24.6620   -8.5750   30.4630 C.3   500  NAP500      0.3158
     13  N9A       24.5680   -7.8000   31.6560 N.pl3 500  NAP500     -0.1439
     14  C8A       23.4850   -7.1880   32.2580 C.3   500  NAP500      0.3377
     15  N7A       23.7330   -6.5780   33.3800 N.2   500  NAP500     -0.2095
     16  C5A       25.0890   -6.7990   33.5380 C.2   500  NAP500      0.2526
     17  C6A       25.8900   -6.3590   34.6010 C.2   500  NAP500      0.4393
     18  N6A       25.4990   -5.6290   35.6590 N.pl3 500  NAP500      0.2180
     19  N1A       27.2190   -6.7380   34.4930 N.2   500  NAP500      0.0021
     20  C2A       27.7000   -7.4750   33.4360 C.3   500  NAP500      0.5254
     21  N3A       26.9150   -7.9060   32.3940 N.2   500  NAP500     -0.0055
     22  C4A       25.5830   -7.5380   32.4880 C.2   500  NAP500      0.3518
     23  O3        21.6830   -5.6040   25.7350 O.3   500  NAP500     -0.2703
     24  PN        20.3350   -5.6510   24.8820 P.3   500  NAP500      0.2189
     25  O1N       19.5290   -6.7990   25.3690 O.3   500  NAP500     -0.4371
     26  O2N       20.7040   -5.6500   23.4270 O.2   500  NAP500     -0.5170
     27  O5D       19.5550   -4.2740   25.0940 O.3   500  NAP500     -0.3112
     28  C5D       18.7300   -4.0610   26.2850 C.3   500  NAP500      0.1813
     29  C4D       17.2560   -4.1330   25.8770 C.3   500  NAP500      0.1799
     30  O4D       16.9620   -3.1710   24.8100 O.3   500  NAP500     -0.3327
     31  C3D       16.7850   -5.4400   25.1760 C.3   500  NAP500      0.2158
     32  O3D       16.7560   -6.5800   25.9350 O.3   500  NAP500     -0.2175
     33  C2D       15.4740   -4.9990   24.5340 C.3   500  NAP500      0.2309
     34  O2D       14.4950   -4.9480   25.6090 O.3   500  NAP500     -0.2158
     35  C1D       15.7970   -3.6110   24.0570 C.3   500  NAP500      0.2263
     36  N1N       16.2520   -3.5530   22.6130 N.pl3 500  NAP500     -0.2787
     37  C2N       15.3620   -2.9460   21.7300 C.3   500  NAP500      0.1244
     38  C3N       15.7070   -2.9440   20.4020 C.2   500  NAP500      0.0544
     39  C7N       14.7700   -2.2910   19.3800 C.2   500  NAP500      0.2818
     40  O7N       15.0710   -2.5400   18.2170 O.2   500  NAP500     -0.2670
     41  N7N       13.8690   -1.4440   19.8250 N.am  500  NAP500     -0.0839
     42  C4N       16.9180   -3.5360   19.9090 C.2   500  NAP500      0.0033
     43  C5N       17.7970   -4.1370   20.8590 C.2   500  NAP500      0.0157
     44  C6N       17.4750   -4.1520   22.2300 C.2   500  NAP500      0.0633
     45  P2B       22.6970  -11.6980   31.7330 P.3   500  NAP500      0.5328
     46  O1X       22.8820  -11.1710   33.1820 O.3   500  NAP500     -0.1145
     47  O2X       21.3740  -11.4700   31.1150 O.2   500  NAP500     -0.2224
     48  O3X       23.2550  -13.1220   31.6170 O.3   500  NAP500     -0.1145
@<TRIPOS>BOND
     1    40    39    2
     2    39    41   am
     3    39    38    1
     4    42    38    2
     5    42    43    1
     6    38    37    1
     7    43    44    2
     8    37    36    1
     9    44    36    1
    10    36    35    1
    11    26    24    2
    12    35    33    1
    13    35    30    1
    14    33    31    1
    15    33    34    1
    16    30    29    1
    17    24    27    1
    18    24    25    1
    19    24    23    1
    20    27    28    1
    21    31    29    1
    22    31    32    1
    23    23     1    1
    24    29    28    1
    25     2     1    2
    26     1     4    1
    27     1     3    1
    28     4     5    1
    29     5     6    1
    30     9     8    1
    31     6     8    1
    32     6     7    1
    33     8    10    1
    34     7    12    1
    35    10    12    1
    36    10    11    1
    37    12    13    1
    38    11    45    1
    39    47    45    2
    40    48    45    1
    41    13    14    1
    42    13    22    1
    43    45    46    1
    44    14    15    1
    45    21    22    2
    46    21    20    1
    47    22    16    1
    48    15    16    2
    49    20    19    1
    50    16    17    1
    51    19    17    2
    52    17    18    1
