@<TRIPOS>MOLECULE
2hvo_ZST_A_1.pdb
 29 32 0 0 0
SMALL
GASTEIGER

@<TRIPOS>ATOM
      1  C1        17.7440   -8.9350   15.0770 C.ar  600  ZST600      0.2767
      2  O1        18.0880   -9.5960   14.0920 O.2   600  ZST600     -0.2655
      3  C2        16.7940   -9.5100   15.9960 C.ar  600  ZST600      0.0588
      4  C3        16.3740   -8.7790   17.1190 C.ar  600  ZST600      0.0204
      5  C4        16.8990   -7.4420   17.3050 C.ar  600  ZST600      0.0902
      6  C5        16.3370  -10.8080   15.7250 C.ar  600  ZST600      0.0048
      7  C6        15.4350  -11.3850   16.6050 C.ar  600  ZST600      0.0002
      8  C7        15.0160  -10.6720   17.7120 C.ar  600  ZST600      0.0000
      9  C8        15.4510   -9.4040   17.9890 C.ar  600  ZST600      0.0014
     10  N1        18.1310   -7.6570   15.3740 N.ar  600  ZST600     -0.2090
     11  N2        17.7370   -6.9000   16.4740 N.ar  600  ZST600     -0.1702
     12  C9        19.0830   -6.9430   14.5080 C.3   600  ZST600      0.1959
     13  C10       18.0580   -6.1990   13.5530 C.2   600  ZST600      0.1628
     14  C11       16.0860   -5.3540   12.2550 C.2   600  ZST600      0.0572
     15  C12       17.2970   -4.7270   11.9720 C.2   600  ZST600      0.1196
     16  C13       14.8620   -5.0240   11.6410 C.2   600  ZST600      0.0084
     17  C14       14.8800   -4.0200   10.7100 C.2   600  ZST600      0.0006
     18  C15       16.0700   -3.4060   10.4310 C.2   600  ZST600      0.0563
     19  C16       17.3060   -3.6990   11.0170 C.3   600  ZST600      0.0897
     20  N3        18.3790   -5.2360   12.7300 N.2   600  ZST600     -0.4012
     21  S1        16.3280   -6.5570   13.4530 S.3   600  ZST600     -0.0556
     22  C17       16.5560   -6.5960   18.5160 C.3   600  ZST600      0.1613
     23  C18       15.2500   -5.8900   18.3530 C.2   600  ZST600      0.3709
     24  O2        14.7490   -5.8800   17.2060 O.co2 600  ZST600     -0.2452
     25  O3        14.6340   -5.3630   19.3070 O.co2 600  ZST600     -0.2452
     26  C19       16.0140   -2.3160    9.4010 C.3   600  ZST600      0.4153
     27  F1        15.1540   -1.3820    9.7790 F     600  ZST600     -0.1662
     28  F2        15.7630   -2.6530    8.1670 F     600  ZST600     -0.1662
     29  F3        17.1170   -1.6020    9.3910 F     600  ZST600     -0.1662
@<TRIPOS>BOND
     1    28    26    1
     2    29    26    1
     3    26    27    1
     4    26    18    1
     5    18    17    2
     6    18    19    1
     7    17    16    1
     8    19    15    1
     9    16    14    2
    10    15    14    1
    11    15    20    2
    12    14    21    1
    13    20    13    2
    14    21    13    1
    15    13    12    1
    16     2     1    2
    17    12    10    1
    18     1    10   ar
    19     1     3   ar
    20    10    11   ar
    21     6     3   ar
    22     6     7   ar
    23     3     4   ar
    24    11     5   ar
    25     7     8   ar
    26     4     5   ar
    27     4     9   ar
    28    24    23   ar
    29     5    22    1
    30     8     9   ar
    31    23    22    1
    32    23    25   ar
