@<TRIPOS>MOLECULE
2hvo_NAP_A_1.pdb
 48 52 0 0 0
SMALL
GASTEIGER

@<TRIPOS>ATOM
      1  PA        22.4050   -4.8450   27.0540 P.3   500  NAP500      0.2189
      2  O1A       23.2960   -3.7970   26.5500 O.2   500  NAP500     -0.5170
      3  O2A       21.3380   -4.5550   28.0340 O.3   500  NAP500     -0.4371
      4  O5B       23.3120   -6.0840   27.5390 O.3   500  NAP500     -0.3112
      5  C5B       22.7070   -7.2590   28.0540 C.3   500  NAP500      0.1813
      6  C4B       23.9080   -8.2210   28.3560 C.3   500  NAP500      0.1820
      7  O4B       24.6270   -7.6680   29.4840 O.3   500  NAP500     -0.3136
      8  C3B       23.5000   -9.6560   28.8000 C.3   500  NAP500      0.2157
      9  O3B       24.4860  -10.5570   28.2850 O.3   500  NAP500     -0.2175
     10  C2B       23.6390   -9.5280   30.3530 C.3   500  NAP500      0.2314
     11  O2B       23.9310  -10.8050   30.9350 O.3   500  NAP500     -0.2630
     12  C1B       24.8110   -8.5790   30.5260 C.3   500  NAP500      0.3158
     13  N9A       24.7050   -7.8630   31.7700 N.pl3 500  NAP500     -0.1439
     14  C8A       23.6310   -7.2430   32.3640 C.3   500  NAP500      0.3377
     15  N7A       23.9070   -6.5790   33.4560 N.2   500  NAP500     -0.2095
     16  C5A       25.2740   -6.7690   33.5990 C.2   500  NAP500      0.2526
     17  C6A       26.0790   -6.2700   34.6320 C.2   500  NAP500      0.4393
     18  N6A       25.7090   -5.4920   35.6720 N.pl3 500  NAP500      0.2180
     19  N1A       27.4190   -6.6140   34.5250 N.2   500  NAP500      0.0021
     20  C2A       27.8530   -7.4130   33.4670 C.3   500  NAP500      0.5254
     21  N3A       27.0670   -7.8970   32.4670 N.2   500  NAP500     -0.0055
     22  C4A       25.7300   -7.5550   32.5660 C.2   500  NAP500      0.3518
     23  O3        21.7980   -5.5170   25.7100 O.3   500  NAP500     -0.2703
     24  PN        20.3940   -5.6350   24.9540 P.3   500  NAP500      0.2189
     25  O1N       19.6070   -6.7880   25.4510 O.3   500  NAP500     -0.4371
     26  O2N       20.6880   -5.6610   23.4790 O.2   500  NAP500     -0.5170
     27  O5D       19.6480   -4.2290   25.1520 O.3   500  NAP500     -0.3112
     28  C5D       18.8060   -4.0240   26.3440 C.3   500  NAP500      0.1813
     29  C4D       17.3470   -4.1230   25.9500 C.3   500  NAP500      0.1799
     30  O4D       17.0460   -3.1100   24.9370 O.3   500  NAP500     -0.3327
     31  C3D       16.8910   -5.4180   25.2150 C.3   500  NAP500      0.2158
     32  O3D       16.8460   -6.5570   26.0170 O.3   500  NAP500     -0.2175
     33  C2D       15.5750   -4.9510   24.5790 C.3   500  NAP500      0.2309
     34  O2D       14.6320   -4.9000   25.6640 O.3   500  NAP500     -0.2158
     35  C1D       15.9120   -3.5450   24.1340 C.3   500  NAP500      0.2263
     36  N1N       16.3950   -3.4560   22.6910 N.pl3 500  NAP500     -0.2787
     37  C2N       15.4780   -2.8730   21.8250 C.3   500  NAP500      0.1244
     38  C3N       15.8100   -2.9050   20.4790 C.2   500  NAP500      0.0544
     39  C7N       14.8550   -2.2840   19.4450 C.2   500  NAP500      0.2818
     40  O7N       15.1460   -2.5260   18.2590 O.2   500  NAP500     -0.2670
     41  N7N       14.0700   -1.3090   19.8860 N.am  500  NAP500     -0.0839
     42  C4N       17.0190   -3.5050   20.0220 C.2   500  NAP500      0.0033
     43  C5N       17.9480   -4.0980   20.9330 C.2   500  NAP500      0.0157
     44  C6N       17.6340   -4.0680   22.3160 C.2   500  NAP500      0.0633
     45  P2B       22.8410  -11.6640   31.7980 P.3   500  NAP500      0.5328
     46  O1X       22.9600  -11.1710   33.2570 O.3   500  NAP500     -0.1145
     47  O2X       21.5200  -11.4900   31.1660 O.2   500  NAP500     -0.2224
     48  O3X       23.4370  -13.0860   31.6130 O.3   500  NAP500     -0.1145
@<TRIPOS>BOND
     1    40    39    2
     2    39    41   am
     3    39    38    1
     4    42    38    2
     5    42    43    1
     6    38    37    1
     7    43    44    2
     8    37    36    1
     9    44    36    1
    10    36    35    1
    11    26    24    2
    12    35    33    1
    13    35    30    1
    14    33    31    1
    15    33    34    1
    16    30    29    1
    17    24    27    1
    18    24    25    1
    19    24    23    1
    20    27    28    1
    21    31    29    1
    22    31    32    1
    23    23     1    1
    24    29    28    1
    25     2     1    2
    26     1     4    1
    27     1     3    1
    28     4     5    1
    29     5     6    1
    30     9     8    1
    31     6     8    1
    32     6     7    1
    33     8    10    1
    34     7    12    1
    35    10    12    1
    36    10    11    1
    37    12    13    1
    38    11    45    1
    39    47    45    2
    40    48    45    1
    41    13    14    1
    42    13    22    1
    43    45    46    1
    44    14    15    1
    45    21    22    2
    46    21    20    1
    47    22    16    1
    48    15    16    2
    49    20    19    1
    50    16    17    1
    51    19    17    2
    52    17    18    1
