@<TRIPOS>MOLECULE
2hvw_DDN_A_1.pdb
 20 21 0 0 0
SMALL
GASTEIGER

@<TRIPOS>ATOM
      1  OP3       14.0530   15.6690   54.7790 O.3   1301  DDN1301    -0.1145
      2  P         13.3680   17.0020   54.8480 P.3   1301  DDN1301     0.5327
      3  OP1       12.4270   17.1560   56.0180 O.3   1301  DDN1301    -0.1145
      4  OP2       14.3250   18.1590   54.6730 O.2   1301  DDN1301    -0.2224
      5  O5'       12.4750   17.1510   53.5050 O.3   1301  DDN1301    -0.2675
      6  C5'       11.3440   18.0170   53.4060 C.3   1301  DDN1301     0.1858
      7  C4'       10.5400   16.8820   52.8430 C.3   1301  DDN1301     0.1774
      8  O4'       10.2120   16.8090   51.4640 O.3   1301  DDN1301    -0.3339
      9  C3'        9.7620   15.9260   53.7210 C.3   1301  DDN1301     0.1857
     10  O3'        8.3240   16.0160   53.7810 O.3   1301  DDN1301    -0.2203
     11  C2'       10.1970   14.7910   52.7940 C.3   1301  DDN1301     0.0874
     12  C1'       10.0790   15.3780   51.3730 C.3   1301  DDN1301     0.2090
     13  N1        11.0510   14.8750   50.3830 N.am  1301  DDN1301    -0.1790
     14  C2        10.5510   14.1990   49.2450 C.1   1301  DDN1301     0.2844
     15  O2         9.3220   13.9880   49.1240 O.2   1301  DDN1301    -0.1918
     16  N3        11.3920   13.7650   48.3010 N.2   1301  DDN1301    -0.2452
     17  C4        12.8510   13.9280   48.3320 C.1   1301  DDN1301     0.2182
     18  O4        13.4360   12.6200   48.2290 O.2   1301  DDN1301    -0.2085
     19  C5        13.2860   14.6400   49.5460 C.2   1301  DDN1301     0.1242
     20  C6        12.3840   15.0960   50.5030 C.2   1301  DDN1301     0.0928
@<TRIPOS>BOND
     1    18    17    2
     2    16    17    2
     3    16    14    2
     4    17    19    1
     5    15    14    2
     6    14    13   am
     7    19    20    2
     8    13    20    1
     9    13    12    1
    10    12     8    1
    11    12    11    1
    12     8     7    1
    13    11     9    1
    14     7     6    1
    15     7     9    1
    16     6     5    1
    17     5     2    1
    18     9    10    1
    19     4     2    2
    20     1     2    1
    21     2     3    1
