@<TRIPOS>MOLECULE
2hvw_DCP_A_1.pdb
 28 29 0 0 0
SMALL
GASTEIGER

@<TRIPOS>ATOM
      1  N1        -0.6910    9.9780   47.3730 N.am  1201  DCP1201    -0.1802
      2  C2         0.0480   10.4470   46.3450 C.1   1201  DCP1201     0.2756
      3  N3        -0.5250   10.6930   45.1490 N.2   1201  DCP1201    -0.3024
      4  C4        -1.8400   10.4790   44.9370 C.2   1201  DCP1201     0.2346
      5  C5        -2.6390    9.9900   45.9860 C.2   1201  DCP1201     0.0687
      6  C6        -2.0100    9.7370   47.2110 C.2   1201  DCP1201     0.0835
      7  O2         1.2820   10.6340   46.5080 O.2   1201  DCP1201    -0.1925
      8  N4        -2.3860   10.7490   43.7190 N.pl3 1201  DCP1201    -0.0921
      9  C1'       -0.0260    9.7400   48.6650 C.3   1201  DCP1201     0.2090
     10  C2'        0.3760   11.0710   49.3220 C.3   1201  DCP1201     0.0874
     11  C3'        0.1130   10.8200   50.7920 C.3   1201  DCP1201     0.1857
     12  C4'       -1.0470    9.8380   50.7740 C.3   1201  DCP1201     0.1773
     13  O4'       -0.9270    9.0790   49.5570 O.3   1201  DCP1201    -0.3339
     14  O3'        1.3070   10.1950   51.3140 O.3   1201  DCP1201    -0.2203
     15  C5'       -2.4190   10.5100   50.7950 C.3   1201  DCP1201     0.1812
     16  O5'       -3.3660    9.4500   50.7660 O.3   1201  DCP1201    -0.3112
     17  PA        -4.8070    9.5440   51.4990 P.3   1201  DCP1201     0.2189
     18  O1A       -4.6340   10.0520   52.9160 O.3   1201  DCP1201    -0.4371
     19  O2A       -5.4430    8.2080   51.2430 O.2   1201  DCP1201    -0.5170
     20  O3A       -5.5440   10.6430   50.5700 O.3   1201  DCP1201    -0.2700
     21  PB        -6.3850   11.9490   50.9870 P.3   1201  DCP1201     0.2277
     22  O1B       -6.7550   11.8960   52.4560 O.3   1201  DCP1201    -0.4368
     23  O2B       -7.4760   12.0250   49.9430 O.2   1201  DCP1201    -0.5168
     24  O3B       -5.2770   13.0900   50.7110 O.3   1201  DCP1201    -0.2258
     25  PG        -4.4900   13.9460   51.8340 P.3   1201  DCP1201     0.5373
     26  O1G       -5.4990   15.0140   52.1940 O.3   1201  DCP1201    -0.1143
     27  O2G       -4.1710   13.0100   52.9690 O.3   1201  DCP1201    -0.1143
     28  O3G       -3.2770   14.4270   51.0530 O.2   1201  DCP1201    -0.2221
@<TRIPOS>BOND
     1     8     4    1
     2     4     3    2
     3     4     5    1
     4     3     2    2
     5     5     6    2
     6     2     7    2
     7     2     1   am
     8     6     1    1
     9     1     9    1
    10     9    10    1
    11     9    13    1
    12    10    11    1
    13    13    12    1
    14    23    21    2
    15    20    21    1
    16    20    17    1
    17    24    21    1
    18    24    25    1
    19    16    15    1
    20    16    17    1
    21    12    11    1
    22    12    15    1
    23    11    14    1
    24    21    22    1
    25    28    25    2
    26    19    17    2
    27    17    18    1
    28    25    26    1
    29    25    27    1
