@<TRIPOS>MOLECULE
2hvx_DRX_A_1.pdb
 28 31 0 0 0
SMALL
GASTEIGER

@<TRIPOS>ATOM
      1  CAO       62.4610   59.6600   -3.2970 C.ar  500  DRX500      0.0042
      2  CAP       61.9720   58.6500   -2.3800 C.ar  500  DRX500      0.0116
      3  CAQ       61.4340   59.0510   -1.0920 C.ar  500  DRX500      0.0577
      4 CLR        60.8300   57.8280    0.0330 Cl    500  DRX500     -0.0822
      5  CBB       61.3790   60.4260   -0.7110 C.ar  500  DRX500      0.0119
      6  CBA       61.8440   61.4720   -1.5770 C.ar  500  DRX500      0.0073
      7  CAZ       62.3770   61.1060   -2.8480 C.ar  500  DRX500      0.0292
      8  SBC       63.0730   62.1670   -4.2380 S.2   500  DRX500     -0.0867
      9  CAY       63.4690   60.7310   -5.3680 C.ar  500  DRX500      0.0321
     10  CAN       63.0750   59.5020   -4.7000 C.ar  500  DRX500      0.0001
     11  CAM       63.2410   58.1120   -5.3370 C.3   500  DRX500      0.1529
     12  PAD       64.9120   57.4350   -5.1230 P.3   500  DRX500      0.1296
     13  OAB       65.9820   58.5950   -5.5420 O.3   500  DRX500     -0.3566
     14  OAE       65.1070   56.2140   -6.1420 O.2   500  DRX500     -0.4593
     15  OAC       65.1380   56.9910   -3.7230 O.3   500  DRX500     -0.3566
     16  CAL       62.9350   58.1210   -6.8730 C.2   500  DRX500      0.2562
     17  OAX       63.6250   58.7970   -7.6420 O.2   500  DRX500     -0.2722
     18  NAK       61.8850   57.3310   -7.2210 N.am  500  DRX500     -0.1786
     19  CAW       61.3820   57.0570   -8.4700 C.ar  500  DRX500      0.0734
     20  CAV       60.2160   56.2120   -8.4750 C.ar  500  DRX500      0.0166
     21  CAU       59.6100   55.8560   -9.7240 C.ar  500  DRX500      0.0013
     22  CAT       58.4510   55.0250   -9.7460 C.ar  500  DRX500      0.0000
     23  CAS       57.8520   54.6790  -11.0070 C.ar  500  DRX500      0.0000
     24  CAF       58.4070   55.1660  -12.2340 C.ar  500  DRX500      0.0000
     25  CAG       59.5710   56.0020  -12.2250 C.ar  500  DRX500      0.0000
     26  CAH       60.1760   56.3530  -10.9700 C.ar  500  DRX500      0.0001
     27  CAI       61.3330   57.1850  -10.9740 C.ar  500  DRX500      0.0013
     28  CAJ       61.9250   57.5360   -9.7180 C.ar  500  DRX500      0.0166
@<TRIPOS>BOND
     1    24    25   ar
     2    24    23   ar
     3    25    26   ar
     4    23    22   ar
     5    27    26   ar
     6    27    28   ar
     7    26    21   ar
     8    22    21   ar
     9    21    20   ar
    10    28    19   ar
    11    20    19   ar
    12    19    18    1
    13    17    16    2
    14    18    16   am
    15    16    11    1
    16    14    12    2
    17    13    12    1
    18     9    10   ar
    19     9     8   ar
    20    11    12    1
    21    11    10    1
    22    12    15    1
    23    10     1   ar
    24     8     7   ar
    25     1     7   ar
    26     1     2   ar
    27     7     6   ar
    28     2     3   ar
    29     6     5   ar
    30     3     5   ar
    31     3     4    1
