@<TRIPOS>MOLECULE
2hvy_ATP_A_1.pdb
 31 33 0 0 0
SMALL
GASTEIGER

@<TRIPOS>ATOM
      1  PG       -25.8740  -37.2270   17.5880 P.3   501  ATP501      0.5373
      2  O1G      -26.1920  -37.9890   16.3200 O.2   501  ATP501     -0.2221
      3  O2G      -25.9470  -38.0530   18.8520 O.3   501  ATP501     -0.1143
      4  O3G      -24.6480  -36.3460   17.4940 O.3   501  ATP501     -0.1143
      5  PB       -28.6160  -36.5370   17.4370 P.3   501  ATP501      0.2277
      6  O1B      -29.0000  -35.8810   16.1330 O.2   501  ATP501     -0.5168
      7  O2B      -28.8230  -38.0210   17.6260 O.3   501  ATP501     -0.4368
      8  O3B      -27.0770  -36.1650   17.7380 O.3   501  ATP501     -0.2258
      9  PA       -29.1460  -36.1210   20.1650 P.3   501  ATP501      0.2189
     10  O1A      -30.0320  -37.2930   20.5220 O.3   501  ATP501     -0.4371
     11  O2A      -27.6610  -36.1860   20.4330 O.2   501  ATP501     -0.5170
     12  O3A      -29.3980  -35.7680   18.6130 O.3   501  ATP501     -0.2700
     13  O5'      -29.7120  -34.8190   20.9290 O.3   501  ATP501     -0.3112
     14  C5'      -29.5900  -33.5160   20.3580 C.3   501  ATP501      0.1813
     15  C4'      -30.9570  -32.8670   20.1520 C.3   501  ATP501      0.1821
     16  O4'      -31.1130  -32.4570   18.7900 O.3   501  ATP501     -0.3135
     17  C3'      -32.1330  -33.7880   20.4500 C.3   501  ATP501      0.2184
     18  O3'      -32.5860  -33.6170   21.7980 O.3   501  ATP501     -0.2174
     19  C2'      -33.1980  -33.3910   19.4470 C.3   501  ATP501      0.2570
     20  O2'      -34.2080  -32.6030   20.0780 O.3   501  ATP501     -0.2130
     21  C1'      -32.4900  -32.5390   18.4030 C.3   501  ATP501      0.3186
     22  N9       -32.6380  -33.1640   17.0620 N.pl3 501  ATP501     -0.1439
     23  C8       -31.7070  -33.8990   16.4240 C.3   501  ATP501      0.3377
     24  N7       -32.1560  -34.3260   15.2170 N.2   501  ATP501     -0.2095
     25  C5       -33.4090  -33.8610   15.0660 C.2   501  ATP501      0.2526
     26  C6       -34.4620  -33.9360   14.0220 C.2   501  ATP501      0.4393
     27  N6       -34.2530  -34.6220   12.8740 N.pl3 501  ATP501      0.2180
     28  N1       -35.6370  -33.3050   14.2560 N.2   501  ATP501      0.0021
     29  C2       -35.8570  -32.6200   15.3970 C.3   501  ATP501      0.5254
     30  N3       -34.9460  -32.5080   16.3860 N.2   501  ATP501     -0.0055
     31  C4       -33.7230  -33.0930   16.2840 C.2   501  ATP501      0.3518
@<TRIPOS>BOND
     1    27    26    1
     2    26    28    2
     3    26    25    1
     4    28    29    1
     5    25    24    2
     6    25    31    1
     7    24    23    1
     8    29    30    1
     9     6     5    2
    10    31    30    2
    11    31    22    1
    12     2     1    2
    13    23    22    1
    14    22    21    1
    15     5     7    1
    16     5     8    1
    17     5    12    1
    18     4     1    1
    19     1     8    1
    20     1     3    1
    21    21    16    1
    22    21    19    1
    23    12     9    1
    24    16    15    1
    25    19    20    1
    26    19    17    1
    27    15    14    1
    28    15    17    1
    29     9    11    2
    30     9    10    1
    31     9    13    1
    32    14    13    1
    33    17    18    1
