@<TRIPOS>MOLECULE
2hw1_ANP_A_1.pdb
 31 33 0 0 0
SMALL
GASTEIGER

@<TRIPOS>ATOM
      1  PG        27.5330   16.1870  -46.5730 P.3   301  ANP301      0.4884
      2  O1G       29.1340   16.1200  -46.1990 O.3   301  ANP301     -0.1240
      3  O2G       27.0990   14.8490  -47.0750 O.3   301  ANP301     -0.1240
      4  O3G       27.3980   17.3860  -47.6930 O.2   301  ANP301     -0.2331
      5  PB        27.6720   17.3440  -43.9580 P.3   301  ANP301      0.4669
      6  O1B       28.5490   16.1140  -43.3230 O.3   301  ANP301     -0.1253
      7  O2B       28.7990   18.4300  -44.5160 O.2   301  ANP301     -0.2351
      8  N3B       26.7340   16.7650  -45.2270 N.3   301  ANP301     -0.0163
      9  PA        26.8640   19.5050  -41.9420 P.3   301  ANP301      0.2220
     10  O1A       27.2720   19.3960  -40.5100 O.3   301  ANP301     -0.4370
     11  O2A       27.6010   20.4580  -42.8190 O.2   301  ANP301     -0.5170
     12  O3A       26.7410   17.9890  -42.6910 O.3   301  ANP301     -0.2360
     13  O5'       25.3000   19.9530  -41.9640 O.3   301  ANP301     -0.3111
     14  C5'       24.9210   21.2120  -42.5360 C.3   301  ANP301      0.1813
     15  C4'       23.6000   21.6990  -41.9570 C.3   301  ANP301      0.1821
     16  O4'       22.6760   20.6560  -42.2800 O.3   301  ANP301     -0.3135
     17  C3'       23.6210   21.7410  -40.4260 C.3   301  ANP301      0.2184
     18  O3'       24.0180   23.0240  -39.9490 O.3   301  ANP301     -0.2174
     19  C2'       22.1590   21.5760  -40.1030 C.3   301  ANP301      0.2570
     20  O2'       21.5420   22.8600  -40.2160 O.3   301  ANP301     -0.2130
     21  C1'       21.6740   20.6240  -41.2100 C.3   301  ANP301      0.3186
     22  N9        21.6710   19.2570  -40.6400 N.pl3 301  ANP301     -0.1439
     23  C8        22.6580   18.3660  -40.7820 C.3   301  ANP301      0.3377
     24  N7        22.3380   17.2490  -40.1340 N.2   301  ANP301     -0.2095
     25  C5        21.1480   17.4250  -39.5760 C.2   301  ANP301      0.2526
     26  C6        20.3360   16.6120  -38.8030 C.2   301  ANP301      0.4393
     27  N6        20.7340   15.3780  -38.4910 N.pl3 301  ANP301      0.2180
     28  N1        19.1540   17.1010  -38.3830 N.2   301  ANP301      0.0021
     29  C2        18.7740   18.3320  -38.7040 C.3   301  ANP301      0.5254
     30  N3        19.5240   19.1310  -39.4450 N.2   301  ANP301     -0.0055
     31  C4        20.7160   18.7040  -39.8920 C.2   301  ANP301      0.3518
@<TRIPOS>BOND
     1     4     1    2
     2     3     1    1
     3     1     2    1
     4     1     8    1
     5     8     5    1
     6     7     5    2
     7     5     6    1
     8     5    12    1
     9    11     9    2
    10    12     9    1
    11    14    13    1
    12    14    15    1
    13    16    15    1
    14    16    21    1
    15    13     9    1
    16    15    17    1
    17     9    10    1
    18    21    22    1
    19    21    19    1
    20    23    22    1
    21    23    24    1
    22    22    31    1
    23    17    19    1
    24    17    18    1
    25    20    19    1
    26    24    25    2
    27    31    25    1
    28    31    30    2
    29    25    26    1
    30    30    29    1
    31    26    27    1
    32    26    28    2
    33    29    28    1
