@<TRIPOS>MOLECULE
2hw1_FRU_A_1.pdb
 12 12 0 0 0
SMALL
GASTEIGER

@<TRIPOS>ATOM
      1  C1        29.0220   15.2820  -49.8350 C.3   601  FRU601      0.2434
      2  C2        29.9590   14.8650  -50.9940 C.3   601  FRU601      0.2807
      3  C3        29.4950   13.6050  -51.7070 C.3   601  FRU601      0.2409
      4  C4        30.7450   13.3100  -52.5120 C.3   601  FRU601      0.2168
      5  C5        31.8120   13.4320  -51.4100 C.3   601  FRU601      0.1836
      6  C6        33.2680   13.5500  -51.9760 C.3   601  FRU601      0.2142
      7  O1        29.3000   16.6390  -49.4420 O.3   601  FRU601     -0.2148
      8  O2        30.0490   15.9050  -51.9510 O.3   601  FRU601     -0.1896
      9  O3        28.4130   13.9000  -52.5840 O.3   601  FRU601     -0.2149
     10  O4        30.6950   11.9830  -52.9740 O.3   601  FRU601     -0.2175
     11  O5        31.3190   14.5570  -50.5360 O.3   601  FRU601     -0.3253
     12  O6        33.7160   14.9280  -52.0240 O.3   601  FRU601     -0.2176
@<TRIPOS>BOND
     1    10     4    1
     2     9     3    1
     3     4     3    1
     4     4     5    1
     5    12     6    1
     6     6     5    1
     7     8     2    1
     8     3     2    1
     9     5    11    1
    10     2    11    1
    11     2     1    1
    12     1     7    1
