@<TRIPOS>MOLECULE
2hw5_COO_C_1.pdb
 35 37 0 0 0
SMALL
GASTEIGER

@<TRIPOS>ATOM
      1  C13      -16.0350   32.8270   51.5370 C.3     2  COO2        0.0026
      2  C11      -16.4220   31.3940   51.9350 C.3     2  COO2        0.0301
      3  C14      -16.7750   31.2650   53.4100 C.3     2  COO2        0.0026
      4  C12      -17.5520   30.8310   51.0780 C.3     2  COO2        0.1491
      5  O6A      -16.9590   30.0000   50.0970 O.3     2  COO2       -0.3139
      6  P2A      -17.7160   29.4870   48.7730 P.3     2  COO2        0.2188
      7  O4A      -16.6620   28.4630   48.1380 O.2     2  COO2       -0.5170
      8  O5A      -19.1420   28.7180   49.1630 O.3     2  COO2       -0.4371
      9  O3A      -17.9190   30.6540   47.7670 O.3     2  COO2       -0.2703
     10  P1A      -16.6050   31.4740   47.3110 P.3     2  COO2        0.2189
     11  O2A      -15.8060   31.9320   48.6500 O.3     2  COO2       -0.4371
     12  O1A      -15.7270   30.6770   46.3910 O.2     2  COO2       -0.5170
     13  O5X      -17.1900   32.7810   46.6650 O.3     2  COO2       -0.3112
     14  C5X      -18.5040   32.8430   46.1060 C.3     2  COO2        0.1812
     15  C4X      -18.6020   34.1400   45.3120 C.3     2  COO2        0.1795
     16  O4X      -18.9260   35.2760   46.1970 O.3     2  COO2       -0.3136
     17  C3X      -17.1940   34.3940   44.7760 C.3     2  COO2        0.1928
     18  O3X      -17.3220   35.1270   43.5680 O.3     2  COO2       -0.2673
     19  P3X      -16.2590   35.0830   42.3460 P.3     2  COO2        0.5327
     20  O9A      -17.1380   34.7240   41.0410 O.2     2  COO2       -0.2224
     21  O7A      -15.3130   33.8100   42.5200 O.3     2  COO2       -0.1145
     22  O8A      -15.5260   36.3670   42.2550 O.3     2  COO2       -0.1145
     23  C2X      -16.5930   35.2520   45.8850 C.3     2  COO2        0.2543
     24  O2X      -15.5200   36.0350   45.3840 O.3     2  COO2       -0.2131
     25  C1X      -17.7740   36.1360   46.3110 C.3     2  COO2        0.3185
     26  N9A      -17.5810   36.5760   47.7320 N.pl3   2  COO2       -0.1439
     27  C8A      -17.6920   35.8170   48.8230 C.3     2  COO2        0.3377
     28  N7A      -17.4400   36.5500   49.9070 N.2     2  COO2       -0.2095
     29  C5A      -17.1580   37.7840   49.5160 C.2     2  COO2        0.2526
     30  C4A      -17.2490   37.8010   48.1340 C.2     2  COO2        0.3518
     31  N3A      -17.0240   38.9490   47.4790 N.2     2  COO2       -0.0055
     32  C2A      -16.7100   40.0510   48.1440 C.3     2  COO2        0.5254
     33  N1A      -16.6140   40.0710   49.4650 N.2     2  COO2        0.0021
     34  C6A      -16.8290   38.9620   50.1770 C.2     2  COO2        0.4393
     35  N6A      -16.7230   39.0140   51.4870 N.pl3   2  COO2        0.2180
@<TRIPOS>BOND
     1    20    19    2
     2    22    19    1
     3    19    21    1
     4    19    18    1
     5    18    17    1
     6    17    15    1
     7    17    23    1
     8    15    14    1
     9    15    16    1
    10    24    23    1
    11    23    25    1
    12    14    13    1
    13    16    25    1
    14    25    26    1
    15    12    10    2
    16    13    10    1
    17    10     9    1
    18    10    11    1
    19    31    30    2
    20    31    32    1
    21    26    30    1
    22    26    27    1
    23     9     6    1
    24    30    29    1
    25     7     6    2
    26    32    33    1
    27     6     8    1
    28     6     5    1
    29    27    28    1
    30    33    34    2
    31    29    28    2
    32    29    34    1
    33     5     4    1
    34    34    35    1
    35     4     2    1
    36     1     2    1
    37     2     3    1
