@<TRIPOS>MOLECULE
2hwb_W91_1_1.pdb
 23 25 0 0 0
SMALL
GASTEIGER

@<TRIPOS>ATOM
      1  C3        38.8990    3.9750  124.8740 C.ar  700  W91700      0.1007
      2  C31       38.0620    5.2080  124.9320 C.3   700  W91700      0.0557
      3  C4        39.6320    3.4320  123.8720 C.ar  700  W91700      0.0536
      4  C5        40.2140    2.2990  124.3130 C.ar  700  W91700      0.1542
      5  O1        39.8440    2.0990  125.5960 O.2   700  W91700     -0.3581
      6  N2        39.0110    3.2240  125.9160 N.ar  700  W91700     -0.0817
      7  C1C       41.1520    1.2750  123.7210 C.3   700  W91700      0.0712
      8  C2C       40.7030   -0.1770  123.9320 C.3   700  W91700      0.0554
      9  C3C       41.8670   -1.1600  124.2100 C.3   700  W91700      0.2059
     10  O1B       42.6990   -1.1970  123.0340 O.3   700  W91700     -0.4737
     11  C1B       43.8630   -1.9460  122.9820 C.ar  700  W91700      0.1594
     12  C2B       45.0440   -1.4680  123.5530 C.ar  700  W91700      0.0925
     13 CL2        45.0540    0.0280  124.3820 Cl    700  W91700     -0.0791
     14  C3B       46.2190   -2.1760  123.4210 C.ar  700  W91700      0.0192
     15  C4B       46.2390   -3.3950  122.7270 C.ar  700  W91700      0.0555
     16  C5B       45.0500   -3.8970  122.2150 C.ar  700  W91700      0.0192
     17  C6B       43.8690   -3.1960  122.3500 C.ar  700  W91700      0.0925
     18 CL1        42.4260   -3.8240  121.6820 Cl    700  W91700     -0.0791
     19  C2A       47.5060   -4.0950  122.5060 C.ar  700  W91700      0.2299
     20  N3A       47.6830   -5.3270  121.8030 N.ar  700  W91700     -0.2065
     21  C4A       48.9830   -5.7180  121.7630 C.ar  700  W91700      0.1427
     22  C5A       49.6080   -4.5760  122.5260 C.ar  700  W91700      0.2021
     23  O1A       48.6650   -3.6510  122.9340 O.2   700  W91700     -0.4314
@<TRIPOS>BOND
     1    18    17    1
     2    21    20   ar
     3    21    22   ar
     4    20    19   ar
     5    16    17   ar
     6    16    15   ar
     7    17    11   ar
     8    19    15    1
     9    19    23   ar
    10    22    23   ar
    11    15    14   ar
    12    11    10    1
    13    11    12   ar
    14    10     9    1
    15    14    12   ar
    16    12    13    1
    17     7     8    1
    18     7     4    1
    19     3     4   ar
    20     3     1   ar
    21     8     9    1
    22     4     5   ar
    23     1     2    1
    24     1     6   ar
    25     5     6   ar
