@<TRIPOS>MOLECULE
2hwc_W54_1_1.pdb
 25 27 0 0 0
SMALL
GASTEIGER

@<TRIPOS>ATOM
      1  C31       36.4810    6.2020  125.0560 C.3   500  W54500      0.0557
      2  C3        37.5910    5.2080  125.0810 C.ar  500  W54500      0.1007
      3  C4        38.3050    4.6570  124.0090 C.ar  500  W54500      0.0536
      4  C5        39.1970    3.8160  124.5500 C.ar  500  W54500      0.1541
      5  O1        39.0550    3.8320  125.8910 O.2   500  W54500     -0.3581
      6  N2        38.0100    4.7400  126.2090 N.ar  500  W54500     -0.0817
      7  C1C       40.2490    2.9200  124.0160 C.3   500  W54500      0.0673
      8  C2C       40.0550    1.4660  124.4190 C.3   500  W54500      0.0082
      9  C3C       41.2070    0.5690  123.9900 C.3   500  W54500      0.0043
     10  C4C       40.8000   -0.7300  123.3560 C.3   500  W54500      0.0474
     11  C5C       41.8550   -1.8240  123.4450 C.3   500  W54500      0.2055
     12  O1B       43.0290   -1.3290  122.7750 O.3   500  W54500     -0.4738
     13  C1B       44.1530   -2.1100  122.6690 C.ar  500  W54500      0.1594
     14  C2B       44.2650   -3.2620  121.8830 C.ar  500  W54500      0.0925
     15 CL1        42.9230   -3.8030  120.9530 Cl    500  W54500     -0.0791
     16  C3B       45.4650   -3.9350  121.8250 C.ar  500  W54500      0.0192
     17  C4B       46.5640   -3.4900  122.5490 C.ar  500  W54500      0.0555
     18  C5B       46.4310   -2.3560  123.3610 C.ar  500  W54500      0.0192
     19  C6B       45.2390   -1.6800  123.4190 C.ar  500  W54500      0.0925
     20 CL2        45.1010   -0.2800  124.4090 Cl    500  W54500     -0.0791
     21  C2A       47.8560   -4.1600  122.4540 C.ar  500  W54500      0.2299
     22  N3A       48.1520   -5.3150  121.6630 N.ar  500  W54500     -0.2065
     23  C4A       49.4490   -5.7080  121.7730 C.ar  500  W54500      0.1427
     24  C5A       49.9270   -4.6430  122.7440 C.ar  500  W54500      0.2021
     25  O1A       48.9130   -3.7730  123.0870 O.2   500  W54500     -0.4314
@<TRIPOS>BOND
     1    15    14    1
     2    22    23   ar
     3    22    21   ar
     4    23    24   ar
     5    16    14   ar
     6    16    17   ar
     7    14    13   ar
     8    21    17    1
     9    21    25   ar
    10    17    18   ar
    11    13    12    1
    12    13    19   ar
    13    24    25   ar
    14    12    11    1
    15    10    11    1
    16    10     9    1
    17    18    19   ar
    18    19    20    1
    19     9     8    1
    20     3     4   ar
    21     3     2   ar
    22     7     8    1
    23     7     4    1
    24     4     5   ar
    25     1     2    1
    26     2     6   ar
    27     5     6   ar
