@<TRIPOS>MOLECULE
2hwd_W91_1_1.pdb
 23 25 0 0 0
SMALL
GASTEIGER

@<TRIPOS>ATOM
      1  C3        37.9840    5.1550  125.7850 C.ar  700  W91700      0.1007
      2  C31       37.1250    6.2100  126.3920 C.3   700  W91700      0.0557
      3  C4        39.3410    5.2160  125.4410 C.ar  700  W91700      0.0536
      4  C5        39.6480    4.0150  124.9300 C.ar  700  W91700      0.1542
      5  O1        38.5460    3.2370  124.9490 O.2   700  W91700     -0.3581
      6  N2        37.4840    3.9980  125.5060 N.ar  700  W91700     -0.0817
      7  C1C       40.8840    3.3880  124.3770 C.3   700  W91700      0.0712
      8  C2C       41.2220    2.0550  125.0300 C.3   700  W91700      0.0554
      9  C3C       42.6960    1.9700  125.4370 C.3   700  W91700      0.2059
     10  O1B       43.4480    1.6710  124.2440 O.3   700  W91700     -0.4737
     11  C1B       44.6190    0.9620  124.3250 C.ar  700  W91700      0.1594
     12  C2B       44.6040   -0.4290  124.2100 C.ar  700  W91700      0.0925
     13 CL2        43.1250   -1.2480  123.9500 Cl    700  W91700     -0.0791
     14  C3B       45.7780   -1.1420  124.3170 C.ar  700  W91700      0.0192
     15  C4B       46.9910   -0.4670  124.5370 C.ar  700  W91700      0.0555
     16  C5B       46.9950    0.9150  124.6270 C.ar  700  W91700      0.0192
     17  C6B       45.8280    1.6330  124.5190 C.ar  700  W91700      0.0925
     18 CL1        45.8530    3.3360  124.6560 Cl    700  W91700     -0.0791
     19  C2A       48.2480   -1.1910  124.7000 C.ar  700  W91700      0.2299
     20  N3A       48.4490   -2.6020  124.5880 N.ar  700  W91700     -0.2065
     21  C4A       49.7430   -2.9560  124.8040 C.ar  700  W91700      0.1427
     22  C5A       50.3350   -1.5910  125.0650 C.ar  700  W91700      0.2021
     23  O1A       49.3810   -0.5930  124.9850 O.2   700  W91700     -0.4314
@<TRIPOS>BOND
     1    13    12    1
     2    12    14   ar
     3    12    11   ar
     4    10    11    1
     5    10     9    1
     6    14    15   ar
     7    11    17   ar
     8     7     4    1
     9     7     8    1
    10    17    16   ar
    11    17    18    1
    12    15    16   ar
    13    15    19    1
    14    20    19   ar
    15    20    21   ar
    16    19    23   ar
    17    21    22   ar
    18     4     5   ar
    19     4     3   ar
    20     5     6   ar
    21    23    22   ar
    22     8     9    1
    23     3     1   ar
    24     6     1   ar
    25     1     2    1
