@<TRIPOS>MOLECULE
2hwe_W54_1_1.pdb
 25 27 0 0 0
SMALL
GASTEIGER

@<TRIPOS>ATOM
      1  C31       36.5410    8.2760  127.7270 C.3   500  W54500      0.0557
      2  C3        37.2320    7.1940  126.9710 C.ar  500  W54500      0.1007
      3  C4        38.0750    7.2980  125.8550 C.ar  500  W54500      0.0536
      4  C5        38.4410    6.0450  125.5470 C.ar  500  W54500      0.1541
      5  O1        37.8640    5.1950  126.4210 O.2   500  W54500     -0.3581
      6  N2        37.0890    5.9630  127.3300 N.ar  500  W54500     -0.0817
      7  C1C       39.3000    5.4350  124.5040 C.3   500  W54500      0.0673
      8  C2C       39.7700    4.0320  124.8610 C.3   500  W54500      0.0082
      9  C3C       40.7940    3.4800  123.8780 C.3   500  W54500      0.0043
     10  C4C       41.4940    2.2280  124.3220 C.3   500  W54500      0.0474
     11  C5C       42.9510    2.4360  124.7160 C.3   500  W54500      0.2055
     12  O1B       43.7600    1.7930  123.7110 O.3   500  W54500     -0.4738
     13  C1B       44.9030    1.1190  124.0660 C.ar  500  W54500      0.1594
     14  C2B       46.1350    1.7160  124.3550 C.ar  500  W54500      0.0925
     15 CL1        46.3010    3.4270  124.2810 Cl    500  W54500     -0.0791
     16  C3B       47.2180    0.9290  124.6830 C.ar  500  W54500      0.0192
     17  C4B       47.1010   -0.4540  124.7350 C.ar  500  W54500      0.0555
     18  C5B       45.8610   -1.0440  124.4550 C.ar  500  W54500      0.0192
     19  C6B       44.7790   -0.2650  124.1270 C.ar  500  W54500      0.0925
     20 CL2        43.2670   -1.0080  123.7800 Cl    500  W54500     -0.0791
     21  C2A       48.2540   -1.2920  125.0660 C.ar  500  W54500      0.2299
     22  N3A       49.6040   -0.8420  125.2250 N.ar  500  W54500     -0.2065
     23  C4A       50.4630   -1.8500  125.5280 C.ar  500  W54500      0.1427
     24  C5A       49.4700   -2.9980  125.5400 C.ar  500  W54500      0.2021
     25  O1A       48.1900   -2.5690  125.2540 O.2   500  W54500     -0.4314
@<TRIPOS>BOND
     1    12    13    1
     2    12    11    1
     3    20    19    1
     4     9    10    1
     5     9     8    1
     6    13    19   ar
     7    13    14   ar
     8    19    18   ar
     9    15    14    1
    10    10    11    1
    11    14    16   ar
    12    18    17   ar
    13     7     8    1
    14     7     4    1
    15    16    17   ar
    16    17    21    1
    17    21    22   ar
    18    21    25   ar
    19    22    23   ar
    20    25    24   ar
    21    23    24   ar
    22     4     3   ar
    23     4     5   ar
    24     3     2   ar
    25     5     6   ar
    26     2     6   ar
    27     2     1    1
