@<TRIPOS>MOLECULE
2hwf_JEN_1_1.pdb
 21 23 0 0 0
SMALL
GASTEIGER

@<TRIPOS>ATOM
      1  C1        35.4820    6.9370  125.1170 C.3   700  JEN700      0.2543
      2  O2        36.1840    6.7540  123.8960 O.3   700  JEN700     -0.4552
      3  C3        37.3300    6.0610  123.9280 C.ar  700  JEN700      0.2440
      4  N4        37.3330    4.7820  123.6560 N.ar  700  JEN700     -0.1091
      5  N5        38.5130    4.1100  123.6900 N.ar  700  JEN700     -0.1300
      6  C6        39.6490    4.7380  123.9800 C.ar  700  JEN700      0.1538
      7  C7        39.6570    6.1330  124.2970 C.ar  700  JEN700      0.0410
      8  C8        38.4900    6.7910  124.2580 C.ar  700  JEN700      0.0622
      9  N9        40.8310    4.0340  123.9040 N.pl3 700  JEN700     -0.2883
     10  C10       41.7980    4.3960  122.8740 C.3   700  JEN700      0.1136
     11  C11       43.1480    3.8090  123.1780 C.3   700  JEN700      0.1123
     12  N12       43.0960    2.3580  123.3520 N.pl3 700  JEN700     -0.3041
     13  C13       42.0590    1.9720  124.3230 C.3   700  JEN700      0.1123
     14  C14       40.7370    2.5740  124.0030 C.3   700  JEN700      0.1136
     15  C15       44.3000    1.6460  123.4140 C.ar  700  JEN700      0.0476
     16  C16       44.3570    0.2940  123.7310 C.ar  700  JEN700      0.0103
     17  C17       45.5510   -0.4020  123.8520 C.ar  700  JEN700     -0.0206
     18  C18       46.7340    0.2800  123.6740 C.ar  700  JEN700     -0.0042
     19  C19       46.7110    1.6140  123.3590 C.ar  700  JEN700      0.0009
     20  C20       45.5330    2.2850  123.2130 C.ar  700  JEN700      0.0145
     21  C21       45.5340   -1.8780  124.1740 C.3   700  JEN700      0.0311
@<TRIPOS>BOND
     1    10    11    1
     2    10     9    1
     3    11    12    1
     4    20    19   ar
     5    20    15   ar
     6    12    15    1
     7    12    13    1
     8    19    18   ar
     9    15    16   ar
    10     4     5   ar
    11     4     3   ar
    12    18    17   ar
    13     5     6   ar
    14    16    17   ar
    15    17    21    1
    16     2     3    1
    17     2     1    1
    18     9     6    1
    19     9    14    1
    20     3     8   ar
    21     6     7   ar
    22    14    13    1
    23     8     7   ar
