@<TRIPOS>MOLECULE
2hwh_RNA_A_1.pdb
 24 26 0 0 0
SMALL
GASTEIGER

@<TRIPOS>ATOM
      1  C         10.2660   29.1620   73.4880 C.ar  960  RNA960      0.0357
      2  C1         9.0540   29.6500   73.0310 C.ar  960  RNA960      0.0358
      3  C2         9.3170   30.6330   72.0760 C.ar  960  RNA960      0.1244
      4  O         10.6920   30.7380   71.9500 O.2   960  RNA960     -0.4620
      5  C3        11.2800   29.8380   72.8190 C.ar  960  RNA960      0.1228
      6  C4        12.7710   29.6500   72.9960 C.3   960  RNA960      0.0725
      7  C5         7.3420   32.2730   72.1900 C.3   960  RNA960      0.1806
      8  S          7.8920   33.1020   73.6240 S.3   960  RNA960     -0.0455
      9  C6         6.2730   33.6410   73.8590 C.2   960  RNA960      0.2612
     10  N          5.9200   34.4610   74.9500 N.pl3 960  RNA960     -0.0573
     11  S1         7.0170   35.5440   75.6950 S.O2  960  RNA960      0.0955
     12  C7         7.7240   36.6040   74.5170 C.ar  960  RNA960      0.1271
     13  C8         9.0830   36.4520   74.1650 C.ar  960  RNA960      0.0199
     14  C9         9.6460   37.3330   73.1980 C.ar  960  RNA960     -0.0029
     15  C10        8.8470   38.3550   72.5940 C.ar  960  RNA960     -0.0218
     16  C11        7.4730   38.4870   72.9670 C.ar  960  RNA960     -0.0029
     17  C12        6.9090   37.6090   73.9340 C.ar  960  RNA960      0.0199
     18  C13        9.4490   39.3100   71.5560 C.3   960  RNA960      0.0310
     19  O14        8.1280   34.6370   76.3790 O.2   960  RNA960     -0.1482
     20  O1         6.2550   36.3670   76.8210 O.2   960  RNA960     -0.1482
     21  C15        5.9910   32.4520   71.9920 C.1   960  RNA960      0.1921
     22  N1         5.3720   33.2280   72.9310 N.2   960  RNA960     -0.3105
     23  O2         5.2980   31.9020   70.9300 O.2   960  RNA960     -0.2132
     24  C16        8.3090   31.4590   71.3000 C.3   960  RNA960      0.0936
@<TRIPOS>BOND
     1    23    21    2
     2    24     3    1
     3    24     7    1
     4    18    15    1
     5     4     3   ar
     6     4     5   ar
     7    21     7    1
     8    21    22    2
     9     3     2   ar
    10     7     8    1
    11    15    16   ar
    12    15    14   ar
    13     5     6    1
    14     5     1   ar
    15    22     9    2
    16    16    17   ar
    17     2     1   ar
    18    14    13   ar
    19     8     9    1
    20     9    10    1
    21    17    12   ar
    22    13    12   ar
    23    12    11    1
    24    10    11    1
    25    11    19    2
    26    11    20    2
