@<TRIPOS>MOLECULE
2hwi_VRX_A_1.pdb
 26 28 0 0 0
SMALL
GASTEIGER

@<TRIPOS>ATOM
      1  C1         9.5050   36.6530   76.2440 C.ar  600  VRX600      0.0002
      2  C2        10.3280   37.3950   75.3650 C.ar  600  VRX600      0.0294
      3  C3         9.7640   38.3840   74.5220 C.ar  600  VRX600      0.1401
      4  C4         8.3630   38.5840   74.5000 C.ar  600  VRX600      0.0294
      5  C5         7.5190   37.7950   75.3320 C.ar  600  VRX600      0.0002
      6  C6         8.0850   36.8340   76.2360 C.ar  600  VRX600      0.0084
      7  F         10.5820   39.1600   73.7560 F     600  VRX600     -0.2042
      8  C8         7.1750   35.9860   77.1850 C.3   600  VRX600      0.2202
      9  C9         6.5690   36.9180   78.2590 C.2   600  VRX600      0.3884
     10  O10        5.3080   37.3670   77.9640 O.co2 600  VRX600     -0.2434
     11  O11        7.1580   37.2340   79.2790 O.co2 600  VRX600     -0.2434
     12  N12        6.1020   35.2110   76.4660 N.pl3 600  VRX600     -0.1889
     13  C13        6.3700   34.0990   75.6060 C.2   600  VRX600      0.2447
     14  S14        7.9640   33.5430   75.2530 S.3   600  VRX600     -0.0248
     15  C15        7.3000   32.3270   74.2520 C.2   600  VRX600      0.1306
     16  C16        5.8080   32.3890   74.2370 C.1   600  VRX600      0.2128
     17  N17        5.3580   33.4400   75.0340 N.2   600  VRX600     -0.3086
     18  O18        5.0890   31.6280   73.6130 O.2   600  VRX600     -0.2087
     19  C19        8.1610   31.3270   73.4920 C.2   600  VRX600      0.0568
     20  C20        9.6660   31.1930   73.4490 C.ar  600  VRX600      0.1462
     21  C21       10.6040   31.7100   74.3380 C.ar  600  VRX600      0.0403
     22  C22       11.8550   31.3140   73.9120 C.ar  600  VRX600      0.0361
     23  C23       11.6960   30.5450   72.7700 C.ar  600  VRX600      0.1228
     24  O24       10.3500   30.4890   72.4930 O.2   600  VRX600     -0.4577
     25  C25       12.7710   29.8600   71.9420 C.3   600  VRX600      0.0645
     26  C26       13.1250   30.6360   70.6690 C.3   600  VRX600      0.0084
@<TRIPOS>BOND
     1    26    25    1
     2    25    23    1
     3    24    23   ar
     4    24    20   ar
     5    23    22   ar
     6    20    19    1
     7    20    21   ar
     8    19    15    2
     9    18    16    2
    10     7     3    1
    11    22    21   ar
    12    16    15    1
    13    16    17    2
    14    15    14    1
    15     4     3   ar
    16     4     5   ar
    17     3     2   ar
    18    17    13    2
    19    14    13    1
    20     5     6   ar
    21     2     1   ar
    22    13    12    1
    23     6     1   ar
    24     6     8    1
    25    12     8    1
    26     8     9    1
    27    10     9   ar
    28     9    11   ar
