@<TRIPOS>MOLECULE
2hwo_RBS_A_1.pdb
 22 24 0 0 0
SMALL
GASTEIGER

@<TRIPOS>ATOM
      1  O61        6.1730   -7.9010   -2.1520 O.2   1345  RBS1345    -0.2730
      2  C10        6.8600   -8.5610   -1.3850 C.2   1345  RBS1345     0.2455
      3  C11        6.2970   -9.0460   -0.0510 C.3   1345  RBS1345     0.0872
      4  C51        6.3980   -7.9910    1.0580 C.3   1345  RBS1345     0.0101
      5  N11        8.1570   -8.8160   -1.5890 N.am  1345  RBS1345    -0.1795
      6  C9         8.9280   -8.2930   -2.5920 C.2   1345  RBS1345     0.0698
      7  C8         8.4280   -7.4440   -3.5960 C.2   1345  RBS1345     0.0250
      8  C13       10.2850   -8.6390   -2.6050 C.2   1345  RBS1345    -0.0032
      9  C17       11.1260   -8.1470   -3.6050 C.3   1345  RBS1345     0.0731
     10  C18       10.6190   -7.2970   -4.5910 C.2   1345  RBS1345     0.0699
     11  C7         9.2680   -6.9460   -4.5970 C.2   1345  RBS1345     0.1008
     12  C6         8.8020   -6.0940   -5.6130 C.2   1345  RBS1345     0.3642
     13  N3         9.6790   -5.6540   -6.5430 N.2   1345  RBS1345    -0.0327
     14  C19       10.9710   -6.0120   -6.5100 C.3   1345  RBS1345     0.3917
     15  N2        11.4450   -6.8140   -5.5520 N.2   1345  RBS1345    -0.2225
     16  N1         7.4870   -5.7290   -5.6620 N.pl3 1345  RBS1345    -0.0060
     17  C5         6.8700   -4.9190   -6.5640 C.ar  1345  RBS1345     0.1834
     18  C4         7.5360   -4.3370   -7.6400 C.ar  1345  RBS1345     0.0444
     19  C20        5.5100   -4.6720   -6.3790 C.ar  1345  RBS1345     0.0444
     20  C21        4.8080   -3.8610   -7.2720 C.ar  1345  RBS1345     0.0036
     21  C22        5.4770   -3.2840   -8.3550 C.ar  1345  RBS1345     0.0002
     22  C3         6.8460   -3.5160   -8.5290 C.ar  1345  RBS1345     0.0036
@<TRIPOS>BOND
     1    22    21   ar
     2    22    18   ar
     3    21    20   ar
     4    18    17   ar
     5    20    19   ar
     6    17    19   ar
     7    17    16    1
     8    13    14    1
     9    13    12    2
    10    14    15    1
    11    16    12    1
    12    12    11    1
    13    15    10    2
    14    11    10    1
    15    11     7    2
    16    10     9    1
    17     9     8    1
    18     7     6    1
    19     8     6    2
    20     6     5    1
    21     1     2    2
    22     5     2   am
    23     2     3    1
    24     3     4    1
