@<TRIPOS>MOLECULE
2hwp_DJK_A_1.pdb
 23 25 0 0 0
SMALL
GASTEIGER

@<TRIPOS>ATOM
      1  C51        7.4010  -39.3000   23.5400 C.3   1345  DJK1345     0.0101
      2  C11        7.0390  -40.1490   24.7660 C.3   1345  DJK1345     0.0872
      3  C10        7.0490  -39.3530   26.0660 C.2   1345  DJK1345     0.2456
      4  O61        8.1150  -38.9660   26.5150 O.2   1345  DJK1345    -0.2730
      5  N11        5.8630  -39.0360   26.6180 N.am  1345  DJK1345    -0.1792
      6  C9         5.6530  -38.3630   27.8010 C.2   1345  DJK1345     0.0737
      7  C8         6.6780  -37.9240   28.6680 C.2   1345  DJK1345     0.0256
      8  C13        4.3280  -38.0910   28.1500 C.2   1345  DJK1345     0.0181
      9  C17        4.0160  -37.4200   29.3280 C.2   1345  DJK1345     0.0204
     10  C18        5.0300  -36.9980   30.1830 C.2   1345  DJK1345     0.0878
     11  C7         6.3710  -37.2390   29.8650 C.2   1345  DJK1345     0.1045
     12  C6         7.3590  -36.7880   30.7600 C.2   1345  DJK1345     0.3645
     13  N3         6.9850  -36.1430   31.8890 N.2   1345  DJK1345    -0.0327
     14  C19        5.6860  -35.9240   32.1570 C.3   1345  DJK1345     0.3920
     15  N2         4.7160  -36.3430   31.3250 N.2   1345  DJK1345    -0.2184
     16  N1         8.6780  -37.0040   30.4980 N.pl3 1345  DJK1345    -0.0060
     17  C5         9.7740  -36.6500   31.2500 C.ar  1345  DJK1345     0.1839
     18  C4         9.7060  -35.9580   32.4710 C.ar  1345  DJK1345     0.0511
     19  C20       11.0330  -37.0020   30.7420 C.ar  1345  DJK1345     0.0444
     20  C21       12.2150  -36.6830   31.4180 C.ar  1345  DJK1345     0.0041
     21  C22       12.1410  -36.0050   32.6340 C.ar  1345  DJK1345     0.0069
     22  C3        10.8920  -35.6360   33.1570 C.ar  1345  DJK1345     0.0381
     23 BR         10.8570  -34.6920   34.8080 Br    1345  DJK1345    -0.0489
@<TRIPOS>BOND
     1     1     2    1
     2     2     3    1
     3     3     4    2
     4     3     5    1
     5     5     6    2
     6     6     8    1
     7     6     7    1
     8     8     9    2
     9     7    11    2
    10     9    10    1
    11    11    10    1
    12    11    12    1
    13    10    15    2
    14    16    12    1
    15    16    17    1
    16    19    17   ar
    17    19    20   ar
    18    12    13    2
    19    17    18   ar
    20    15    14    1
    21    20    21   ar
    22    13    14    1
    23    18    22   ar
    24    21    22   ar
    25    22    23    1
