@<TRIPOS>MOLECULE
2hwq_DRY_A_1.pdb
 39 43 0 0 0
SMALL
GASTEIGER

@<TRIPOS>ATOM
      1  CAO      -32.8770    7.9420   44.0210 C.ar  1101  DRY1101     0.0032
      2  CAR      -33.0220    8.8130   45.0980 C.ar  1101  DRY1101     0.0001
      3  CAQ      -33.8650    8.4720   46.1530 C.ar  1101  DRY1101     0.0000
      4  CAP      -34.5630    7.2620   46.1340 C.ar  1101  DRY1101     0.0001
      5  CAS      -34.4150    6.3900   45.0570 C.ar  1101  DRY1101     0.0032
      6  CAT      -33.5750    6.7290   43.9950 C.ar  1101  DRY1101     0.0390
      7  CAU      -33.3690    5.7710   42.8140 C.2   1101  DRY1101     0.1955
      8  OBH      -32.2200    5.3530   42.6030 O.2   1101  DRY1101    -0.2866
      9  CAV      -34.5020    5.2790   41.8890 C.ar  1101  DRY1101     0.0390
     10  CBA      -35.8240    5.1010   42.3030 C.ar  1101  DRY1101     0.0032
     11  CAW      -34.1510    4.9540   40.5750 C.ar  1101  DRY1101     0.0032
     12  CAZ      -35.0950    4.4450   39.6910 C.ar  1101  DRY1101    -0.0001
     13  CAY      -36.4110    4.2500   40.1030 C.ar  1101  DRY1101    -0.0011
     14  CBD      -37.3310    3.7050   39.1920 C.ar  1101  DRY1101     0.0118
     15  CBE      -36.9210    3.3280   37.7470 C.3   1101  DRY1101     0.0294
     16  CBF      -36.9530    4.6170   36.8190 C.3   1101  DRY1101     0.0048
     17  CBG      -36.8350    4.1770   35.3520 C.3   1101  DRY1101     0.0004
     18  CAX      -36.7750    4.5870   41.4120 C.ar  1101  DRY1101    -0.0000
     19  CBB      -38.0890    4.3830   41.8280 C.ar  1101  DRY1101     0.0031
     20  CBC      -39.0160    3.8400   40.9370 C.ar  1101  DRY1101     0.0366
     21  CAE      -38.6460    3.5030   39.6350 C.ar  1101  DRY1101     0.1345
     22  OAD      -39.5390    2.9620   38.7510 O.3   1101  DRY1101    -0.4757
     23  CAC      -40.9200    3.1860   39.1180 C.3   1101  DRY1101     0.2074
     24  CAB      -41.7760    3.3390   37.8490 C.3   1101  DRY1101     0.0718
     25  CAA      -42.1590    4.8040   37.6030 C.3   1101  DRY1101     0.1099
     26  NAM      -41.3370    5.3950   36.5390 N.ar  1101  DRY1101    -0.3259
     27  CAN      -40.7920    4.7180   35.5280 C.ar  1101  DRY1101     0.0759
     28  CAF      -40.1150    5.5760   34.7640 C.ar  1101  DRY1101     0.0202
     29  CAG      -40.2380    6.7960   35.2920 C.ar  1101  DRY1101     0.0203
     30  CAL      -39.7440    8.0370   34.9080 C.ar  1101  DRY1101     0.0384
     31  CAH      -41.0290    6.6820   36.4390 C.ar  1101  DRY1101     0.0601
     32  CAK      -41.3280    7.8140   37.2040 C.ar  1101  DRY1101     0.0203
     33  CAJ      -40.8350    9.0590   36.8170 C.ar  1101  DRY1101     0.0384
     34  CAI      -40.0420    9.1730   35.6720 C.ar  1101  DRY1101     0.1395
     35  OBI      -39.5610   10.3930   35.3000 O.3   1101  DRY1101    -0.4637
     36  CBJ      -38.3730   10.2540   34.4670 C.3   1101  DRY1101     0.3186
     37  CBK      -37.9200   11.6610   34.0250 C.2   1101  DRY1101     0.4084
     38  OBM      -38.5890   12.6690   34.3940 O.co2 1101  DRY1101    -0.2415
     39  OBL      -36.8960   11.7350   33.3110 O.co2 1101  DRY1101    -0.2415
@<TRIPOS>BOND
     1    39    37   ar
     2    37    38   ar
     3    37    36    1
     4    36    35    1
     5    28    29   ar
     6    28    27   ar
     7    30    29   ar
     8    30    34   ar
     9    29    31   ar
    10    35    34    1
    11    17    16    1
    12    27    26   ar
    13    34    33   ar
    14    31    26   ar
    15    31    32   ar
    16    26    25    1
    17    33    32   ar
    18    16    15    1
    19    25    24    1
    20    15    14    1
    21    24    23    1
    22    22    23    1
    23    22    21    1
    24    14    21   ar
    25    14    13   ar
    26    21    20   ar
    27    12    13   ar
    28    12    11   ar
    29    13    18   ar
    30    11     9   ar
    31    20    19   ar
    32    18    19   ar
    33    18    10   ar
    34     9    10   ar
    35     9     7    1
    36     8     7    2
    37     7     6    1
    38     6     1   ar
    39     6     5   ar
    40     1     2   ar
    41     5     4   ar
    42     2     3   ar
    43     4     3   ar
