@<TRIPOS>MOLECULE
2hwr_DRD_A_1.pdb
 41 45 0 0 0
SMALL
GASTEIGER

@<TRIPOS>ATOM
      1  CAV       33.7670   -5.5020   46.1750 C.ar  101  DRD101      0.0032
      2  CAY       34.1890   -5.9460   47.4300 C.ar  101  DRD101      0.0001
      3  CAX       34.4270   -7.3060   47.6070 C.ar  101  DRD101      0.0000
      4  CAW       34.2360   -8.1990   46.5490 C.ar  101  DRD101      0.0001
      5  CAZ       33.8130   -7.7490   45.3040 C.ar  101  DRD101      0.0032
      6  CBA       33.5850   -6.3880   45.1040 C.ar  101  DRD101      0.0390
      7  CBB       33.1100   -5.8560   43.7290 C.2   101  DRD101      0.1955
      8  OBO       31.9170   -5.9300   43.4410 O.2   101  DRD101     -0.2866
      9  CBC       34.0800   -5.2000   42.7190 C.ar  101  DRD101      0.0390
     10  CBH       35.4440   -5.0220   42.9970 C.ar  101  DRD101      0.0032
     11  CBD       33.5720   -4.7620   41.4920 C.ar  101  DRD101      0.0032
     12  CBG       34.4070   -4.1600   40.5530 C.ar  101  DRD101     -0.0001
     13  CBF       35.7710   -3.9650   40.8070 C.ar  101  DRD101     -0.0011
     14  CBK       36.6060   -3.3490   39.8360 C.ar  101  DRD101      0.0118
     15  CBL       36.0740   -2.8540   38.4610 C.3   101  DRD101      0.0294
     16  CBM       35.9660   -4.0050   37.4420 C.3   101  DRD101      0.0048
     17  CBN       35.4310   -3.5480   36.0750 C.3   101  DRD101      0.0004
     18  CBE       36.2810   -4.4100   42.0470 C.ar  101  DRD101     -0.0000
     19  CBI       37.6340   -4.2430   42.3400 C.ar  101  DRD101      0.0031
     20  CBJ       38.4710   -3.6350   41.4020 C.ar  101  DRD101      0.0366
     21  CAE       37.9740   -3.1960   40.1640 C.ar  101  DRD101      0.1345
     22  OAD       38.8520   -2.6030   39.2830 O.3   101  DRD101     -0.4757
     23  CAC       39.4980   -3.5280   38.3420 C.3   101  DRD101      0.2074
     24  CAB       40.9230   -3.0840   37.9350 C.3   101  DRD101      0.0718
     25  CAA       41.6840   -4.1510   37.1210 C.3   101  DRD101      0.1099
     26  NAT       40.8250   -5.0770   36.3090 N.ar  101  DRD101     -0.3258
     27  CAU       40.0650   -4.7670   35.2420 C.ar  101  DRD101      0.0760
     28  CAM       39.4470   -5.8660   34.7880 C.ar  101  DRD101      0.0231
     29  CAN       39.8260   -6.8880   35.5640 C.ar  101  DRD101      0.0512
     30  CAO       40.7100   -6.3830   36.5320 C.ar  101  DRD101      0.0629
     31  CAR       41.2750   -7.2240   37.4900 C.ar  101  DRD101      0.0174
     32  CAQ       40.9670   -8.5740   37.4870 C.ar  101  DRD101      0.0046
     33  CAP       40.0900   -9.0760   36.5290 C.ar  101  DRD101      0.0370
     34  CAS       39.5060   -8.2520   35.5580 C.ar  101  DRD101      0.1403
     35  OAF       38.6460   -8.7160   34.5860 O.3   101  DRD101     -0.4718
     36  CAG       38.1900  -10.1060   34.3230 C.3   101  DRD101      0.2253
     37  CAL       36.8340  -10.2750   35.0100 C.3   101  DRD101      0.0554
     38  CAK       39.1250  -11.2070   34.8220 C.3   101  DRD101      0.0554
     39  CAH       38.0360  -10.2480   32.7520 C.2   101  DRD101      0.4000
     40  OAJ       38.5860  -11.2390   32.1910 O.co2 101  DRD101     -0.2418
     41  OAI       37.3830   -9.3520   32.1330 O.co2 101  DRD101     -0.2418
@<TRIPOS>BOND
     1    41    39   ar
     2    40    39   ar
     3    39    36    1
     4    36    35    1
     5    36    38    1
     6    36    37    1
     7    35    34    1
     8    28    27   ar
     9    28    29   ar
    10    27    26   ar
    11    34    29   ar
    12    34    33   ar
    13    29    30   ar
    14    17    16    1
    15    26    30   ar
    16    26    25    1
    17    33    32   ar
    18    30    31   ar
    19    25    24    1
    20    16    15    1
    21    32    31   ar
    22    24    23    1
    23    23    22    1
    24    15    14    1
    25    22    21    1
    26    14    21   ar
    27    14    13   ar
    28    21    20   ar
    29    12    13   ar
    30    12    11   ar
    31    13    18   ar
    32    20    19   ar
    33    11     9   ar
    34    18    19   ar
    35    18    10   ar
    36     9    10   ar
    37     9     7    1
    38     8     7    2
    39     7     6    1
    40     6     5   ar
    41     6     1   ar
    42     5     4   ar
    43     1     2   ar
    44     4     3   ar
    45     2     3   ar
