@<TRIPOS>MOLECULE
2hwu_URI_A_1.pdb
 17 18 0 0 0
SMALL
GASTEIGER

@<TRIPOS>ATOM
      1  N1         7.7820   25.3670   54.9440 N.am  201  URI201     -0.1766
      2  C2         8.1810   24.2690   55.7600 C.1   201  URI201      0.2845
      3  N3         9.4570   23.8210   55.7120 N.2   201  URI201     -0.2452
      4  C4        10.3750   24.3950   54.9030 C.1   201  URI201      0.2182
      5  C5        10.0060   25.4720   54.1020 C.2   201  URI201      0.1242
      6  C6         8.6950   25.9380   54.1420 C.2   201  URI201      0.0929
      7  O2         7.3950   23.6850   56.5340 O.2   201  URI201     -0.1918
      8  O4        11.5490   23.9590   54.8800 O.2   201  URI201     -0.2085
      9  C1'        6.4230   25.9480   54.9070 C.3   201  URI201      0.2401
     10  C2'        5.3420   25.1660   55.6470 C.3   201  URI201      0.2319
     11  C3'        4.7080   26.1400   56.6220 C.3   201  URI201      0.2159
     12  C4'        5.4830   27.4370   56.4920 C.3   201  URI201      0.1829
     13  O2'        4.3710   24.6670   54.7220 O.3   201  URI201     -0.2157
     14  O3'        3.3430   26.3800   56.2770 O.3   201  URI201     -0.2175
     15  O4'        6.4670   27.2610   55.4720 O.3   201  URI201     -0.3318
     16  C5'        6.1820   27.8060   57.7900 C.3   201  URI201      0.2142
     17  O5'        7.3410   28.5860   57.4710 O.3   201  URI201     -0.2176
@<TRIPOS>BOND
     1     5     6    2
     2     5     4    1
     3     6     1    1
     4    13    10    1
     5     8     4    2
     6     4     3    2
     7     9     1    1
     8     9    15    1
     9     9    10    1
    10     1     2   am
    11    15    12    1
    12    10    11    1
    13     3     2    2
    14     2     7    2
    15    14    11    1
    16    12    11    1
    17    12    16    1
    18    17    16    1
