@<TRIPOS>MOLECULE
2hx2_3HX_A_1.pdb
 18 17 0 0 0
SMALL
GASTEIGER

@<TRIPOS>ATOM
      1  NO         7.3350   10.9520   29.4250 N.pl3 793  3HX793      0.2221
      2  O2         8.1920   10.6400   28.5460 O.2   793  3HX793     -0.0910
      3  O3         6.0970   10.7640   29.1920 O.2   793  3HX793     -0.0910
      4  N         11.8860   14.4140   35.6580 N.3   793  3HX793     -0.1314
      5  CA        11.5930   13.8000   34.3240 C.3   793  3HX793      0.1103
      6  C         12.9270   13.3240   33.6360 C.3   793  3HX793      0.1230
      7  CB        10.7980   14.8810   33.5020 C.3   793  3HX793      0.0242
      8  CG         9.3010   14.5490   33.2750 C.3   793  3HX793      0.0485
      9  CD         9.0150   13.2830   32.4420 C.3   793  3HX793      0.2204
     10  NE         7.5200   13.0130   32.3910 N.pl3 793  3HX793     -0.0874
     11  CZ         6.9850   12.1550   31.5240 C.cat 793  3HX793      0.5245
     12  NH1        7.7860   11.4680   30.6290 N.pl3 793  3HX793      0.1075
     13  NH2        5.6240   11.9900   31.5630 N.pl3 793  3HX793      0.1343
     14  NA        14.0450   14.3070   33.5260 N.4   793  3HX793     -0.1300
     15  O1'       13.8770   15.5720   32.9280 O.3   793  3HX793     -0.1179
     16  NB        17.0520   14.8530   35.6970 N.3   793  3HX793     -0.1298
     17  C1'       15.3710   13.8390   34.0520 C.3   793  3HX793      0.1245
     18  C2'       16.4140   14.9540   34.3350 C.3   793  3HX793      0.1292
@<TRIPOS>BOND
     1     2     1    2
     2     3     1    2
     3     1    12    1
     4    12    11    1
     5    11    13    2
     6    11    10    1
     7    10     9    1
     8     9     8    1
     9    15    14    1
    10     8     7    1
    11     7     5    1
    12    14     6    1
    13    14    17    1
    14     6     5    1
    15    17    18    1
    16     5     4    1
    17    18    16    1
