@<TRIPOS>MOLECULE
2hx2_H4B_A_1.pdb
 17 18 0 0 0
SMALL
GASTEIGER

@<TRIPOS>ATOM
      1  N1         8.3820   11.7680   42.7260 N.2   760  H4B760     -0.2683
      2  C2         8.2910   12.1060   41.4310 C.1   760  H4B760      0.2608
      3  N2         7.4800   11.4800   40.5830 N.pl3 760  H4B760     -0.0220
      4  N3         9.0660   13.1280   40.9890 N.2   760  H4B760     -0.2474
      5  C4         9.9710   13.8740   41.7900 C.1   760  H4B760      0.2441
      6  O4        10.6280   14.7980   41.2640 O.2   760  H4B760     -0.2063
      7  C4A       10.0120   13.4540   43.1350 C.2   760  H4B760      0.2463
      8  C8A        9.2250   12.4140   43.6100 C.1   760  H4B760      0.1270
      9  N5        10.9210   14.1610   44.0360 N.2   760  H4B760     -0.2460
     10  N8         9.2540   12.0080   44.8770 N.2   760  H4B760     -0.2054
     11  C6        11.3890   13.2820   45.2080 C.3   760  H4B760      0.1627
     12  C7        10.1460   12.6570   45.8640 C.3   760  H4B760      0.1643
     13  C9        12.2420   14.1960   46.1330 C.3   760  H4B760      0.2063
     14  O9        11.5690   15.4250   46.4380 O.3   760  H4B760     -0.2183
     15  C10       12.5950   13.5100   47.4770 C.3   760  H4B760      0.1842
     16  C11       13.5670   14.3240   48.2800 C.3   760  H4B760      0.0383
     17  O10       13.1710   12.2390   47.1200 O.3   760  H4B760     -0.2204
@<TRIPOS>BOND
     1     3     2    1
     2     4     2    2
     3     4     5    2
     4     6     5    2
     5     2     1    2
     6     5     7    1
     7     1     8    2
     8     7     8    1
     9     7     9    2
    10     8    10    2
    11     9    11    1
    12    10    12    1
    13    11    12    1
    14    11    13    1
    15    13    14    1
    16    13    15    1
    17    17    15    1
    18    15    16    1
