@<TRIPOS>MOLECULE
2hx2_HEM_A_1.pdb
 43 50 0 0 0
SMALL
GASTEIGER

@<TRIPOS>ATOM
      1  CHA        9.2490    9.0670   34.9910 C.2   700  HEM700      0.0000
      2  CHB        4.6170    9.1160   33.5040 C.2   700  HEM700      0.0000
      3  CHC        6.1120    7.3110   29.2500 C.2   700  HEM700      0.0000
      4  CHD       10.5420    6.6170   31.0140 C.2   700  HEM700      0.0000
      5  C1A        7.8510    9.2800   34.9270 C.2   700  HEM700      0.0000
      6  C2A        7.0980   10.0870   35.8630 C.2   700  HEM700      0.0000
      7  C3A        5.7960   10.0920   35.4770 C.2   700  HEM700      0.0000
      8  C4A        5.7490    9.2960   34.2740 C.2   700  HEM700      0.0000
      9  CMA        4.6070   10.7370   36.1920 C.3   700  HEM700      0.0000
     10  CAA        7.7240   10.9180   37.0090 C.3   700  HEM700      0.0000
     11  CBA        8.2630   12.1710   36.3520 C.3   700  HEM700      0.0000
     12  CGA        8.6860   13.2300   37.3490 C.2   700  HEM700      0.0000
     13  O1A        8.1550   13.2250   38.4900 O.co2 700  HEM700      0.0000
     14  O2A        9.5380   14.0760   36.9810 O.co2 700  HEM700      0.0000
     15  C1B        4.6060    8.5250   32.2420 C.ar  700  HEM700      0.0000
     16  C2B        3.4470    8.4700   31.3960 C.ar  700  HEM700      0.0000
     17  C3B        3.8320    7.9220   30.2130 C.ar  700  HEM700      0.0000
     18  C4B        5.2730    7.6960   30.3220 C.ar  700  HEM700      0.0000
     19  CMB        2.0410    8.9830   31.7320 C.3   700  HEM700      0.0000
     20  CAB        2.9940    7.7540   29.0990 C.3   700  HEM700      0.0000
     21  CBB        3.1140    6.8250   28.0800 C.3   700  HEM700      0.0000
     22  C1C        7.4750    7.0650   29.3350 C.2   700  HEM700      0.0000
     23  C2C        8.3020    6.6270   28.2410 C.2   700  HEM700      0.0000
     24  C3C        9.5400    6.3180   28.7510 C.2   700  HEM700      0.0000
     25  C4C        9.4580    6.6190   30.1660 C.2   700  HEM700      0.0000
     26  CMC        7.8990    6.5710   26.7680 C.3   700  HEM700      0.0000
     27  CAC       10.6920    5.8350   28.0930 C.2   700  HEM700      0.0000
     28  CBC       10.7330    5.0490   26.9700 C.2   700  HEM700      0.0000
     29  C1D       10.5580    7.1470   32.3120 C.ar  700  HEM700      0.0000
     30  C2D       11.7420    7.2820   33.1160 C.ar  700  HEM700      0.0000
     31  C3D       11.4100    8.0660   34.1850 C.ar  700  HEM700      0.0000
     32  C4D        9.9860    8.3030   34.1020 C.ar  700  HEM700      0.0000
     33  CMD       13.1240    6.6570   32.8530 C.3   700  HEM700      0.0000
     34  CAD       12.3470    8.6270   35.2570 C.3   700  HEM700      0.0000
     35  CBD       12.8990   10.0060   34.9010 C.3   700  HEM700      0.0000
     36  CGD       13.6700   10.6400   36.0410 C.2   700  HEM700      0.0000
     37  O1D       14.1780    9.8920   36.9050 O.co2 700  HEM700      0.0000
     38  O2D       13.7760   11.8910   36.0670 O.co2 700  HEM700      0.0000
     39  NA         7.0190    8.7960   33.9410 N.2   700  HEM700      0.0000
     40  NB         5.7300    7.9960   31.6080 N.ar  700  HEM700      0.0000
     41  NC         8.1760    7.0840   30.5300 N.2   700  HEM700      0.0000
     42  ND         9.4480    7.7060   32.9400 N.ar  700  HEM700      0.0000
     43 FE          7.5260    7.5930   32.3840 Fe    700  HEM700      0.0000
@<TRIPOS>BOND
     1    26    23    1
     2    28    27    2
     3    21    20    1
     4    27    24    1
     5    23    24    2
     6    23    22    1
     7    24    25    1
     8    20    17    1
     9     3    22    2
    10     3    18    1
    11    22    41    1
    12    25    41    2
    13    25     4    1
    14    17    18   ar
    15    17    16   ar
    16    18    40   ar
    17    41    43    1
    18     4    29    2
    19    16    19    1
    20    16    15   ar
    21    40    15   ar
    22    40    43    1
    23    15     2    1
    24    29    42   ar
    25    29    30   ar
    26    43    42    1
    27    43    39    1
    28    33    30    1
    29    42    32   ar
    30    30    31   ar
    31     2     8    2
    32    39     8    1
    33    39     5    2
    34    32    31   ar
    35    32     1    2
    36    31    34    1
    37     8     7    1
    38    35    34    1
    39    35    36    1
    40     5     1    1
    41     5     6    1
    42     7     6    2
    43     7     9    1
    44     6    10    1
    45    36    38   ar
    46    36    37   ar
    47    11    10    1
    48    11    12    1
    49    14    12   ar
    50    12    13   ar
