@<TRIPOS>MOLECULE
2hx3_3HX_A_1.pdb
 18 17 0 0 0
SMALL
GASTEIGER

@<TRIPOS>ATOM
      1  NO        14.8920    1.4470   21.2390 N.pl3 793  3HX793      0.2221
      2  O2        14.6220    2.1340   20.1970 O.2   793  3HX793     -0.0910
      3  O3        15.9440    0.7250   21.2700 O.2   793  3HX793     -0.0910
      4  N          9.6550   -1.9290   25.7390 N.3   793  3HX793     -0.1314
      5  CA         9.4010   -0.6690   24.9660 C.3   793  3HX793      0.1103
      6  C          7.8630   -0.4830   24.7590 C.3   793  3HX793      0.1230
      7  CB        10.1930   -0.8160   23.6270 C.3   793  3HX793      0.0242
      8  CG        10.5430    0.5320   22.9890 C.3   793  3HX793      0.0485
      9  CD        11.6230    1.3130   23.7620 C.3   793  3HX793      0.2204
     10  NE        12.8190    0.4180   24.0030 N.pl3 793  3HX793     -0.0874
     11  CZ        13.9260    0.5600   23.2950 C.cat 793  3HX793      0.5245
     12  NH1       14.0210    1.5240   22.3250 N.pl3 793  3HX793      0.1075
     13  NH2       14.9520   -0.2840   23.5720 N.pl3 793  3HX793      0.1343
     14  NA         7.2310    0.5890   25.5630 N.4   793  3HX793     -0.1300
     15  O1'        7.8060    1.8740   25.7030 O.3   793  3HX793     -0.1179
     16  NB         5.0750    1.8900   27.9400 N.3   793  3HX793     -0.1298
     17  C1'        5.9230    0.2140   26.2120 C.3   793  3HX793      0.1245
     18  C2'        4.9680    1.3930   26.5240 C.3   793  3HX793      0.1292
@<TRIPOS>BOND
     1     2     1    2
     2     1     3    2
     3     1    12    1
     4    12    11    1
     5     8     7    1
     6     8     9    1
     7    11    13    2
     8    11    10    1
     9     7     5    1
    10     9    10    1
    11     6     5    1
    12     6    14    1
    13     5     4    1
    14    14    15    1
    15    14    17    1
    16    17    18    1
    17    18    16    1
