@<TRIPOS>MOLECULE
2hx3_H4B_A_1.pdb
 17 18 0 0 0
SMALL
GASTEIGER

@<TRIPOS>ATOM
      1  N1        10.2170    2.5630   33.8470 N.2   760  H4B760     -0.2683
      2  C2        10.4070    2.1730   32.5570 C.1   760  H4B760      0.2608
      3  N2        11.6200    2.0800   32.0070 N.pl3 760  H4B760     -0.0220
      4  N3         9.2940    1.8650   31.8130 N.2   760  H4B760     -0.2474
      5  C4         7.9520    1.9210   32.2840 C.1   760  H4B760      0.2441
      6  O4         7.0120    1.6160   31.5300 O.2   760  H4B760     -0.2063
      7  C4A        7.8450    2.3420   33.6160 C.2   760  H4B760      0.2463
      8  C8A        8.9640    2.6560   34.4100 C.1   760  H4B760      0.1270
      9  N5         6.4930    2.4370   34.1680 N.2   760  H4B760     -0.2460
     10  N8         8.8530    3.0430   35.6940 N.2   760  H4B760     -0.2054
     11  C6         6.4210    3.4410   35.3310 C.3   760  H4B760      0.1627
     12  C7         7.5350    3.1440   36.3290 C.3   760  H4B760      0.1643
     13  C9         4.9950    3.3510   35.8910 C.3   760  H4B760      0.2063
     14  O9         4.6650    2.0350   36.3010 O.3   760  H4B760     -0.2183
     15  C10        4.7900    4.2900   37.0970 C.3   760  H4B760      0.1842
     16  C11        3.3670    4.2580   37.5730 C.3   760  H4B760      0.0383
     17  O10        5.1610    5.6040   36.6250 O.3   760  H4B760     -0.2204
@<TRIPOS>BOND
     1     6     5    2
     2     4     5    2
     3     4     2    2
     4     3     2    1
     5     5     7    1
     6     2     1    2
     7     7     9    2
     8     7     8    1
     9     1     8    2
    10     9    11    1
    11     8    10    2
    12    11    13    1
    13    11    12    1
    14    10    12    1
    15    13    14    1
    16    13    15    1
    17    17    15    1
    18    15    16    1
