@<TRIPOS>MOLECULE
2hx3_HEM_A_1.pdb
 43 50 0 0 0
SMALL
GASTEIGER

@<TRIPOS>ATOM
      1  CHA       13.0420    4.6100   26.4280 C.2   750  HEM750      0.0000
      2  CHB       16.8220    1.6020   25.9460 C.2   750  HEM750      0.0000
      3  CHC       17.7650    3.6180   21.6280 C.2   750  HEM750      0.0000
      4  CHD       14.4910    7.1300   22.5760 C.2   750  HEM750      0.0000
      5  C1A       13.9110    3.5510   26.5740 C.2   750  HEM750      0.0000
      6  C2A       13.7490    2.5360   27.5700 C.2   750  HEM750      0.0000
      7  C3A       14.7980    1.7070   27.5080 C.2   750  HEM750      0.0000
      8  C4A       15.6330    2.1980   26.4050 C.2   750  HEM750      0.0000
      9  CMA       15.0170    0.5230   28.5150 C.3   750  HEM750      0.0000
     10  CAA       12.5280    2.3640   28.4360 C.3   750  HEM750      0.0000
     11  CBA       11.6800    1.3820   27.6360 C.3   750  HEM750      0.0000
     12  CGA       10.3900    1.0180   28.3330 C.2   750  HEM750      0.0000
     13  O1A       10.4330    0.7720   29.5640 O.co2 750  HEM750      0.0000
     14  O2A        9.3500    0.9670   27.6400 O.co2 750  HEM750      0.0000
     15  C1B       17.5110    1.9510   24.7730 C.ar  750  HEM750      0.0000
     16  C2B       18.6250    1.2260   24.2600 C.ar  750  HEM750      0.0000
     17  C3B       18.9030    1.7590   23.0080 C.ar  750  HEM750      0.0000
     18  C4B       17.9310    2.8430   22.8000 C.ar  750  HEM750      0.0000
     19  CMB       19.3410    0.0260   24.9110 C.3   750  HEM750      0.0000
     20  CAB       19.8690    1.1810   22.1550 C.2   750  HEM750      0.0000
     21  CBB       20.4780    1.6810   21.0340 C.2   750  HEM750      0.0000
     22  C1C       16.8490    4.6730   21.4620 C.2   750  HEM750      0.0000
     23  C2C       16.8120    5.4860   20.2780 C.2   750  HEM750      0.0000
     24  C3C       15.8850    6.4830   20.5650 C.2   750  HEM750      0.0000
     25  C4C       15.4350    6.2910   21.9100 C.2   750  HEM750      0.0000
     26  CMC       17.5650    5.2420   18.9650 C.3   750  HEM750      0.0000
     27  CAC       15.4290    7.5000   19.7090 C.2   750  HEM750      0.0000
     28  CBC       16.2680    8.1240   18.8420 C.2   750  HEM750      0.0000
     29  C1D       13.8830    6.8610   23.8030 C.ar  750  HEM750      0.0000
     30  C2D       12.7100    7.5230   24.3320 C.ar  750  HEM750      0.0000
     31  C3D       12.2750    6.7340   25.3560 C.ar  750  HEM750      0.0000
     32  C4D       13.1630    5.6400   25.4730 C.ar  750  HEM750      0.0000
     33  CMD       12.0770    8.8300   23.8400 C.3   750  HEM750      0.0000
     34  CAD       11.0490    6.8670   26.2400 C.3   750  HEM750      0.0000
     35  CBD        9.8310    6.4050   25.4770 C.3   750  HEM750      0.0000
     36  CGD        8.5830    6.4310   26.3280 C.2   750  HEM750      0.0000
     37  O1D        8.4060    7.4250   27.0660 O.co2 750  HEM750      0.0000
     38  O2D        7.7930    5.4610   26.2500 O.co2 750  HEM750      0.0000
     39  NA        15.0780    3.3450   25.8410 N.2   750  HEM750      0.0000
     40  NB        17.1030    2.9760   23.9050 N.ar  750  HEM750      0.0000
     41  NC        15.9970    5.1680   22.4530 N.2   750  HEM750      0.0000
     42  ND        14.1690    5.7380   24.5350 N.ar  750  HEM750      0.0000
     43 FE         15.7600    4.4670   24.3250 Fe    750  HEM750      0.0000
@<TRIPOS>BOND
     1    28    27    2
     2    26    23    1
     3    27    24    1
     4    23    24    2
     5    23    22    1
     6    24    25    1
     7    21    20    2
     8    22     3    2
     9    22    41    1
    10     3    18    1
    11    25    41    2
    12    25     4    1
    13    20    17    1
    14    41    43    1
    15     4    29    2
    16    18    17   ar
    17    18    40   ar
    18    17    16   ar
    19    29    30   ar
    20    29    42   ar
    21    33    30    1
    22    40    43    1
    23    40    15   ar
    24    16    15   ar
    25    16    19    1
    26    43    42    1
    27    43    39    1
    28    30    31   ar
    29    42    32   ar
    30    15     2    1
    31    31    32   ar
    32    31    34    1
    33    32     1    2
    34    35    34    1
    35    35    36    1
    36    39     8    1
    37    39     5    2
    38     2     8    2
    39    38    36   ar
    40    36    37   ar
    41     8     7    1
    42     1     5    1
    43     5     6    1
    44     7     6    2
    45     7     9    1
    46     6    10    1
    47    11    12    1
    48    11    10    1
    49    14    12   ar
    50    12    13   ar
