@<TRIPOS>MOLECULE
2hx4_4HX_A_1.pdb
 24 24 0 0 0
SMALL
GASTEIGER

@<TRIPOS>ATOM
      1  NO        14.8780    1.3750   21.2650 N.pl3 799  4HX799      0.2221
      2  O2        14.6490    2.1200   20.2280 O.2   799  4HX799     -0.0910
      3  O3        15.9580    0.6680   21.3250 O.2   799  4HX799     -0.0910
      4  N          9.7760   -2.1150   25.7370 N.3   799  4HX799     -0.1261
      5  CA         9.5630   -0.8060   25.0550 C.3   799  4HX799      0.1350
      6  C          8.0580   -0.4520   24.9510 C.2   799  4HX799      0.0851
      7  O          7.2440   -1.3660   24.7550 O.2   799  4HX799     -0.5398
      8  CB        10.2390   -0.9260   23.6700 C.3   799  4HX799      0.0292
      9  CG        10.4200    0.4280   22.9420 C.3   799  4HX799      0.0488
     10  CD        11.4940    1.3020   23.5960 C.3   799  4HX799      0.2204
     11  NE        12.6770    0.4610   23.9340 N.pl3 799  4HX799     -0.0874
     12  CZ        13.8300    0.5650   23.2680 C.cat 799  4HX799      0.5245
     13  NH1       13.9930    1.4090   22.2680 N.pl3 799  4HX799      0.1075
     14  NH2       14.8240   -0.2430   23.6540 N.pl3 799  4HX799      0.1343
     15  N1'        5.2300    5.4640   26.9390 N.am  799  4HX799     -0.0866
     16  N2'        7.6950    0.8570   25.0790 N.am  799  4HX799     -0.2836
     17  O2'        8.7030    1.8250   25.2940 O.3   799  4HX799     -0.4197
     18  N'         5.1860    1.7250   27.0950 N.3   799  4HX799     -0.2084
     19  CA'        5.7390    3.0250   26.7040 C.3   799  4HX799      0.1538
     20  C'         4.8270    4.2130   27.0910 C.2   799  4HX799      0.2766
     21  O'         3.6910    4.0500   27.5740 O.2   799  4HX799     -0.2701
     22  CB'        6.0170    2.8720   25.1880 C.3   799  4HX799      0.0486
     23  CG'        6.2240    1.3430   24.9940 C.3   799  4HX799      0.0984
     24  CD'        5.1080    0.8170   25.9400 C.3   799  4HX799      0.1095
@<TRIPOS>BOND
     1     2     1    2
     2     1     3    2
     3     1    13    1
     4    13    12    1
     5     9    10    1
     6     9     8    1
     7    12    14    2
     8    12    11    1
     9    10    11    1
    10     8     5    1
    11     7     6    2
    12     6     5    1
    13     6    16   am
    14    23    16    1
    15    23    22    1
    16    23    24    1
    17     5     4    1
    18    16    17    1
    19    22    19    1
    20    24    18    1
    21    19    20    1
    22    19    18    1
    23    15    20   am
    24    20    21    2
