@<TRIPOS>MOLECULE
2hx4_HEM_A_1.pdb
 43 50 0 0 0
SMALL
GASTEIGER

@<TRIPOS>ATOM
      1  CHA       12.9860    4.5570   26.4300 C.2   750  HEM750      0.0000
      2  CHB       16.7720    1.5020   25.9330 C.2   750  HEM750      0.0000
      3  CHC       17.7110    3.5660   21.5980 C.2   750  HEM750      0.0000
      4  CHD       14.3890    7.0320   22.5070 C.2   750  HEM750      0.0000
      5  C1A       13.8370    3.4920   26.5860 C.2   750  HEM750      0.0000
      6  C2A       13.6920    2.5150   27.6030 C.2   750  HEM750      0.0000
      7  C3A       14.7700    1.7220   27.5500 C.2   750  HEM750      0.0000
      8  C4A       15.5770    2.1370   26.3990 C.2   750  HEM750      0.0000
      9  CMA       15.0870    0.5730   28.5350 C.3   750  HEM750      0.0000
     10  CAA       12.4540    2.3100   28.4120 C.3   750  HEM750      0.0000
     11  CBA       11.5180    1.3510   27.6680 C.3   750  HEM750      0.0000
     12  CGA       10.1740    1.1990   28.3620 C.2   750  HEM750      0.0000
     13  O1A       10.1780    0.9420   29.5940 O.co2 750  HEM750      0.0000
     14  O2A        9.1320    1.3380   27.6700 O.co2 750  HEM750      0.0000
     15  C1B       17.4650    1.8780   24.7730 C.ar  750  HEM750      0.0000
     16  C2B       18.5850    1.1570   24.2390 C.ar  750  HEM750      0.0000
     17  C3B       18.8700    1.7320   23.0100 C.ar  750  HEM750      0.0000
     18  C4B       17.9060    2.8260   22.7870 C.ar  750  HEM750      0.0000
     19  CMB       19.2890   -0.0740   24.8690 C.3   750  HEM750      0.0000
     20  CAB       19.9200    1.2590   22.1980 C.2   750  HEM750      0.0000
     21  CBB       20.2300    1.6210   20.9310 C.2   750  HEM750      0.0000
     22  C1C       16.7950    4.6200   21.4330 C.2   750  HEM750      0.0000
     23  C2C       16.7630    5.4390   20.2640 C.2   750  HEM750      0.0000
     24  C3C       15.8550    6.4600   20.5560 C.2   750  HEM750      0.0000
     25  C4C       15.3890    6.2370   21.8860 C.2   750  HEM750      0.0000
     26  CMC       17.5340    5.1630   18.9450 C.3   750  HEM750      0.0000
     27  CAC       15.3940    7.5070   19.7610 C.2   750  HEM750      0.0000
     28  CBC       16.1100    7.9830   18.7070 C.2   750  HEM750      0.0000
     29  C1D       13.7830    6.7660   23.7440 C.ar  750  HEM750      0.0000
     30  C2D       12.5730    7.3950   24.2220 C.ar  750  HEM750      0.0000
     31  C3D       12.1720    6.6200   25.2500 C.ar  750  HEM750      0.0000
     32  C4D       13.0900    5.5380   25.4240 C.ar  750  HEM750      0.0000
     33  CMD       11.9000    8.7250   23.7770 C.3   750  HEM750      0.0000
     34  CAD       10.9970    6.8800   26.1690 C.3   750  HEM750      0.0000
     35  CBD        9.7620    6.4560   25.3930 C.3   750  HEM750      0.0000
     36  CGD        8.5210    6.4700   26.2570 C.2   750  HEM750      0.0000
     37  O1D        8.3450    7.4590   26.9900 O.co2 750  HEM750      0.0000
     38  O2D        7.7390    5.4980   26.2000 O.co2 750  HEM750      0.0000
     39  NA        14.9990    3.2700   25.8200 N.2   750  HEM750      0.0000
     40  NB        17.0720    2.9560   23.9170 N.ar  750  HEM750      0.0000
     41  NC        15.9500    5.1140   22.4180 N.2   750  HEM750      0.0000
     42  ND        14.1270    5.6580   24.5100 N.ar  750  HEM750      0.0000
     43 FE         15.7250    4.4410   24.3110 Fe    750  HEM750      0.0000
@<TRIPOS>BOND
     1    28    27    2
     2    26    23    1
     3    27    24    1
     4    23    24    2
     5    23    22    1
     6    24    25    1
     7    21    20    2
     8    22     3    2
     9    22    41    1
    10     3    18    1
    11    25    41    2
    12    25     4    1
    13    20    17    1
    14    41    43    1
    15     4    29    2
    16    18    17   ar
    17    18    40   ar
    18    17    16   ar
    19    29    30   ar
    20    29    42   ar
    21    33    30    1
    22    40    43    1
    23    40    15   ar
    24    30    31   ar
    25    16    15   ar
    26    16    19    1
    27    43    42    1
    28    43    39    1
    29    42    32   ar
    30    15     2    1
    31    31    32   ar
    32    31    34    1
    33    35    34    1
    34    35    36    1
    35    32     1    2
    36    39     8    1
    37    39     5    2
    38     2     8    2
    39    38    36   ar
    40    36    37   ar
    41     8     7    1
    42     1     5    1
    43     5     6    1
    44     7     6    2
    45     7     9    1
    46     6    10    1
    47    11    12    1
    48    11    10    1
    49    14    12   ar
    50    12    13   ar
