@<TRIPOS>MOLECULE
2hx4_H4B_A_1.pdb
 17 18 0 0 0
SMALL
GASTEIGER

@<TRIPOS>ATOM
      1  N1        10.0830    2.5980   33.7080 N.2   760  H4B760     -0.2683
      2  C2        10.2420    2.1970   32.4310 C.1   760  H4B760      0.2608
      3  N2        11.4400    2.0730   31.8790 N.pl3 760  H4B760     -0.0220
      4  N3         9.1090    1.9190   31.7040 N.2   760  H4B760     -0.2474
      5  C4         7.7800    2.0260   32.2090 C.1   760  H4B760      0.2441
      6  O4         6.8140    1.7470   31.4720 O.2   760  H4B760     -0.2063
      7  C4A        7.7190    2.4600   33.5480 C.2   760  H4B760      0.2463
      8  C8A        8.8600    2.7410   34.3020 C.1   760  H4B760      0.1270
      9  N5         6.3780    2.6070   34.1440 N.2   760  H4B760     -0.2460
     10  N8         8.8070    3.1430   35.5900 N.2   760  H4B760     -0.2054
     11  C6         6.3640    3.6210   35.3020 C.3   760  H4B760      0.1627
     12  C7         7.5140    3.2940   36.2650 C.3   760  H4B760      0.1643
     13  C9         4.9550    3.5350   35.9140 C.3   760  H4B760      0.2063
     14  O9         4.6610    2.2080   36.3200 O.3   760  H4B760     -0.2183
     15  C10        4.7660    4.4320   37.1490 C.3   760  H4B760      0.1842
     16  C11        3.3280    4.4590   37.5680 C.3   760  H4B760      0.0383
     17  O10        5.2320    5.7400   36.7900 O.3   760  H4B760     -0.2204
@<TRIPOS>BOND
     1     6     5    2
     2     4     5    2
     3     4     2    2
     4     3     2    1
     5     5     7    1
     6     2     1    2
     7     7     9    2
     8     7     8    1
     9     1     8    2
    10     9    11    1
    11     8    10    2
    12    11    13    1
    13    11    12    1
    14    10    12    1
    15    13    14    1
    16    13    15    1
    17    17    15    1
    18    15    16    1
