@<TRIPOS>MOLECULE
2hxd_DUP_A_1.pdb
 28 29 0 0 0
SMALL
GASTEIGER

@<TRIPOS>ATOM
      1  O4        51.3920   54.3150  106.2320 O.2   206  DUP206     -0.2085
      2  C4        50.2720   53.8080  105.9150 C.1   206  DUP206      0.2182
      3  C5        49.2480   54.0080  106.7040 C.2   206  DUP206      0.1242
      4  C6        48.1040   53.4980  106.4100 C.2   206  DUP206      0.0928
      5  N3        50.1520   53.0630  104.7650 N.2   206  DUP206     -0.2452
      6  C2        48.9740   52.4940  104.4070 C.1   206  DUP206      0.2844
      7  O2        48.8430   51.7860  103.3800 O.2   206  DUP206     -0.1918
      8  N1        47.8980   52.7340  105.2910 N.am  206  DUP206     -0.1790
      9  C1'       46.5820   52.1840  105.0070 C.3   206  DUP206      0.2090
     10  C2'       46.0250   51.5050  106.2630 C.3   206  DUP206      0.0874
     11  C3'       44.9270   52.4240  106.7880 C.3   206  DUP206      0.1857
     12  O3'       43.7760   51.7290  107.2770 O.3   206  DUP206     -0.2203
     13  O4'       45.7030   53.2820  104.6790 O.3   206  DUP206     -0.3339
     14  C4'       44.5690   53.3120  105.5750 C.3   206  DUP206      0.1774
     15  C5'       44.2080   54.7260  105.9440 C.3   206  DUP206      0.1848
     16  O5'       45.1000   55.1830  106.9690 O.3   206  DUP206     -0.2775
     17  PA        44.8770   56.6970  107.4740 P.3   206  DUP206      0.4623
     18  O1A       43.4450   56.7890  107.9870 O.2   206  DUP206     -0.2354
     19  O2A       46.0030   56.9020  108.4860 O.3   206  DUP206     -0.1255
     20  N3A       44.9670   57.6160  106.0550 N.3   206  DUP206     -0.0179
     21  PB        43.8630   58.8010  105.5910 P.3   206  DUP206      0.4700
     22  O1B       43.2110   59.4560  106.7650 O.3   206  DUP206     -0.1252
     23  O2B       44.4860   59.8400  104.6990 O.2   206  DUP206     -0.2350
     24  O3B       42.7550   58.0070  104.7050 O.3   206  DUP206     -0.1901
     25  PG        41.1520   57.9090  105.0170 P.3   206  DUP206      0.5397
     26  O2G       40.7470   56.8210  104.0220 O.2   206  DUP206     -0.2220
     27  O1G       41.0850   57.4890  106.4940 O.3   206  DUP206     -0.1143
     28  O3G       40.5640   59.3020  104.7890 O.3   206  DUP206     -0.1143
@<TRIPOS>BOND
     1     7     6    2
     2    26    25    2
     3     6     5    2
     4     6     8   am
     5    13     9    1
     6    13    14    1
     7    23    21    2
     8    24    25    1
     9    24    21    1
    10     5     2    2
    11    28    25    1
    12     9     8    1
    13     9    10    1
    14    25    27    1
    15     8     4    1
    16    14    15    1
    17    14    11    1
    18    21    20    1
    19    21    22    1
    20     2     1    2
    21     2     3    1
    22    15    16    1
    23    20    17    1
    24    10    11    1
    25     4     3    2
    26    11    12    1
    27    16    17    1
    28    17    18    2
    29    17    19    1
