@<TRIPOS>MOLECULE
2hxf_ANP_C_1.pdb
 31 33 0 0 0
SMALL
GASTEIGER

@<TRIPOS>ATOM
      1  PG        51.7610   68.6880   57.5520 P.3   1500  ANP1500     0.4884
      2  O1G       52.8170   67.7330   57.0740 O.2   1500  ANP1500    -0.2331
      3  O2G       52.0780   69.0500   58.9320 O.3   1500  ANP1500    -0.1240
      4  O3G       50.4610   67.9480   57.5920 O.3   1500  ANP1500    -0.1240
      5  PB        51.1580   71.4920   57.1170 P.3   1500  ANP1500     0.4669
      6  O1B       51.7620   72.1550   58.2150 O.3   1500  ANP1500    -0.1253
      7  O2B       50.3060   72.0410   56.0650 O.2   1500  ANP1500    -0.2351
      8  N3B       51.9230   70.1050   56.7450 N.3   1500  ANP1500    -0.0163
      9  PA        53.3160   73.4380   56.8100 P.3   1500  ANP1500     0.2220
     10  O1A       54.7470   73.0540   56.8020 O.2   1500  ANP1500    -0.5170
     11  O2A       52.8460   74.8210   56.8730 O.3   1500  ANP1500    -0.4370
     12  O3A       52.2670   72.3300   56.2310 O.3   1500  ANP1500    -0.2360
     13  O5'       53.8170   73.9830   55.3840 O.3   1500  ANP1500    -0.3111
     14  C5'       53.4320   73.6460   54.0550 C.3   1500  ANP1500     0.1813
     15  C4'       54.7090   74.1080   53.2440 C.3   1500  ANP1500     0.1821
     16  O4'       54.3890   75.2930   52.4040 O.3   1500  ANP1500    -0.3135
     17  C3'       55.9340   74.6660   54.0110 C.3   1500  ANP1500     0.2184
     18  O3'       57.1220   74.5050   53.2330 O.3   1500  ANP1500    -0.2174
     19  C2'       55.5210   76.1260   54.2630 C.3   1500  ANP1500     0.2570
     20  O2'       56.6790   76.9520   54.5610 O.3   1500  ANP1500    -0.2130
     21  C1'       54.8530   76.4980   52.9680 C.3   1500  ANP1500     0.3186
     22  N9        53.7100   77.4540   53.1350 N.pl3 1500  ANP1500    -0.1439
     23  C8        52.4690   77.2200   53.6260 C.3   1500  ANP1500     0.3377
     24  N7        51.7040   78.2930   53.6160 N.2   1500  ANP1500    -0.2095
     25  C5        52.4500   79.2890   53.1110 C.2   1500  ANP1500     0.2526
     26  C6        52.1390   80.6550   52.8550 C.2   1500  ANP1500     0.4393
     27  N6        51.0500   81.2520   53.0740 N.pl3 1500  ANP1500     0.2180
     28  N1        53.2130   81.3500   52.3200 N.2   1500  ANP1500     0.0021
     29  C2        54.4430   80.7830   52.0440 C.3   1500  ANP1500     0.5254
     30  N3        54.7220   79.5170   52.2710 N.2   1500  ANP1500    -0.0055
     31  C4        53.6960   78.7990   52.7990 C.2   1500  ANP1500     0.3518
@<TRIPOS>BOND
     1    29    30    1
     2    29    28    1
     3    30    31    2
     4    28    26    2
     5    16    21    1
     6    16    15    1
     7    31    25    1
     8    31    22    1
     9    26    27    1
    10    26    25    1
    11    21    22    1
    12    21    19    1
    13    25    24    2
    14    22    23    1
    15    18    17    1
    16    15    17    1
    17    15    14    1
    18    24    23    1
    19    17    19    1
    20    14    13    1
    21    19    20    1
    22    13     9    1
    23     7     5    2
    24    12     9    1
    25    12     5    1
    26     8     5    1
    27     8     1    1
    28    10     9    2
    29     9    11    1
    30     2     1    2
    31     5     6    1
    32     1     4    1
    33     1     3    1
