@<TRIPOS>MOLECULE
2hxh_GDP_B_1.pdb
 28 30 0 0 0
SMALL
GASTEIGER

@<TRIPOS>ATOM
      1  PB        39.0560   37.1750   92.4870 P.3   600  GDP600      0.5373
      2  O1B       39.7790   37.7920   91.3590 O.2   600  GDP600     -0.2221
      3  O2B       39.2430   35.8000   92.6590 O.3   600  GDP600     -0.1143
      4  O3B       39.3510   38.0570   93.8310 O.3   600  GDP600     -0.1143
      5  O3A       37.5240   37.3260   92.1560 O.3   600  GDP600     -0.2261
      6  PA        36.3350   36.1600   92.0080 P.3   600  GDP600      0.2231
      7  O1A       36.6350   35.3090   90.8230 O.2   600  GDP600     -0.5169
      8  O2A       36.2860   35.4320   93.3400 O.3   600  GDP600     -0.4370
      9  O5'       35.0950   37.0400   91.6830 O.3   600  GDP600     -0.3111
     10  C5'       33.7400   36.5750   91.9660 C.3   600  GDP600      0.1813
     11  C4'       32.8580   36.5230   90.8140 C.3   600  GDP600      0.1799
     12  O4'       33.3890   35.5230   89.8570 O.3   600  GDP600     -0.3326
     13  C3'       31.4220   35.9500   91.0920 C.3   600  GDP600      0.2158
     14  O3'       30.5030   36.7420   90.2550 O.3   600  GDP600     -0.2175
     15  C2'       31.3600   34.4780   90.6200 C.3   600  GDP600      0.2310
     16  O2'       30.1230   33.9580   90.1050 O.3   600  GDP600     -0.2158
     17  C1'       32.4310   34.4240   89.5320 C.3   600  GDP600      0.2293
     18  N9        33.1880   33.1730   89.4840 N.pl3 600  GDP600     -0.2354
     19  C8        34.1600   32.8620   90.5870 C.3   600  GDP600      0.2246
     20  N7        34.5510   31.6400   90.0140 N.2   600  GDP600     -0.2322
     21  C5        34.0140   31.2240   88.8710 C.2   600  GDP600      0.2182
     22  C6        33.9800   30.2010   87.9010 C.1   600  GDP600      0.2372
     23  O6        34.8130   29.1650   88.1040 O.2   600  GDP600     -0.2069
     24  N1        33.2050   30.2150   86.7940 N.2   600  GDP600     -0.2485
     25  C2        32.3020   31.3790   86.5830 C.1   600  GDP600      0.2531
     26  N2        31.6350   31.1730   85.4680 N.pl3 600  GDP600     -0.0226
     27  N3        32.2700   32.3240   87.4280 N.2   600  GDP600     -0.3074
     28  C4        33.0870   32.2810   88.4970 C.2   600  GDP600      0.2300
@<TRIPOS>BOND
     1    26    25    1
     2    25    24    2
     3    25    27    2
     4    24    22    2
     5    27    28    2
     6    22    23    2
     7    22    21    1
     8    28    21    1
     9    28    18    1
    10    21    20    2
    11    18    17    1
    12    18    19    1
    13    17    12    1
    14    17    15    1
    15    12    11    1
    16    20    19    1
    17    16    15    1
    18    14    13    1
    19    15    13    1
    20    11    13    1
    21    11    10    1
    22     7     6    2
    23     2     1    2
    24     9    10    1
    25     9     6    1
    26     6     5    1
    27     6     8    1
    28     5     1    1
    29     1     3    1
    30     1     4    1
