@<TRIPOS>MOLECULE
2hxh_ADP_C_1.pdb
 27 29 0 0 0
SMALL
GASTEIGER

@<TRIPOS>ATOM
      1  PB        53.2640   74.3650   58.6990 P.3   2000  ADP2000     0.5373
      2  O1B       53.9920   73.1180   58.5140 O.3   2000  ADP2000    -0.1143
      3  O2B       51.9470   74.5460   58.0040 O.2   2000  ADP2000    -0.2221
      4  O3B       53.2450   74.6550   60.2340 O.3   2000  ADP2000    -0.1143
      5  PA        54.8770   76.7140   58.8390 P.3   2000  ADP2000     0.2231
      6  O1A       53.6810   77.6880   59.0340 O.3   2000  ADP2000    -0.4370
      7  O2A       56.1410   76.8550   58.3240 O.2   2000  ADP2000    -0.5169
      8  O3A       54.3760   75.2120   58.2840 O.3   2000  ADP2000    -0.2261
      9  O5'       54.5890   77.3640   57.2320 O.3   2000  ADP2000    -0.3111
     10  C5'       55.3950   77.0290   55.9690 C.3   2000  ADP2000     0.1813
     11  C4'       56.4030   78.1080   55.5420 C.3   2000  ADP2000     0.1821
     12  O4'       55.7520   79.0760   54.7060 O.3   2000  ADP2000    -0.3135
     13  C3'       57.1150   79.0760   56.5340 C.3   2000  ADP2000     0.2184
     14  O3'       58.4450   79.3210   56.0200 O.3   2000  ADP2000    -0.2174
     15  C2'       56.3430   80.4730   56.4970 C.3   2000  ADP2000     0.2570
     16  O2'       57.1940   81.6190   56.7550 O.3   2000  ADP2000    -0.2130
     17  C1'       55.7420   80.5030   55.0590 C.3   2000  ADP2000     0.3186
     18  N9        54.3170   81.0040   55.0280 N.pl3 2000  ADP2000    -0.1439
     19  C8        53.2100   80.2910   55.2190 C.3   2000  ADP2000     0.3377
     20  N7        52.1440   80.9850   55.1090 N.2   2000  ADP2000    -0.2095
     21  C5        52.5960   82.2490   54.7490 C.2   2000  ADP2000     0.2526
     22  C6        51.9110   83.5350   54.4360 C.2   2000  ADP2000     0.4393
     23  N6        50.5540   83.6520   54.3340 N.pl3 2000  ADP2000     0.2180
     24  N1        52.7000   84.6140   54.1380 N.2   2000  ADP2000     0.0021
     25  C2        54.0300   84.5040   54.2040 C.3   2000  ADP2000     0.5254
     26  N3        54.7280   83.3810   54.5060 N.2   2000  ADP2000    -0.0055
     27  C4        53.9460   82.2890   54.7500 C.2   2000  ADP2000     0.3518
@<TRIPOS>BOND
     1    24    25    1
     2    24    22    2
     3    25    26    1
     4    23    22    1
     5    22    21    1
     6    26    27    2
     7    12    17    1
     8    12    11    1
     9    21    27    1
    10    21    20    2
    11    27    18    1
    12    18    17    1
    13    18    19    1
    14    17    15    1
    15    20    19    1
    16    11    10    1
    17    11    13    1
    18    10     9    1
    19    14    13    1
    20    15    13    1
    21    15    16    1
    22     9     5    1
    23     3     1    2
    24     8     1    1
    25     8     5    1
    26     7     5    2
    27     2     1    1
    28     1     4    1
    29     5     6    1
