@<TRIPOS>MOLECULE
2hxh_GTP_A_1.pdb
 32 34 0 0 0
SMALL
GASTEIGER

@<TRIPOS>ATOM
      1  PG        41.3060   38.6530   53.0080 P.3   500  GTP500      0.5373
      2  O1G       41.2670   37.3060   53.7020 O.3   500  GTP500     -0.1143
      3  O2G       42.5440   39.4750   53.3870 O.2   500  GTP500     -0.2221
      4  O3G       40.1360   39.5460   53.4100 O.3   500  GTP500     -0.1143
      5  O3B       41.2400   38.2580   51.3990 O.3   500  GTP500     -0.2258
      6  PB        40.0610   37.3730   50.6600 P.3   500  GTP500      0.2277
      7  O1B       40.5310   36.0240   50.3790 O.3   500  GTP500     -0.4368
      8  O2B       39.5840   38.2320   49.5000 O.2   500  GTP500     -0.5168
      9  O3A       38.8840   37.4090   51.6350 O.3   500  GTP500     -0.2700
     10  PA        37.5720   36.6470   51.7910 P.3   500  GTP500      0.2189
     11  O1A       36.8950   37.1670   53.0140 O.3   500  GTP500     -0.4371
     12  O2A       37.7750   35.1860   51.7410 O.2   500  GTP500     -0.5170
     13  O5'       36.6800   37.1620   50.5080 O.3   500  GTP500     -0.3112
     14  C5'       35.3960   36.5660   50.4550 C.3   500  GTP500      0.1813
     15  C4'       34.5200   36.9890   49.3200 C.3   500  GTP500      0.1799
     16  O4'       34.7550   36.1550   48.1560 O.3   500  GTP500     -0.3326
     17  C3'       33.0810   36.7510   49.7150 C.3   500  GTP500      0.2158
     18  O3'       32.2370   37.6210   48.9940 O.3   500  GTP500     -0.2175
     19  C2'       32.8920   35.2870   49.3510 C.3   500  GTP500      0.2310
     20  O2'       31.5100   35.0380   49.0790 O.3   500  GTP500     -0.2158
     21  C1'       33.7740   35.1080   48.1050 C.3   500  GTP500      0.2293
     22  N9        34.4840   33.8210   48.0070 N.pl3 500  GTP500     -0.2354
     23  C8        35.3650   33.2910   48.9170 C.3   500  GTP500      0.2246
     24  N7        35.8430   32.1290   48.5640 N.2   500  GTP500     -0.2322
     25  C5        35.2380   31.8620   47.3610 C.2   500  GTP500      0.2182
     26  C6        35.3510   30.7590   46.5160 C.1   500  GTP500      0.2372
     27  O6        36.0620   29.7730   46.6930 O.2   500  GTP500     -0.2069
     28  N1        34.5590   30.8620   45.3510 N.2   500  GTP500     -0.2485
     29  C2        33.7370   31.9270   45.0540 C.1   500  GTP500      0.2531
     30  N2        33.0650   31.8540   43.9410 N.pl3 500  GTP500     -0.0226
     31  N3        33.6080   32.9850   45.8540 N.2   500  GTP500     -0.3074
     32  C4        34.3830   32.9040   46.9850 C.2   500  GTP500      0.2300
@<TRIPOS>BOND
     1    30    29    1
     2    29    28    2
     3    29    31    2
     4    28    26    2
     5    31    32    2
     6    26    27    2
     7    26    25    1
     8    32    25    1
     9    32    22    1
    10    25    24    2
    11    22    21    1
    12    22    23    1
    13    21    16    1
    14    21    19    1
    15    16    15    1
    16    24    23    1
    17    18    17    1
    18    20    19    1
    19    15    17    1
    20    15    14    1
    21    19    17    1
    22     8     6    2
    23     7     6    1
    24    14    13    1
    25    13    10    1
    26     6     5    1
    27     6     9    1
    28     5     1    1
    29     9    10    1
    30    12    10    2
    31    10    11    1
    32     1     3    2
    33     1     4    1
    34     1     2    1
