@<TRIPOS>MOLECULE
2hxl_422_A_1.pdb
 29 33 0 0 0
SMALL
GASTEIGER

@<TRIPOS>ATOM
      1  C1        22.3830   -2.6350    8.8100 C.ar  324  422324     -0.0060
      2  C2        21.1090   -3.0570    9.4290 C.ar  324  422324     -0.0003
      3  C3        19.9420   -2.2050    9.2660 C.ar  324  422324      0.0319
      4  C4        20.0600   -0.9410    8.5040 C.ar  324  422324      0.1315
      5  C5        21.3280   -0.5220    7.8880 C.ar  324  422324      0.0318
      6  C6        22.5200   -1.3850    8.0400 C.ar  324  422324     -0.0003
      7  C11       18.5830   -2.3730    9.7440 C.2   324  422324      0.0362
      8  C12       17.9370   -1.1780    9.2580 C.2   324  422324      0.1508
      9  N13       18.7690   -0.3610    8.5810 N.2   324  422324     -0.4003
     10  C14       16.4780   -0.7740    9.4700 C.2   324  422324      0.1334
     11  C15       15.4320   -1.4030   10.2560 C.2   324  422324      0.0376
     12  C16       14.2660   -0.5370   10.1570 C.2   324  422324      0.0872
     13  N17       14.6020    0.4960    9.3680 N.2   324  422324     -0.1519
     14  N18       15.9110    0.4000    8.9840 N.2   324  422324     -0.1456
     15  C19       15.3090   -2.6190   11.1160 C.2   324  422324      0.0033
     16  C20       14.0440   -2.9120   11.8440 C.2   324  422324      0.0064
     17  C21       12.9160   -1.9550   11.7090 C.2   324  422324      0.0522
     18  C22       12.9960   -0.7510   10.8540 C.3   324  422324      0.0844
     19  C23       11.7150   -2.2030   12.4790 C.1   324  422324      0.0965
     20  C7        23.6430   -3.4950    8.9560 C.3   324  422324      0.0991
     21  N2        23.6910   -4.7480    8.1560 N.3   324  422324     -0.2690
     22  C8        22.7910   -4.8670    6.9890 C.3   324  422324      0.0724
     23  C9        25.0750   -5.1650    7.7760 C.3   324  422324      0.0724
     24  C10       25.0580   -6.6090    7.2790 C.3   324  422324      0.0189
     25  C13       22.7700   -6.3180    6.5220 C.3   324  422324      0.0189
     26  C17       24.1380   -6.8350    6.0790 C.3   324  422324      0.0218
     27  C18       24.0680   -8.3270    5.7370 C.3   324  422324      0.1094
     28  N3        23.1190   -8.4950    4.6220 N.3   324  422324     -0.1314
     29  N1        10.7350   -2.4220   13.0660 N.1   324  422324     -0.1911
@<TRIPOS>BOND
     1    28    27    1
     2    27    26    1
     3    26    25    1
     4    26    24    1
     5    25    22    1
     6    22    21    1
     7    24    23    1
     8    23    21    1
     9     5     6   ar
    10     5     4   ar
    11     6     1   ar
    12    21    20    1
    13     4     9    2
    14     4     3   ar
    15     9     8    2
    16     1    20    1
    17     1     2   ar
    18    14    13    1
    19    14    10    2
    20     8    10    1
    21     8     7    1
    22     3     2   ar
    23     3     7    2
    24    13    12    2
    25    10    11    1
    26    12    11    1
    27    12    18    1
    28    11    15    2
    29    18    17    1
    30    15    16    1
    31    17    16    2
    32    17    19    1
    33    19    29    3
