@<TRIPOS>MOLECULE
2hxq_373_A_1.pdb
 29 33 0 0 0
SMALL
GASTEIGER

@<TRIPOS>ATOM
      1  C1        14.8080   -1.7500   10.8440 C.3   324  373324      0.0980
      2  C2        14.1310   -2.5900   11.8120 C.2   324  373324     -0.0150
      3  C3        12.7720   -2.2190   12.1800 C.2   324  373324     -0.0038
      4  C4        12.1320   -1.0350   11.6150 C.2   324  373324      0.0020
      5  C5        12.8000   -0.2210   10.6160 C.2   324  373324      0.0292
      6  C6        14.1430   -0.6030   10.2540 C.2   324  373324      0.1297
      7  N11       14.8540    0.1860    9.3960 N.2   324  373324     -0.3366
      8  C12       16.1490   -0.0560    9.0860 C.1   324  373324      0.2066
      9  C13       16.8850   -1.2130    9.6950 C.2   324  373324      0.1206
     10  C14       16.2010   -2.0400   10.5160 C.2   324  373324      0.0003
     11  C16       18.3380   -1.4000    9.4110 C.2   324  373324      0.1430
     12  N17       19.1620   -0.5230    8.6810 N.2   324  373324     -0.4011
     13  C18       20.4420   -1.0460    8.6260 C.ar  324  373324      0.1315
     14  C19       20.4480   -2.3040    9.3660 C.ar  324  373324      0.0319
     15  C20       19.1490   -2.4680    9.8660 C.2   324  373324      0.0353
     16  C24       21.6220   -0.5150    7.9610 C.ar  324  373324      0.0318
     17  C25       22.8720   -1.2800    8.0410 C.ar  324  373324     -0.0003
     18  C26       22.8620   -2.5500    8.7940 C.ar  324  373324     -0.0060
     19  C27       21.6700   -3.0640    9.4570 C.ar  324  373324     -0.0003
     20  C31       24.0750   -3.4470    8.8370 C.3   324  373324      0.0991
     21  N32       24.0800   -4.2690    7.6040 N.3   324  373324     -0.2690
     22  C35       25.2940   -3.9330    6.8360 C.3   324  373324      0.0724
     23  C36       25.1120   -4.5000    5.4370 C.3   324  373324      0.0189
     24  C37       24.9640   -6.0130    5.4770 C.3   324  373324      0.0218
     25  C38       23.7940   -6.3830    6.4100 C.3   324  373324      0.0189
     26  C39       24.0100   -5.7470    7.7840 C.3   324  373324      0.0724
     27  C48       24.7100   -6.5230    4.0340 C.3   324  373324      0.1094
     28  N50       25.8240   -6.0950    3.1620 N.3   324  373324     -0.1314
     29  O1        16.7750    0.6520    8.3040 O.2   324  373324     -0.2092
@<TRIPOS>BOND
     1    28    27    1
     2    27    24    1
     3    23    24    1
     4    23    22    1
     5    24    25    1
     6    25    26    1
     7    22    21    1
     8    21    26    1
     9    21    20    1
    10    16    17   ar
    11    16    13   ar
    12    17    18   ar
    13    29     8    2
    14    13    12    2
    15    13    14   ar
    16    12    11    2
    17    18    20    1
    18    18    19   ar
    19     8     7    2
    20     8     9    1
    21    14    19   ar
    22    14    15    2
    23     7     6    2
    24    11     9    1
    25    11    15    1
    26     9    10    2
    27     6     5    1
    28     6     1    1
    29    10     1    1
    30     5     4    2
    31     1     2    1
    32     4     3    1
    33     2     3    2
