@<TRIPOS>MOLECULE
2hxs_G3D_A_1.pdb
 32 34 0 0 0
SMALL
GASTEIGER

@<TRIPOS>ATOM
      1  PB        19.2380   26.4420   10.7960 P.3   401  G3D401      0.5373
      2  O1B       17.8750   26.5530   11.4340 O.3   401  G3D401     -0.1143
      3  O2B       19.2780   26.8400    9.3340 O.2   401  G3D401     -0.2221
      4  O3B       20.3300   27.0870   11.6330 O.3   401  G3D401     -0.1143
      5  PA        20.3290   23.9100    9.8250 P.3   401  G3D401      0.2231
      6  O3A       19.5370   24.8310   10.8420 O.3   401  G3D401     -0.2261
      7  O1A       19.4750   23.5490    8.6480 O.2   401  G3D401     -0.5169
      8  O2A       21.6640   24.5250    9.5960 O.3   401  G3D401     -0.4370
      9  O5'       20.4650   22.5680   10.6550 O.3   401  G3D401     -0.3111
     10  C5'       21.1080   22.5490   11.9750 C.3   401  G3D401      0.1812
     11  C4'       21.6230   21.1230   12.2350 C.3   401  G3D401      0.1772
     12  O4'       20.5250   20.2440   12.3830 O.3   401  G3D401     -0.3327
     13  C3'       22.4030   20.6360   11.0610 C.3   401  G3D401      0.1902
     14  O3'       23.3970   19.7270   11.6200 O.3   401  G3D401     -0.2674
     15  C2'       21.5370   19.6570   10.3570 C.3   401  G3D401      0.2283
     16  O2'       22.1880   18.6200    9.7180 O.3   401  G3D401     -0.2159
     17  C1'       20.6600   19.1670   11.4890 C.3   401  G3D401      0.2292
     18  N9        19.3340   18.7940   11.0420 N.pl3 401  G3D401     -0.2354
     19  C8        18.4740   19.6570   10.3340 C.3   401  G3D401      0.2246
     20  N7        17.2690   19.0230   10.1070 N.2   401  G3D401     -0.2322
     21  C5        17.4270   17.8050   10.7120 C.2   401  G3D401      0.2182
     22  C6        16.5290   16.7350   10.8370 C.1   401  G3D401      0.2372
     23  O6        15.3340   16.6650   10.3620 O.2   401  G3D401     -0.2069
     24  N1        16.9920   15.6620   11.5540 N.2   401  G3D401     -0.2485
     25  C2        18.2230   15.5860   12.0970 C.1   401  G3D401      0.2531
     26  N2        18.5700   14.4810   12.7520 N.pl3 401  G3D401     -0.0226
     27  N3        19.1350   16.5710   11.9870 N.2   401  G3D401     -0.3074
     28  C4        18.6840   17.6520   11.2910 C.2   401  G3D401      0.2300
     29  P1        25.0180   19.4880   11.2050 P.3   401  G3D401      0.5327
     30  O4P       25.8320   20.5330   11.9380 O.3   401  G3D401     -0.1145
     31  O5P       24.9150   19.5890    9.7090 O.2   401  G3D401     -0.2224
     32  O6P       25.3460   18.0320   11.4910 O.3   401  G3D401     -0.1145
@<TRIPOS>BOND
     1     7     5    2
     2     3     1    2
     3     8     5    1
     4    31    29    2
     5    16    15    1
     6     5     9    1
     7     5     6    1
     8    20    19    1
     9    20    21    2
    10    19    18    1
    11    15    13    1
    12    15    17    1
    13    23    22    2
    14     9    10    1
    15    21    22    1
    16    21    28    1
    17     1     6    1
    18     1     2    1
    19     1     4    1
    20    22    24    2
    21    18    28    1
    22    18    17    1
    23    13    14    1
    24    13    11    1
    25    29    32    1
    26    29    14    1
    27    29    30    1
    28    28    27    2
    29    17    12    1
    30    24    25    2
    31    10    11    1
    32    27    25    2
    33    25    26    1
    34    11    12    1
