@<TRIPOS>MOLECULE
2hxt_EHM_A_1.pdb
 10 9 0 0 0
SMALL
GASTEIGER

@<TRIPOS>ATOM
      1  O4       -20.7910   66.5060   24.9180 O.3   501  EHM501     -0.2175
      2  C4       -22.0970   66.3870   25.4880 C.3   501  EHM501      0.2178
      3  C3       -22.0250   66.6830   26.9860 C.3   501  EHM501      0.2210
      4  O3       -21.0210   65.8650   27.5930 O.3   501  EHM501     -0.2171
      5  C2       -21.7110   68.1660   27.2690 C.3   501  EHM501      0.2292
      6  O2       -22.7440   69.0100   26.7800 O.3   501  EHM501     -0.2134
      7  C1       -21.5500   68.3730   28.7470 C.2   501  EHM501      0.1201
      8  O1       -22.2750   67.7810   29.5400 O.2   501  EHM501     -0.5373
      9  N        -20.5960   69.2150   29.1290 N.am  501  EHM501     -0.2003
     10  ON       -20.5300   69.5950   30.4730 O.3   501  EHM501     -0.4026
@<TRIPOS>BOND
     1     1     2    1
     2     2     3    1
     3     6     5    1
     4     3     5    1
     5     3     4    1
     6     5     7    1
     7     7     9   am
     8     7     8    2
     9     9    10    1
