@<TRIPOS>MOLECULE
2hxu_LFC_A_1.pdb
 12 11 0 0 0
SMALL
GASTEIGER

@<TRIPOS>ATOM
      1  O1A      -20.7900   69.6220   30.5530 O.co2 501  LFC501     -0.2427
      2  C1       -20.3630   69.1820   29.4620 C.2   501  LFC501      0.3973
      3  O1B      -19.4580   69.7010   28.7820 O.co2 501  LFC501     -0.2427
      4  C2       -21.0080   67.8820   28.9180 C.3   501  LFC501      0.2865
      5  O2       -22.2290   67.5990   29.6010 O.3   501  LFC501     -0.2080
      6  C3       -21.2910   67.9720   27.4070 C.3   501  LFC501      0.2259
      7  O3       -22.2970   68.9610   27.1740 O.3   501  LFC501     -0.2169
      8  C4       -21.7780   66.6240   26.8230 C.3   501  LFC501      0.2153
      9  O4       -20.9900   65.5180   27.2820 O.3   501  LFC501     -0.2176
     10  C5       -21.7580   66.6110   25.2800 C.3   501  LFC501      0.1849
     11  C6       -22.4770   65.4110   24.6450 C.3   501  LFC501      0.0383
     12  O5       -20.3980   66.6350   24.8280 O.3   501  LFC501     -0.2203
@<TRIPOS>BOND
     1    11    10    1
     2    12    10    1
     3    10     8    1
     4     8     9    1
     5     8     6    1
     6     7     6    1
     7     6     4    1
     8     3     2   ar
     9     4     2    1
    10     4     5    1
    11     2     1   ar
