@<TRIPOS>MOLECULE
2hxv_NDP_A_1.pdb
 48 52 0 0 0
SMALL
GASTEIGER

@<TRIPOS>ATOM
      1  PA        43.0230   34.4740   15.1930 P.3   400  NDP400      0.2189
      2  O1A       41.8230   34.3850   16.0530 O.3   400  NDP400     -0.4371
      3  O2A       43.2780   33.5570   14.0760 O.2   400  NDP400     -0.5170
      4  O5B       44.2730   34.6670   16.1740 O.3   400  NDP400     -0.3112
      5  C5B       45.5950   34.7940   15.7180 C.3   400  NDP400      0.1813
      6  C4B       46.4760   34.7900   16.9430 C.3   400  NDP400      0.1820
      7  O4B       46.5310   33.4490   17.4430 O.3   400  NDP400     -0.3136
      8  C3B       47.9200   35.2880   16.7010 C.3   400  NDP400      0.2157
      9  O3B       48.4550   35.9300   17.8530 O.3   400  NDP400     -0.2175
     10  C2B       48.6180   33.9760   16.5230 C.3   400  NDP400      0.2314
     11  O2B       49.9940   33.9430   16.8260 O.3   400  NDP400     -0.2630
     12  C1B       47.8650   33.0580   17.4710 C.3   400  NDP400      0.3158
     13  N9A       47.9770   31.7330   16.8990 N.pl3 400  NDP400     -0.1439
     14  C8A       47.5880   31.3140   15.6460 C.3   400  NDP400      0.3377
     15  N7A       47.9190   30.0140   15.5750 N.2   400  NDP400     -0.2095
     16  C5A       48.4840   29.6160   16.7410 C.2   400  NDP400      0.2526
     17  C6A       48.9980   28.4120   17.2150 C.2   400  NDP400      0.4393
     18  N6A       49.1630   27.3520   16.4230 N.pl3 400  NDP400      0.2180
     19  N1A       49.5070   28.3520   18.4870 N.2   400  NDP400      0.0021
     20  C2A       49.5070   29.4690   19.2800 C.3   400  NDP400      0.5254
     21  N3A       49.0170   30.6710   18.8040 N.2   400  NDP400     -0.0055
     22  C4A       48.5110   30.7200   17.5710 C.2   400  NDP400      0.3518
     23  O3        42.9720   36.0070   14.6460 O.3   400  NDP400     -0.2703
     24  PN        42.4870   36.6960   13.2750 P.3   400  NDP400      0.2189
     25  O1N       43.0550   35.9850   12.1320 O.2   400  NDP400     -0.5170
     26  O2N       42.7260   38.1190   13.4460 O.3   400  NDP400     -0.4371
     27  O5D       40.8880   36.5470   13.2480 O.3   400  NDP400     -0.3112
     28  C5D       40.0880   37.2760   14.1790 C.3   400  NDP400      0.1813
     29  C4D       38.9800   37.9130   13.4210 C.3   400  NDP400      0.1799
     30  O4D       38.1410   36.8860   12.9040 O.3   400  NDP400     -0.3327
     31  C3D       38.1020   38.8410   14.2380 C.3   400  NDP400      0.2158
     32  O3D       37.7480   39.8600   13.3590 O.3   400  NDP400     -0.2175
     33  C2D       36.8280   38.0520   14.5120 C.3   400  NDP400      0.2309
     34  O2D       35.7330   38.9560   14.6090 O.3   400  NDP400     -0.2158
     35  C1D       36.7800   37.1700   13.2750 C.3   400  NDP400      0.2263
     36  N1N       36.1480   35.8710   13.5410 N.pl3 400  NDP400     -0.2787
     37  C2N       35.1330   35.4260   12.7380 C.3   400  NDP400      0.1244
     38  C3N       34.5330   34.2020   12.9530 C.2   400  NDP400      0.0544
     39  C7N       33.4770   33.7140   11.9920 C.2   400  NDP400      0.2818
     40  O7N       33.4720   32.3030   11.8290 O.2   400  NDP400     -0.2670
     41  N7N       32.6810   34.6400   11.3720 N.am  400  NDP400     -0.0839
     42  C4N       35.2130   33.1810   13.8010 C.2   400  NDP400      0.0033
     43  C5N       36.3280   33.7440   14.6280 C.2   400  NDP400      0.0157
     44  C6N       36.7370   35.0500   14.4410 C.2   400  NDP400      0.0633
     45  P2B       51.0180   34.6590   15.8030 P.3   400  NDP400      0.5328
     46  O1X       50.7090   34.1530   14.4120 O.2   400  NDP400     -0.2224
     47  O2X       50.7990   36.1490   15.9320 O.3   400  NDP400     -0.1145
     48  O3X       52.4490   34.3440   16.1930 O.3   400  NDP400     -0.1145
@<TRIPOS>BOND
     1    41    39   am
     2    40    39    2
     3    39    38    1
     4    25    24    2
     5    37    38    1
     6    37    36    1
     7    30    35    1
     8    30    29    1
     9    38    42    2
    10    27    24    1
    11    27    28    1
    12    24    26    1
    13    24    23    1
    14    35    36    1
    15    35    33    1
    16    32    31    1
    17    29    28    1
    18    29    31    1
    19    36    44    1
    20    42    43    1
    21     3     1    2
    22    31    33    1
    23    46    45    2
    24    44    43    2
    25    33    34    1
    26    23     1    1
    27     1     2    1
    28     1     4    1
    29    15    14    1
    30    15    16    2
    31    14    13    1
    32     5     4    1
    33     5     6    1
    34    45    47    1
    35    45    48    1
    36    45    11    1
    37    18    17    1
    38    10     8    1
    39    10    11    1
    40    10    12    1
    41     8     6    1
    42     8     9    1
    43    16    17    1
    44    16    22    1
    45    13    12    1
    46    13    22    1
    47     6     7    1
    48    17    19    2
    49     7    12    1
    50    22    21    2
    51    19    20    1
    52    21    20    1
