@<TRIPOS>MOLECULE
2hxw_FLC_A_1.pdb
 13 12 0 0 0
SMALL
GASTEIGER

@<TRIPOS>ATOM
      1  CAC       -1.4800    6.1420   16.9150 C.2   301  FLC301      0.3680
      2  CA        -0.8900    6.9110   18.0800 C.3   301  FLC301      0.1560
      3  CB         0.0930    6.1450   18.9850 C.3   301  FLC301      0.2402
      4  CBC       -0.6690    5.2000   19.8880 C.2   301  FLC301      0.3927
      5  CG         1.1330    5.3940   18.1510 C.3   301  FLC301      0.1560
      6  CGC        2.2020    4.7230   18.9920 C.2   301  FLC301      0.3680
      7  OA1       -1.6530    6.7510   15.8330 O.co2 301  FLC301     -0.2455
      8  OA2       -1.7890    4.9360   17.0360 O.co2 301  FLC301     -0.2455
      9  OB1       -1.4130    4.3330   19.3680 O.co2 301  FLC301     -0.2429
     10  OB2       -0.5330    5.3080   21.1360 O.co2 301  FLC301     -0.2429
     11  OG1        1.8790    4.0110   19.9660 O.co2 301  FLC301     -0.2455
     12  OG2        3.3930    4.9050   18.6480 O.co2 301  FLC301     -0.2455
     13  OHB        0.7770    7.1000   19.8170 O.3   301  FLC301     -0.2129
@<TRIPOS>BOND
     1     7     1   ar
     2     1     8   ar
     3     1     2    1
     4     2     3    1
     5     5     3    1
     6     5     6    1
     7    12     6   ar
     8     3    13    1
     9     3     4    1
    10     6    11   ar
    11     9     4   ar
    12     4    10   ar
