@<TRIPOS>MOLECULE
2hxz_H7J_A_1.pdb
 27 28 0 0 0
SMALL
GASTEIGER

@<TRIPOS>ATOM
      1  O25       39.4070  -80.9570   12.8790 O.2   811  H7J811     -0.2684
      2  C18       39.1020  -80.8670   11.6980 C.2   811  H7J811      0.2650
      3  C19       37.8280  -81.4760   11.2230 C.ar  811  H7J811      0.0550
      4  C24       36.9810  -81.9320   12.0490 C.ar  811  H7J811      0.0046
      5  C23       35.8210  -82.4790   11.5990 C.ar  811  H7J811      0.0001
      6  C22       35.5860  -82.5420   10.3560 C.ar  811  H7J811      0.0000
      7  C21       36.4570  -82.0880    9.5520 C.ar  811  H7J811      0.0001
      8  C20       37.5460  -81.5670    9.9770 C.ar  811  H7J811      0.0046
      9  N17       39.7060  -79.9560   10.9160 N.am  811  H7J811     -0.1996
     10  C14       40.7170  -78.9770   11.3670 C.3   811  H7J811      0.1132
     11  C16       41.9140  -79.6730   12.0290 C.3   811  H7J811      0.0276
     12  C15       41.2210  -78.1390   10.1830 C.3   811  H7J811      0.0236
     13  C27       41.7930  -79.0840    9.1280 C.3   811  H7J811      0.0021
     14  C26       42.2880  -77.1000   10.5690 C.3   811  H7J811      0.0021
     15  C12       39.9960  -78.0770   12.3160 C.2   811  H7J811      0.0969
     16  N11       38.8830  -77.4660   11.8800 N.2   811  H7J811     -0.1488
     17  N10       38.4660  -76.7400   13.0060 N.pl3 811  H7J811     -0.0446
     18  C13       40.4590  -77.8900   13.7000 C.3   811  H7J811      0.1599
     19  N         39.3800  -76.9880   14.0300 N.pl3 811  H7J811     -0.1945
     20  C4        39.2520  -76.3970   15.2480 C.2   811  H7J811      0.1034
     21  C2        39.5370  -75.0830   15.3570 C.2   811  H7J811      0.1883
     22  C         40.9720  -74.7140   15.3400 C.3   811  H7J811      0.0787
     23  O         38.7050  -74.2170   15.6010 O.2   811  H7J811     -0.2900
     24  C5        39.0250  -77.3240   16.4200 C.2   811  H7J811      0.0188
     25  C7        39.2900  -76.7680   17.8000 C.2   811  H7J811     -0.0032
     26  C8        39.3150  -77.6550   18.8070 C.2   811  H7J811     -0.0257
     27  C9        39.5690  -77.2270   20.2270 C.3   811  H7J811      0.0307
@<TRIPOS>BOND
     1    13    12    1
     2     7     8   ar
     3     7     6   ar
     4     8     3   ar
     5    12    14    1
     6    12    10    1
     7     6     5   ar
     8     9    10    1
     9     9     2   am
    10     3     2    1
    11     3     4   ar
    12    10    11    1
    13    10    15    1
    14     5     4   ar
    15     2     1    2
    16    16    15    2
    17    16    17    1
    18    15    18    1
    19    17    19    1
    20    18    19    1
    21    19    20    1
    22    20    21    1
    23    20    24    2
    24    22    21    1
    25    21    23    2
    26    24    25    1
    27    25    26    2
    28    26    27    1
