@<TRIPOS>MOLECULE
2hy0_306_A_1.pdb
 32 37 0 0 0
SMALL
GASTEIGER

@<TRIPOS>ATOM
      1  C         12.4160   -4.4350   13.4230 C.ar  324  306324      0.1237
      2  C1        12.0700   -3.2150   12.7910 C.ar  324  306324      0.0419
      3  C2        10.6990   -3.0860   13.1050 C.ar  324  306324      0.1237
      4  N         10.3040   -4.1050   13.9200 N.ar  324  306324     -0.1463
      5  N3        11.3240   -5.0030   13.9820 N.ar  324  306324     -0.1463
      6  C4        18.5660   -1.4240    9.2760 C.2   324  306324      0.1295
      7  C5        19.3980   -2.4860    9.7310 C.2   324  306324      0.0316
      8  N6        19.3170   -0.5600    8.5620 N.2   324  306324     -0.4048
      9  C7        20.6630   -2.2750    9.2000 C.ar  324  306324      0.0316
     10  C8        20.6140   -1.0180    8.4180 C.ar  324  306324      0.1311
     11  C9        21.7690   -0.5100    7.6920 C.ar  324  306324      0.0318
     12  C10       23.0170   -1.2700    7.7270 C.ar  324  306324     -0.0003
     13  C11       23.0580   -2.5230    8.4970 C.ar  324  306324     -0.0060
     14  C12       21.9020   -3.0180    9.2440 C.ar  324  306324     -0.0003
     15  C13       24.3030   -3.3970    8.4600 C.3   324  306324      0.0991
     16  C14       12.9270   -2.3540   11.8920 C.ar  324  306324      0.0033
     17  C15       12.3460   -1.1410   11.3200 C.ar  324  306324      0.0028
     18  C16       13.0440   -0.3150   10.3990 C.ar  324  306324      0.0330
     19  C17       14.2980   -2.7250   11.5700 C.ar  324  306324      0.0024
     20  C18       15.0320   -1.8760   10.6760 C.ar  324  306324      0.0278
     21  C19       14.3780   -0.7090   10.1090 C.ar  324  306324      0.1438
     22  N20       15.0920    0.1310    9.2870 N.2   324  306324     -0.3358
     23  C21       16.4000   -0.1010    8.9610 C.1   324  306324      0.1902
     24  C22       17.1210   -1.2750    9.5780 C.3   324  306324      0.1921
     25  C23       16.3780   -2.1410   10.4370 C.2   324  306324      0.0007
     26  O         16.9310    0.6710    8.1690 O.2   324  306324     -0.2134
     27  N24       24.4930   -4.1030    7.1640 N.3   324  306324     -0.2690
     28  C25       25.4530   -5.2230    7.2650 C.3   324  306324      0.0724
     29  C26       25.6250   -5.9000    5.8940 C.3   324  306324      0.0174
     30  C27       24.2870   -6.4300    5.3790 C.3   324  306324      0.0029
     31  C28       23.3440   -5.2420    5.2690 C.3   324  306324      0.0174
     32  C29       23.2000   -4.5960    6.6450 C.3   324  306324      0.0724
@<TRIPOS>BOND
     1    31    30    1
     2    31    32    1
     3    30    29    1
     4    29    28    1
     5    32    27    1
     6    27    28    1
     7    27    15    1
     8    11    12   ar
     9    11    10   ar
    10    12    13   ar
    11    26    23    2
    12    10     8    2
    13    10     9   ar
    14    15    13    1
    15    13    14   ar
    16     8     6    2
    17    23    22    2
    18    23    24    1
    19     9    14   ar
    20     9     7    2
    21     6    24    1
    22     6     7    1
    23    22    21    2
    24    24    25    1
    25    21    18   ar
    26    21    20   ar
    27    18    17   ar
    28    25    20    2
    29    20    19   ar
    30    17    16   ar
    31    19    16   ar
    32    16     2    1
    33     2     3   ar
    34     2     1   ar
    35     3     4   ar
    36     1     5   ar
    37     4     5   ar
