@<TRIPOS>MOLECULE
2hy8_1ST_1_1.pdb
 36 43 0 0 0
SMALL
GASTEIGER

@<TRIPOS>ATOM
      1  C1        10.3990   70.1410   13.5350 C.ar  201  1ST201      0.0015
      2  C2         9.0730   70.4100   13.9160 C.ar  201  1ST201      0.0001
      3  C3         8.7100   70.5430   15.2650 C.ar  201  1ST201      0.0015
      4  C4         9.6490   70.4080   16.3080 C.ar  201  1ST201      0.0172
      5  C5        11.0180   70.1330   15.9580 C.ar  201  1ST201      0.0617
      6  N6        12.1880   69.9530   16.7420 N.ar  201  1ST201     -0.3054
      7  C7        13.2660   69.7270   15.8600 C.ar  201  1ST201      0.0774
      8  C8        14.6690   69.5200   16.1400 C.ar  201  1ST201      0.0783
      9  N9        15.3410   69.4560   17.3470 N.ar  201  1ST201     -0.3039
     10  C10       16.7070   69.2800   17.1150 C.ar  201  1ST201      0.0620
     11  C11       17.8190   69.1680   18.0100 C.ar  201  1ST201      0.0205
     12  C12       19.1020   69.0090   17.4460 C.ar  201  1ST201      0.0435
     13  C13       19.3000   68.9450   16.0580 C.ar  201  1ST201      0.1958
     14  C14       18.2130   69.0340   15.1510 C.ar  201  1ST201      0.0435
     15  C15       16.9060   69.1980   15.6940 C.ar  201  1ST201      0.0212
     16  C16       15.5910   69.3470   15.0620 C.ar  201  1ST201      0.0294
     17  C17       15.1040   69.3460   13.6880 C.ar  201  1ST201      0.0823
     18  C18       15.7810   69.1840   12.3730 C.1   201  1ST201      0.1501
     19  N19       14.8900   69.2740   11.3620 N.2   201  1ST201     -0.1976
     20  C20       13.5550   69.5100   11.9290 C.3   201  1ST201      0.1650
     21  C21       13.7270   69.5480   13.4390 C.ar  201  1ST201      0.0154
     22  C22       12.8080   69.7510   14.5070 C.ar  201  1ST201      0.0173
     23  C23       11.3710   70.0010   14.5700 C.ar  201  1ST201      0.0171
     24  C24       12.3690   70.0170   18.2430 C.3   201  1ST201      0.1915
     25  C25       12.6290   71.4970   18.6670 C.3   201  1ST201      0.1761
     26  C26       13.6250   71.5050   19.8600 C.3   201  1ST201      0.1086
     27  C27       14.9780   70.9410   19.3550 C.3   201  1ST201      0.0739
     28  C28       14.7700   69.5650   18.7040 C.3   201  1ST201      0.2078
     29  O29       13.4060   69.1330   18.6980 O.3   201  1ST201     -0.3186
     30  O30       16.9700   68.9870   12.2190 O.2   201  1ST201     -0.2222
     31  N31       13.7420   72.9010   20.4350 N.3   201  1ST201     -0.2152
     32  C32       14.8700   73.6740   19.8440 C.3   201  1ST201      0.1075
     33  O33       13.2450   72.2140   17.5590 O.3   201  1ST201     -0.3478
     34  C34       12.3550   73.2590   17.1520 C.3   201  1ST201      0.1743
     35  C35       11.1140   69.5500   19.0110 C.3   201  1ST201      0.0566
     36  O36       20.5650   68.8040   15.5730 O.3   201  1ST201     -0.2866
@<TRIPOS>BOND
     1    19    20    1
     2    19    18    2
     3    20    21    1
     4    30    18    2
     5    18    17    1
     6    21    17   ar
     7    21    22   ar
     8     1     2   ar
     9     1    23   ar
    10    17    16   ar
    11     2     3   ar
    12    22    23   ar
    13    22     7   ar
    14    23     5   ar
    15    16    15   ar
    16    16     8   ar
    17    14    15   ar
    18    14    13   ar
    19     3     4   ar
    20    36    13    1
    21    15    10   ar
    22     7     8   ar
    23     7     6   ar
    24     5     4   ar
    25     5     6   ar
    26    13    12   ar
    27     8     9   ar
    28     6    24    1
    29    10     9   ar
    30    10    11   ar
    31    34    33    1
    32     9    28    1
    33    12    11   ar
    34    33    25    1
    35    24    25    1
    36    24    29    1
    37    24    35    1
    38    25    26    1
    39    29    28    1
    40    28    27    1
    41    27    26    1
    42    32    31    1
    43    26    31    1
