@<TRIPOS>MOLECULE
2hyd_ADP_A_1.pdb
 27 29 0 0 0
SMALL
GASTEIGER

@<TRIPOS>ATOM
      1  PB        96.4760   55.5690  172.0210 P.3   700  ADP700      0.5373
      2  O1B       96.6730   56.7870  171.2060 O.2   700  ADP700     -0.2221
      3  O2B       94.9930   55.4940  172.5340 O.3   700  ADP700     -0.1143
      4  O3B       97.4040   55.5990  173.3140 O.3   700  ADP700     -0.1143
      5  PA        98.2130   54.3120  170.6770 P.3   700  ADP700      0.2231
      6  O1A       98.1940   55.2000  169.5000 O.2   700  ADP700     -0.5169
      7  O2A       99.2140   54.9800  171.7460 O.3   700  ADP700     -0.4370
      8  O3A       96.7160   54.2360  171.1440 O.3   700  ADP700     -0.2261
      9  O5'       98.6380   52.8470  170.0930 O.3   700  ADP700     -0.3111
     10  C5'      100.0570   52.9310  170.0740 C.3   700  ADP700      0.1813
     11  C4'      100.6860   51.6300  169.6840 C.3   700  ADP700      0.1821
     12  O4'      100.4000   51.3770  168.3070 O.3   700  ADP700     -0.3135
     13  C3'      102.1890   51.7670  169.8630 C.3   700  ADP700      0.2184
     14  O3'      102.6310   50.8490  170.8430 O.3   700  ADP700     -0.2174
     15  C2'      102.8240   51.5560  168.5090 C.3   700  ADP700      0.2570
     16  O2'      103.7650   50.4550  168.5100 O.3   700  ADP700     -0.2130
     17  C1'      101.6480   51.3280  167.5530 C.3   700  ADP700      0.3186
     18  N9       101.6700   52.3590  166.5350 N.pl3 700  ADP700     -0.1439
     19  C8       101.0800   53.5890  166.5740 C.3   700  ADP700      0.3377
     20  N7       101.3130   54.2420  165.4800 N.2   700  ADP700     -0.2095
     21  C5       102.0610   53.4720  164.6790 C.2   700  ADP700      0.2526
     22  C6       102.6290   53.6080  163.3880 C.2   700  ADP700      0.4393
     23  N6       102.4480   54.7600  162.6530 N.pl3 700  ADP700      0.2180
     24  N1       103.3520   52.5830  162.8900 N.2   700  ADP700      0.0021
     25  C2       103.5380   51.4440  163.5900 C.3   700  ADP700      0.5254
     26  N3       103.0240   51.2760  164.7960 N.2   700  ADP700     -0.0055
     27  C4       102.2900   52.2490  165.3610 C.2   700  ADP700      0.3518
@<TRIPOS>BOND
     1    23    22    1
     2    24    22    2
     3    24    25    1
     4    22    21    1
     5    25    26    1
     6    21    27    1
     7    21    20    2
     8    26    27    2
     9    27    18    1
    10    20    19    1
    11    18    19    1
    12    18    17    1
    13    17    12    1
    14    17    15    1
    15    12    11    1
    16    15    16    1
    17    15    13    1
    18     6     5    2
    19    11    13    1
    20    11    10    1
    21    13    14    1
    22    10     9    1
    23     9     5    1
    24     5     8    1
    25     5     7    1
    26     8     1    1
    27     2     1    2
    28     1     3    1
    29     1     4    1
