@<TRIPOS>MOLECULE
2hyq_MAN_A_1.pdb
 11 11 0 0 0
SMALL
GASTEIGER

@<TRIPOS>ATOM
      1  C1       -27.6300   13.0750   25.0160 C.3   123  MAN123      0.1777
      2  C2       -28.8980   12.6930   25.7960 C.3   123  MAN123      0.2141
      3  C3       -28.6240   11.5830   26.7400 C.3   123  MAN123      0.2173
      4  C4       -27.8960   10.4200   26.0270 C.3   123  MAN123      0.2142
      5  C5       -26.6980   10.9370   25.2220 C.3   123  MAN123      0.1810
      6  C6       -26.0220    9.7930   24.4330 C.3   123  MAN123      0.2141
      7  O2       -29.9200   12.2990   24.8830 O.3   123  MAN123     -0.2176
      8  O3       -29.8440   11.1170   27.2880 O.3   123  MAN123     -0.2175
      9  O4       -27.4580    9.5010   26.9690 O.3   123  MAN123     -0.2176
     10  O5       -27.1280   11.9280   24.3320 O.3   123  MAN123     -0.3481
     11  O6       -26.8190    9.4640   23.2890 O.3   123  MAN123     -0.2176
@<TRIPOS>BOND
     1    11     6    1
     2    10     1    1
     3    10     5    1
     4     6     5    1
     5     7     2    1
     6     1     2    1
     7     5     4    1
     8     2     3    1
     9     4     3    1
    10     4     9    1
    11     3     8    1
