@<TRIPOS>MOLECULE
2hyr_BGC_A_1.pdb
 12 12 0 0 0
SMALL
GASTEIGER

@<TRIPOS>ATOM
      1  C2         5.4940  -10.1070   25.1060 C.3   126  BGC126      0.2434
      2  C3         6.8750   -9.4760   24.9760 C.3   126  BGC126      0.2199
      3  C4         6.7790   -8.0840   24.3610 C.3   126  BGC126      0.2144
      4  C5         5.7060   -7.2550   25.0580 C.3   126  BGC126      0.1836
      5  C6         5.5480   -5.8930   24.3920 C.3   126  BGC126      0.2142
      6  C1         4.5180   -9.1390   25.7610 C.3   126  BGC126      0.3024
      7  O1         3.2340   -9.7180   25.8040 O.3   126  BGC126     -0.1869
      8  O2         5.5820  -11.2830   25.8790 O.3   126  BGC126     -0.2148
      9  O3         7.6930  -10.2940   24.1690 O.3   126  BGC126     -0.2174
     10  O4         8.0240   -7.4310   24.4720 O.3   126  BGC126     -0.2176
     11  O5         4.4750   -7.9410   25.0190 O.3   126  BGC126     -0.3236
     12  O6         5.3320   -4.9100   25.3800 O.3   126  BGC126     -0.2176
@<TRIPOS>BOND
     1     9     2    1
     2     3    10    1
     3     3     2    1
     4     3     4    1
     5     5     4    1
     6     5    12    1
     7     2     1    1
     8    11     4    1
     9    11     6    1
    10     1     6    1
    11     1     8    1
    12     6     7    1
