@<TRIPOS>MOLECULE
2hyr_GLC_A_1.pdb
 11 11 0 0 0
SMALL
GASTEIGER

@<TRIPOS>ATOM
      1  C1        -2.8580   -5.7210   15.3310 C.3   123  GLC123      0.1777
      2  C2        -2.6530   -6.8240   14.3020 C.3   123  GLC123      0.2141
      3  C3        -1.4990   -7.7210   14.7290 C.3   123  GLC123      0.2173
      4  C4        -0.2650   -6.8730   15.0090 C.3   123  GLC123      0.2142
      5  C5        -0.5940   -5.7260   15.9600 C.3   123  GLC123      0.1810
      6  C6         0.6140   -4.8150   16.1470 C.3   123  GLC123      0.2141
      7  O2        -3.8330   -7.5860   14.1760 O.3   123  GLC123     -0.2176
      8  O3        -1.2170   -8.6560   13.7120 O.3   123  GLC123     -0.2175
      9  O4         0.7440   -7.6800   15.5740 O.3   123  GLC123     -0.2176
     10  O5        -1.6720   -4.9660   15.4530 O.3   123  GLC123     -0.3481
     11  O6         0.9060   -4.1710   14.9270 O.3   123  GLC123     -0.2176
@<TRIPOS>BOND
     1     8     3    1
     2     7     2    1
     3     2     3    1
     4     2     1    1
     5     3     4    1
     6    11     6    1
     7     4     9    1
     8     4     5    1
     9     1    10    1
    10    10     5    1
    11     5     6    1
