@<TRIPOS>MOLECULE
2hys_HEM_A_1.pdb
 43 50 0 0 0
SMALL
GASTEIGER

@<TRIPOS>ATOM
      1 FE         17.4050   13.8350  117.0640 Fe    201  HEM201      0.0000
      2  CHA       17.6240   14.3490  120.3880 C.2   201  HEM201      0.0000
      3  CHB       20.4540   12.1620  117.1410 C.2   201  HEM201      0.0000
      4  CHC       16.7840   12.6410  113.9750 C.2   201  HEM201      0.0000
      5  CHD       14.8790   16.0950  116.7930 C.2   201  HEM201      0.0000
      6  NA        18.7720   13.3570  118.4660 N.2   201  HEM201      0.0000
      7  C1A       18.6890   13.6890  119.8530 C.2   201  HEM201      0.0000
      8  C2A       19.8510   13.1800  120.4960 C.2   201  HEM201      0.0000
      9  C3A       20.6300   12.5860  119.5990 C.2   201  HEM201      0.0000
     10  C4A       19.9580   12.6930  118.3160 C.2   201  HEM201      0.0000
     11  CMA       21.9970   11.9240  119.8090 C.3   201  HEM201      0.0000
     12  CAA       20.1120   13.3080  122.0190 C.3   201  HEM201      0.0000
     13  CBA       19.5270   12.1410  122.8290 C.3   201  HEM201      0.0000
     14  CGA       19.8600   12.3200  124.3360 C.2   201  HEM201      0.0000
     15  O1A       20.9370   11.9150  124.7540 O.co2 201  HEM201      0.0000
     16  O2A       19.0050   12.8450  125.0550 O.co2 201  HEM201      0.0000
     17  NB        18.3980   12.6050  115.8200 N.ar  201  HEM201      0.0000
     18  C1B       19.6350   12.0550  116.0140 C.ar  201  HEM201      0.0000
     19  C2B       19.9500   11.2490  114.8470 C.ar  201  HEM201      0.0000
     20  C3B       18.9110   11.3460  113.9900 C.ar  201  HEM201      0.0000
     21  C4B       17.9040   12.2040  114.5740 C.ar  201  HEM201      0.0000
     22  CMB       21.2350   10.5090  114.5940 C.3   201  HEM201      0.0000
     23  CAB       18.7040   10.7180  112.6270 C.2   201  HEM201      0.0000
     24  CBB       19.0850    9.4520  112.3970 C.2   201  HEM201      0.0000
     25  NC        16.0860   14.3380  115.6200 N.2   201  HEM201      0.0000
     26  C1C       15.9760   13.7100  114.4020 C.2   201  HEM201      0.0000
     27  C2C       14.9120   14.3730  113.6760 C.2   201  HEM201      0.0000
     28  C3C       14.4510   15.3490  114.4280 C.2   201  HEM201      0.0000
     29  C4C       15.1500   15.3010  115.6780 C.2   201  HEM201      0.0000
     30  CMC       14.4860   13.9770  112.2760 C.3   201  HEM201      0.0000
     31  CAC       13.3460   16.3560  114.1710 C.2   201  HEM201      0.0000
     32  CBC       12.3660   16.2950  113.2820 C.2   201  HEM201      0.0000
     33  ND        16.4210   15.0000  118.3780 N.ar  201  HEM201      0.0000
     34  C1D       15.3800   15.8570  118.0580 C.ar  201  HEM201      0.0000
     35  C2D       14.8510   16.4370  119.2650 C.ar  201  HEM201      0.0000
     36  C3D       15.6660   15.8620  120.3270 C.ar  201  HEM201      0.0000
     37  C4D       16.6630   15.0400  119.7580 C.ar  201  HEM201      0.0000
     38  CMD       13.6740   17.3860  119.4020 C.3   201  HEM201      0.0000
     39  CAD       15.5990   16.2440  121.7860 C.3   201  HEM201      0.0000
     40  CBD       14.9620   15.1130  122.5380 C.3   201  HEM201      0.0000
     41  CGD       15.1080   15.4460  124.0560 C.2   201  HEM201      0.0000
     42  O1D       15.7550   16.4200  124.5660 O.co2 201  HEM201      0.0000
     43  O2D       14.5980   14.6850  124.8550 O.co2 201  HEM201      0.0000
@<TRIPOS>BOND
     1    30    27    1
     2    24    23    2
     3    23    20    1
     4    32    31    2
     5    27    26    1
     6    27    28    2
     7     4    26    2
     8     4    21    1
     9    20    21   ar
    10    20    19   ar
    11    31    28    1
    12    26    25    1
    13    28    29    1
    14    21    17   ar
    15    22    19    1
    16    19    18   ar
    17    25    29    2
    18    25     1    1
    19    29     5    1
    20    17    18   ar
    21    17     1    1
    22    18     3    1
    23     5    34    2
    24     1    33    1
    25     1     6    1
    26     3    10    2
    27    34    33   ar
    28    34    35   ar
    29    10     6    1
    30    10     9    1
    31    33    37   ar
    32     6     7    2
    33    35    38    1
    34    35    36   ar
    35     9    11    1
    36     9     8    2
    37    37    36   ar
    38    37     2    2
    39     7     2    1
    40     7     8    1
    41    36    39    1
    42     8    12    1
    43    39    40    1
    44    12    13    1
    45    40    41    1
    46    13    14    1
    47    41    42   ar
    48    41    43   ar
    49    14    15   ar
    50    14    16   ar
