@<TRIPOS>MOLECULE
2hyu_IDS_A_1.pdb
 15 15 0 0 0
SMALL
GASTEIGER

@<TRIPOS>ATOM
      1  C1        89.9760   -4.6350   51.2390 C.3   803  IDS803      0.1772
      2  C2        89.4710   -3.8020   50.0610 C.3   803  IDS803      0.2028
      3  C3        90.4390   -3.8810   48.8880 C.3   803  IDS803      0.1868
      4  C4        90.6920   -5.3450   48.5320 C.3   803  IDS803      0.0768
      5  C5        91.1700   -6.1020   49.7690 C.3   803  IDS803      0.2204
      6  C6        91.3460   -7.5760   49.4430 C.2   803  IDS803      0.3914
      7  O2        88.1660   -4.2160   49.6810 O.3   803  IDS803     -0.2385
      8  O3        91.6350   -3.1870   49.1630 O.3   803  IDS803     -0.2203
      9  O5        90.1870   -5.9850   50.8110 O.3   803  IDS803     -0.3422
     10  O61       92.2480   -7.9010   48.6460 O.co2 803  IDS803     -0.2430
     11  O62       90.6160   -8.4150   50.0110 O.co2 803  IDS803     -0.2430
     12  S         86.7940   -3.3170   50.3260 S.3   803  IDS803     -0.0001
     13  O1S       85.5470   -3.9020   49.8000 O.2   803  IDS803     -0.3452
     14  O2S       86.9090   -1.9070   49.9170 O.2   803  IDS803     -0.3452
     15  O3S       86.8010   -3.4150   51.7970 O.3   803  IDS803     -0.2682
@<TRIPOS>BOND
     1     4     3    1
     2     4     5    1
     3    10     6   ar
     4     3     8    1
     5     3     2    1
     6     6     5    1
     7     6    11   ar
     8     7     2    1
     9     7    12    1
    10     5     9    1
    11    13    12    2
    12    14    12    2
    13     2     1    1
    14    12    15    1
    15     9     1    1
