@<TRIPOS>MOLECULE
2hyu_SGN_A_1.pdb
 20 20 0 0 0
SMALL
GASTEIGER

@<TRIPOS>ATOM
      1  C1        90.2870   -3.9120   55.8240 C.3   804  SGN804      0.2895
      2  C2        90.3610   -2.5990   55.0450 C.3   804  SGN804      0.1858
      3  C3        90.2050   -2.8630   53.5550 C.3   804  SGN804      0.2073
      4  C4        91.2790   -3.8470   53.1250 C.3   804  SGN804      0.2133
      5  C5        91.1340   -5.1360   53.9330 C.3   804  SGN804      0.1826
      6  C6        92.1700   -6.1760   53.5350 C.3   804  SGN804      0.2046
      7  N         89.2710   -1.7530   55.4610 N.3   804  SGN804     -0.1129
      8  O1        88.9760   -4.4710   55.7450 O.3   804  SGN804     -0.1882
      9  O3        90.3590   -1.6610   52.8350 O.3   804  SGN804     -0.2186
     10  O4        91.2030   -4.0800   51.7160 O.3   804  SGN804     -0.2176
     11  O5        91.2750   -4.8230   55.3260 O.3   804  SGN804     -0.3245
     12  O6        93.4740   -5.6430   53.7400 O.3   804  SGN804     -0.2384
     13  S1        89.4550   -0.7670   56.9050 S.3   804  SGN804     -0.1288
     14  O1S       88.2940    0.1400   57.0040 O.3   804  SGN804     -0.2918
     15  O2S       90.6950    0.0240   56.8020 O.3   804  SGN804     -0.2918
     16  O3S       89.5170   -1.6370   58.0950 O.3   804  SGN804     -0.2918
     17  S2        94.8540   -6.4440   52.9850 S.3   804  SGN804     -0.0001
     18  O4S       94.4760   -6.8870   51.6290 O.2   804  SGN804     -0.3452
     19  O5S       95.2360   -7.6160   53.7950 O.3   804  SGN804     -0.2682
     20  O6S       95.9840   -5.5000   52.8990 O.2   804  SGN804     -0.3452
@<TRIPOS>BOND
     1    18    17    2
     2    10     4    1
     3     9     3    1
     4    20    17    2
     5    17    12    1
     6    17    19    1
     7     4     3    1
     8     4     5    1
     9     6    12    1
    10     6     5    1
    11     3     2    1
    12     5    11    1
    13     2     7    1
    14     2     1    1
    15    11     1    1
    16     7    13    1
    17     8     1    1
    18    15    13    1
    19    13    14    1
    20    13    16    1
