@<TRIPOS>MOLECULE
2hyu_UAP_A_1.pdb
 15 15 0 0 0
SMALL
GASTEIGER

@<TRIPOS>ATOM
      1  C1        87.6340  -10.3810   44.5830 C.3   801  UAP801      0.2404
      2  C2        87.1230  -11.8000   44.7690 C.3   801  UAP801      0.2210
      3  C3        85.7380  -11.7980   45.4000 C.3   801  UAP801      0.2103
      4  C4        84.9370  -10.6970   44.9020 C.2   801  UAP801      0.0526
      5  C5        85.4230   -9.6990   44.1270 C.2   801  UAP801      0.2164
      6  C6        84.5980   -8.7260   43.7240 C.2   801  UAP801      0.4208
      7  O2        87.0360  -12.4220   43.4910 O.3   801  UAP801     -0.2368
      8  O3        85.8400  -11.7290   46.8060 O.3   801  UAP801     -0.2153
      9  O5        86.7170   -9.6620   43.7550 O.2   801  UAP801     -0.4664
     10  O61       83.3970   -8.7570   44.0670 O.co2 801  UAP801     -0.2371
     11  O62       85.0380   -7.8000   43.0120 O.co2 801  UAP801     -0.2371
     12  S         88.0450  -13.8270   43.1460 S.3   801  UAP801     -0.0000
     13  O1S       87.8620  -14.2220   41.7380 O.2   801  UAP801     -0.3452
     14  O2S       87.6480  -14.9320   44.0360 O.3   801  UAP801     -0.2682
     15  O3S       89.4570  -13.4820   43.3890 O.2   801  UAP801     -0.3452
@<TRIPOS>BOND
     1    13    12    2
     2    11     6   ar
     3    12    15    2
     4    12     7    1
     5    12    14    1
     6     7     2    1
     7     6    10   ar
     8     6     5    1
     9     9     5    1
    10     9     1    1
    11     5     4    2
    12     1     2    1
    13     2     3    1
    14     4     3    1
    15     3     8    1
