@<TRIPOS>MOLECULE
2hyv_SGN_A_1.pdb
 20 20 0 0 0
SMALL
GASTEIGER

@<TRIPOS>ATOM
      1  C1        89.2900   -5.8810   46.4420 C.3   802  SGN802      0.2895
      2  C2        87.8710   -6.0050   45.9030 C.3   802  SGN802      0.1858
      3  C3        87.2940   -7.3760   46.1970 C.3   802  SGN802      0.2073
      4  C4        88.2330   -8.3940   45.5820 C.3   802  SGN802      0.2133
      5  C5        89.6160   -8.2460   46.2100 C.3   802  SGN802      0.1826
      6  C6        90.5790   -9.2790   45.6690 C.3   802  SGN802      0.2046
      7  N         87.0490   -5.0220   46.5550 N.3   802  SGN802     -0.1129
      8  O1        89.2880   -5.8730   47.8640 O.3   802  SGN802     -0.1882
      9  O3        86.0130   -7.4870   45.6150 O.3   802  SGN802     -0.2186
     10  O4        87.7180   -9.7130   45.7110 O.3   802  SGN802     -0.2176
     11  O5        90.1080   -6.9330   45.9140 O.3   802  SGN802     -0.3245
     12  O6        90.6600   -9.1110   44.2600 O.3   802  SGN802     -0.2384
     13  S1        86.8220   -3.5040   45.7160 S.3   802  SGN802     -0.1288
     14  O1S       85.8180   -2.7050   46.4490 O.3   802  SGN802     -0.2918
     15  O2S       86.3500   -3.7880   44.3460 O.3   802  SGN802     -0.2918
     16  O3S       88.0980   -2.7810   45.6590 O.3   802  SGN802     -0.2918
     17  S2        92.1480   -9.5820   43.4670 S.3   802  SGN802     -0.0001
     18  O4S       93.2140   -8.6330   43.8280 O.2   802  SGN802     -0.3452
     19  O5S       91.9320   -9.5600   42.0090 O.2   802  SGN802     -0.3452
     20  O6S       92.5150  -10.9380   43.9180 O.3   802  SGN802     -0.2682
@<TRIPOS>BOND
     1    19    17    2
     2    17    18    2
     3    17    20    1
     4    17    12    1
     5    12     6    1
     6    15    13    1
     7     4    10    1
     8     4     3    1
     9     4     5    1
    10     9     3    1
    11    16    13    1
    12     6     5    1
    13    13    14    1
    14    13     7    1
    15     2     3    1
    16     2     1    1
    17     2     7    1
    18    11     5    1
    19    11     1    1
    20     1     8    1
