@<TRIPOS>MOLECULE
2hyv_IDS_A_1.pdb
 15 15 0 0 0
SMALL
GASTEIGER

@<TRIPOS>ATOM
      1  C1        89.6930   -4.4740   51.0950 C.3   803  IDS803      0.1772
      2  C2        89.1790   -3.6720   49.9000 C.3   803  IDS803      0.2028
      3  C3        90.1440   -3.7590   48.7250 C.3   803  IDS803      0.1868
      4  C4        90.4360   -5.2230   48.4020 C.3   803  IDS803      0.0768
      5  C5        90.9130   -5.9510   49.6550 C.3   803  IDS803      0.2204
      6  C6        91.1000   -7.4280   49.3530 C.2   803  IDS803      0.3914
      7  O2        87.8880   -4.1230   49.5200 O.3   803  IDS803     -0.2385
      8  O3        91.3140   -3.0090   48.9470 O.3   803  IDS803     -0.2203
      9  O5        89.9200   -5.8300   50.6840 O.3   803  IDS803     -0.3422
     10  O61       91.9990   -7.7560   48.5510 O.co2 803  IDS803     -0.2430
     11  O62       90.3830   -8.2600   49.9500 O.co2 803  IDS803     -0.2430
     12  S         86.5010   -3.2330   50.1270 S.3   803  IDS803     -0.0001
     13  O1S       85.2770   -3.8450   49.5750 O.2   803  IDS803     -0.3452
     14  O2S       86.6190   -1.8280   49.7060 O.2   803  IDS803     -0.3452
     15  O3S       86.4960   -3.3260   51.5990 O.3   803  IDS803     -0.2682
@<TRIPOS>BOND
     1     4     3    1
     2     4     5    1
     3    10     6   ar
     4     3     8    1
     5     3     2    1
     6     6     5    1
     7     6    11   ar
     8     7     2    1
     9     7    12    1
    10    13    12    2
    11     5     9    1
    12    14    12    2
    13     2     1    1
    14    12    15    1
    15     9     1    1
