@<TRIPOS>MOLECULE
2hyv_UAP_A_1.pdb
 15 15 0 0 0
SMALL
GASTEIGER

@<TRIPOS>ATOM
      1  C1        87.4970  -10.3210   44.4420 C.3   801  UAP801      0.2404
      2  C2        87.0570  -11.7600   44.6080 C.3   801  UAP801      0.2210
      3  C3        85.6850  -11.8480   45.2550 C.3   801  UAP801      0.2103
      4  C4        84.8040  -10.8180   44.7500 C.2   801  UAP801      0.0526
      5  C5        85.2310   -9.7710   44.0100 C.2   801  UAP801      0.2164
      6  C6        84.3420   -8.8620   43.6100 C.2   801  UAP801      0.4208
      7  O2        86.9880  -12.3400   43.3160 O.3   801  UAP801     -0.2368
      8  O3        85.8010  -11.7420   46.6580 O.3   801  UAP801     -0.2153
      9  O5        86.5260   -9.6110   43.6710 O.2   801  UAP801     -0.4664
     10  O61       83.1400   -9.0010   43.9220 O.co2 801  UAP801     -0.2371
     11  O62       84.7270   -7.8840   42.9350 O.co2 801  UAP801     -0.2371
     12  S         87.9090  -13.8040   43.0080 S.3   801  UAP801     -0.0000
     13  O1S       87.7110  -14.1850   41.5980 O.2   801  UAP801     -0.3452
     14  O2S       87.4200  -14.8720   43.8970 O.3   801  UAP801     -0.2682
     15  O3S       89.3360  -13.5470   43.2690 O.2   801  UAP801     -0.3452
@<TRIPOS>BOND
     1    13    12    2
     2    11     6   ar
     3    12    15    2
     4    12     7    1
     5    12    14    1
     6     7     2    1
     7     6    10   ar
     8     6     5    1
     9     9     5    1
    10     9     1    1
    11     5     4    2
    12     1     2    1
    13     2     3    1
    14     4     3    1
    15     3     8    1
