@<TRIPOS>MOLECULE
2hyy_STI_A_1.pdb
 37 41 0 0 0
SMALL
GASTEIGER

@<TRIPOS>ATOM
      1  C1        22.8270   11.7250   13.7800 C.ar  600  STI600      0.0208
      2  C6        22.0360   12.1770   14.8390 C.ar  600  STI600      0.0057
      3  C5        20.6680   11.8090   14.9590 C.ar  600  STI600      0.0497
      4  C4        20.1400   11.0010   13.9470 C.ar  600  STI600      0.1014
      5  N3        20.8920   10.5700   12.9040 N.ar  600  STI600     -0.2422
      6  C2        22.1760   10.9310   12.8420 C.ar  600  STI600      0.0989
      7  C7        19.7780   12.2610   16.1190 C.2   600  STI600      0.1472
      8  C12       20.2660   12.8280   17.2280 C.2   600  STI600      0.0546
      9  C11       19.3470   13.1770   18.2350 C.2   600  STI600      0.1144
     10  N10       18.0470   12.9440   18.0700 N.2   600  STI600     -0.1683
     11  C9        17.5930   12.3830   16.9620 C.1   600  STI600      0.1696
     12  N8        18.4330   12.0210   15.9770 N.2   600  STI600     -0.3361
     13  N13       16.2540   12.1250   16.6950 N.pl3 600  STI600     -0.1360
     14  C14       15.3460   12.2710   17.7100 C.ar  600  STI600      0.0799
     15  C19       15.2340   11.3050   18.7320 C.ar  600  STI600     -0.0057
     16  C18       14.2850   11.5390   19.7140 C.ar  600  STI600     -0.0016
     17  C17       13.4510   12.6990   19.6990 C.ar  600  STI600      0.0164
     18  C16       13.5600   13.6330   18.6980 C.ar  600  STI600      0.0750
     19  C15       14.5060   13.4010   17.6880 C.ar  600  STI600      0.0336
     20  N21       12.6590   14.7350   18.8140 N.am  600  STI600     -0.1754
     21  C22       12.5890   15.6820   17.8510 C.2   600  STI600      0.2690
     22  C23       11.4550   16.6420   17.9000 C.ar  600  STI600      0.0554
     23  C25       11.0790   17.3300   16.7130 C.ar  600  STI600      0.0043
     24  C26       10.0060   18.2850   16.6780 C.ar  600  STI600     -0.0028
     25  C27        9.2980   18.5360   17.8690 C.ar  600  STI600     -0.0061
     26  C28        9.6620   17.8540   19.0650 C.ar  600  STI600     -0.0028
     27  C29       10.7360   16.9080   19.1120 C.ar  600  STI600      0.0043
     28  C46        8.1960   19.5290   17.8320 C.3   600  STI600      0.0992
     29  N48        8.1910   20.4060   18.9880 N.3   600  STI600     -0.2665
     30  C53        9.4550   21.1520   19.1060 C.3   600  STI600      0.0899
     31  C52        9.4480   22.0490   20.4020 C.3   600  STI600      0.0897
     32  N51        8.1500   22.8120   20.4470 N.3   600  STI600     -0.2691
     33  C54        8.1830   23.6190   21.6400 C.3   600  STI600      0.0897
     34  C50        6.9280   22.0290   20.3800 C.3   600  STI600      0.0897
     35  C49        6.9520   21.2300   19.0530 C.3   600  STI600      0.0899
     36  O29       13.3990   15.8030   16.9310 O.2   600  STI600     -0.2680
     37  C20       16.0750   10.0530   18.8150 C.3   600  STI600      0.0324
@<TRIPOS>BOND
     1     6     5   ar
     2     6     1   ar
     3     5     4   ar
     4     1     2   ar
     5     4     3   ar
     6     2     3   ar
     7     3     7    1
     8    12     7    2
     9    12    11    2
    10     7     8    1
    11    24    23   ar
    12    24    25   ar
    13    13    11    1
    14    13    14    1
    15    23    22   ar
    16    36    21    2
    17    11    10    2
    18     8     9    2
    19    19    14   ar
    20    19    18   ar
    21    14    15   ar
    22    28    25    1
    23    28    29    1
    24    21    22    1
    25    21    20   am
    26    25    26   ar
    27    22    27   ar
    28    10     9    1
    29    18    20    1
    30    18    17   ar
    31    15    37    1
    32    15    16   ar
    33    29    35    1
    34    29    30    1
    35    35    34    1
    36    26    27   ar
    37    30    31    1
    38    17    16   ar
    39    34    32    1
    40    31    32    1
    41    32    33    1
