@<TRIPOS>MOLECULE
2hz0_GIN_A_1.pdb
 31 33 0 0 0
SMALL
GASTEIGER

@<TRIPOS>ATOM
      1  C12       17.2420   46.0320   56.8250 C.2   600  GIN600      0.2702
      2  C16       15.7470   47.8320   57.4430 C.ar  600  GIN600      0.0736
      3  C19       14.4090   50.3600   56.9830 C.ar  600  GIN600     -0.0182
      4  C20       14.8590   49.9640   58.3070 C.ar  600  GIN600     -0.0030
      5  C21       15.5090   48.7220   58.5360 C.ar  600  GIN600      0.0163
      6  C24       13.7030   51.7030   56.8420 C.3   600  GIN600      0.0263
      7  C30       12.1600   51.6060   57.1500 C.3   600  GIN600      0.0047
      8  C31       11.5280   53.0130   57.0430 C.3   600  GIN600      0.0004
      9  C32       21.1330   44.7780   55.7300 C.3   600  GIN600      0.1401
     10  C33       21.5200   43.7220   54.6540 C.2   600  GIN600      0.0200
     11  C34       22.9030   43.5140   54.3430 C.2   600  GIN600      0.0114
     12  C35       23.2970   42.6080   53.4130 C.2   600  GIN600      0.0938
     13  C01       17.6950   44.6690   57.2480 C.ar  600  GIN600      0.0702
     14  C02       16.9120   43.9220   58.1500 C.ar  600  GIN600      0.0059
     15  C03       17.3140   42.6430   58.5800 C.ar  600  GIN600      0.0002
     16  C04       18.5090   42.0730   58.0980 C.ar  600  GIN600      0.0013
     17  C05       19.2990   42.8130   57.1600 C.ar  600  GIN600      0.0162
     18  C06       18.8950   44.0910   56.7410 C.ar  600  GIN600      0.0701
     19  N11       19.6700   44.8250   55.8060 N.pl3 600  GIN600     -0.2326
     20  N13       16.3500   46.5940   57.6570 N.am  600  GIN600     -0.1754
     21  O14       17.6800   46.5710   55.7840 O.2   600  GIN600     -0.2680
     22  C17       15.3110   48.2240   56.1630 C.ar  600  GIN600      0.0201
     23  C18       14.6630   49.4880   55.9000 C.ar  600  GIN600      0.0688
     24  C23       14.2360   49.8090   54.4500 C.3   600  GIN600      0.4183
     25  F27       14.5140   48.8110   53.5930 F     600  GIN600     -0.1659
     26  F28       12.9660   50.0550   54.2750 F     600  GIN600     -0.1659
     27  F29       14.8620   50.8670   53.9810 F     600  GIN600     -0.1659
     28  C36       22.3460   41.8030   52.6680 C.1   600  GIN600      0.1551
     29  N37       21.0100   42.0490   53.0140 N.2   600  GIN600     -0.1749
     30  C38       20.5990   42.9810   53.9710 C.2   600  GIN600      0.1085
     31  O41       22.6730   40.9640   51.8600 O.2   600  GIN600     -0.2219
@<TRIPOS>BOND
     1    31    28    2
     2    28    29    2
     3    28    12    1
     4    29    30    1
     5    12    11    2
     6    25    24    1
     7    30    10    2
     8    27    24    1
     9    26    24    1
    10    11    10    1
    11    24    23    1
    12    10     9    1
    13     9    19    1
    14    21     1    2
    15    19    18    1
    16    23    22   ar
    17    23     3   ar
    18    22     2   ar
    19    18    17   ar
    20    18    13   ar
    21     1    13    1
    22     1    20   am
    23     6     3    1
    24     6     7    1
    25     3     4   ar
    26     8     7    1
    27    17    16   ar
    28    13    14   ar
    29     2    20    1
    30     2     5   ar
    31    16    15   ar
    32    14    15   ar
    33     4     5   ar
