@<TRIPOS>MOLECULE
2hz1_HEM_A_1.pdb
 43 50 0 0 0
SMALL
GASTEIGER

@<TRIPOS>ATOM
      1  CHA        4.1080    6.5790    6.0830 C.2   125  HEM125      0.0000
      2  CHB        8.7080    5.6800    6.5620 C.2   125  HEM125      0.0000
      3  CHC        9.2250    9.3740    9.5430 C.2   125  HEM125      0.0000
      4  CHD        4.5490    9.8620    9.5380 C.2   125  HEM125      0.0000
      5  C1A        5.3500    6.0960    5.8610 C.ar  125  HEM125      0.0000
      6  C2A        5.6260    5.0140    4.9590 C.ar  125  HEM125      0.0000
      7  C3A        6.9100    4.7620    5.0800 C.ar  125  HEM125      0.0000
      8  C4A        7.4210    5.6520    6.1070 C.ar  125  HEM125      0.0000
      9  CMA        7.6200    3.6020    4.3890 C.3   125  HEM125      0.0000
     10  CAA        4.6550    4.3320    4.0140 C.3   125  HEM125      0.0000
     11  CBA        3.7170    3.3340    4.5650 C.3   125  HEM125      0.0000
     12  CGA        2.6790    2.8870    3.5880 C.2   125  HEM125      0.0000
     13  O1A        2.3270    3.5740    2.6280 O.co2 125  HEM125      0.0000
     14  O2A        2.2310    1.7510    3.8770 O.co2 125  HEM125      0.0000
     15  C1B        9.2900    6.6240    7.3810 C.2   125  HEM125      0.0000
     16  C2B       10.7110    6.7200    7.6940 C.2   125  HEM125      0.0000
     17  C3B       10.8530    7.7680    8.5300 C.2   125  HEM125      0.0000
     18  C4B        9.5170    8.2950    8.7190 C.2   125  HEM125      0.0000
     19  CMB       11.7240    5.7020    7.2260 C.3   125  HEM125      0.0000
     20  CAB       11.9850    8.1730    9.2570 C.3   125  HEM125      0.0000
     21  CBB       13.0190    7.2890    9.7630 C.3   125  HEM125      0.0000
     22  C1C        7.9590    9.8320    9.7850 C.ar  125  HEM125      0.0000
     23  C2C        7.7390   10.9210   10.6840 C.ar  125  HEM125      0.0000
     24  C3C        6.3950   11.0710   10.7260 C.ar  125  HEM125      0.0000
     25  C4C        5.8510   10.0230    9.8830 C.ar  125  HEM125      0.0000
     26  CMC        8.7280   11.7360   11.5020 C.3   125  HEM125      0.0000
     27  CAC        5.7990   12.0300   11.5680 C.3   125  HEM125      0.0000
     28  CBC        4.4690   11.9190   12.0630 C.3   125  HEM125      0.0000
     29  C1D        4.0220    9.0020    8.6220 C.2   125  HEM125      0.0000
     30  C2D        2.6430    8.9730    8.2480 C.2   125  HEM125      0.0000
     31  C3D        2.5440    8.0750    7.2670 C.2   125  HEM125      0.0000
     32  C4D        3.8570    7.5800    6.9880 C.2   125  HEM125      0.0000
     33  CMD        1.5670    9.8260    8.9070 C.3   125  HEM125      0.0000
     34  CAD        1.2490    7.7610    6.6240 C.3   125  HEM125      0.0000
     35  CBD        0.3960    6.7930    7.3730 C.3   125  HEM125      0.0000
     36  CGD        0.9010    5.3860    7.3780 C.2   125  HEM125      0.0000
     37  O1D        1.4990    4.9050    8.3310 O.co2 125  HEM125      0.0000
     38  O2D        0.6490    4.7360    6.3180 O.co2 125  HEM125      0.0000
     39  NA         6.4690    6.4910    6.5780 N.ar  125  HEM125      0.0000
     40  NB         8.5750    7.5950    8.0080 N.2   125  HEM125      0.0000
     41  NC         6.8140    9.2660    9.2920 N.ar  125  HEM125      0.0000
     42  ND         4.7430    8.1780    7.8270 N.2   125  HEM125      0.0000
     43 FE          6.6580    7.9060    7.9370 Fe    125  HEM125      0.0000
@<TRIPOS>BOND
     1    13    12   ar
     2    12    14   ar
     3    12    11    1
     4    10    11    1
     5    10     6    1
     6     9     7    1
     7     6     7   ar
     8     6     5   ar
     9     7     8   ar
    10     5     1    2
    11     5    39   ar
    12     1    32    1
    13     8     2    2
    14     8    39   ar
    15    38    36   ar
    16     2    15    1
    17    39    43    1
    18    34    31    1
    19    34    35    1
    20    32    31    1
    21    32    42    2
    22    19    16    1
    23    31    30    2
    24    35    36    1
    25    36    37   ar
    26    15    16    1
    27    15    40    2
    28    16    17    2
    29    42    43    1
    30    42    29    1
    31    43    40    1
    32    43    41    1
    33    40    18    1
    34    30    29    1
    35    30    33    1
    36    17    18    1
    37    17    20    1
    38    29     4    2
    39    18     3    2
    40    20    21    1
    41    41    22   ar
    42    41    25   ar
    43     4    25    1
    44     3    22    1
    45    22    23   ar
    46    25    24   ar
    47    23    24   ar
    48    23    26    1
    49    24    27    1
    50    27    28    1
