@<TRIPOS>MOLECULE
2hz2_HEM_A_1.pdb
 43 50 0 0 0
SMALL
GASTEIGER

@<TRIPOS>ATOM
      1  CHA        4.7280    6.5730    5.9120 C.2   125  HEM125      0.0000
      2  CHB        9.3000    5.6990    7.0070 C.2   125  HEM125      0.0000
      3  CHC        9.4110    9.7130    9.6570 C.2   125  HEM125      0.0000
      4  CHD        4.6300    9.7270    9.6010 C.2   125  HEM125      0.0000
      5  C1A        5.9830    6.0610    5.9580 C.ar  125  HEM125      0.0000
      6  C2A        6.4190    4.9770    5.1370 C.ar  125  HEM125      0.0000
      7  C3A        7.6380    4.6420    5.5480 C.ar  125  HEM125      0.0000
      8  C4A        8.0180    5.5880    6.5560 C.ar  125  HEM125      0.0000
      9  CMA        8.3740    3.3960    4.9990 C.3   125  HEM125      0.0000
     10  CAA        5.6900    4.4100    3.9270 C.3   125  HEM125      0.0000
     11  CBA        4.6880    3.3620    4.1460 C.3   125  HEM125      0.0000
     12  CGA        3.9570    3.0340    2.8240 C.2   125  HEM125      0.0000
     13  O1A        4.4720    3.2190    1.6680 O.co2 125  HEM125      0.0000
     14  O2A        2.8050    2.5760    2.9740 O.co2 125  HEM125      0.0000
     15  C1B        9.7300    6.7140    7.8480 C.2   125  HEM125      0.0000
     16  C2B       11.0690    6.8630    8.2530 C.2   125  HEM125      0.0000
     17  C3B       11.0970    7.9860    9.0040 C.2   125  HEM125      0.0000
     18  C4B        9.7570    8.5630    8.9720 C.2   125  HEM125      0.0000
     19  CMB       12.2470    5.9210    7.9370 C.3   125  HEM125      0.0000
     20  CAB       12.2030    8.7080    9.4870 C.3   125  HEM125      0.0000
     21  CBB       13.5050    8.5870    8.8860 C.3   125  HEM125      0.0000
     22  C1C        8.1070   10.0960    9.9080 C.ar  125  HEM125      0.0000
     23  C2C        7.7020   11.1790   10.7950 C.ar  125  HEM125      0.0000
     24  C3C        6.3080   11.0880   10.8310 C.ar  125  HEM125      0.0000
     25  C4C        5.9270   10.0330    9.9270 C.ar  125  HEM125      0.0000
     26  CMC        8.6680   12.1450   11.4730 C.3   125  HEM125      0.0000
     27  CAC        5.2980   11.7450   11.5680 C.3   125  HEM125      0.0000
     28  CBC        5.5100   12.6350   12.6460 C.3   125  HEM125      0.0000
     29  C1D        4.2740    8.8890    8.5810 C.2   125  HEM125      0.0000
     30  C2D        2.9520    8.8440    7.9830 C.2   125  HEM125      0.0000
     31  C3D        2.9770    8.0000    6.9310 C.2   125  HEM125      0.0000
     32  C4D        4.3010    7.5300    6.8410 C.2   125  HEM125      0.0000
     33  CMD        1.6790    9.4700    8.5610 C.3   125  HEM125      0.0000
     34  CAD        1.7760    7.5670    6.1040 C.3   125  HEM125      0.0000
     35  CBD        0.9740    6.5920    6.8850 C.3   125  HEM125      0.0000
     36  CGD        1.6860    5.3160    7.1290 C.2   125  HEM125      0.0000
     37  O1D        1.9160    4.9840    8.3380 O.co2 125  HEM125      0.0000
     38  O2D        1.9810    4.6490    6.0980 O.co2 125  HEM125      0.0000
     39  NA         6.9770    6.4320    6.8220 N.ar  125  HEM125      0.0000
     40  NB         8.8990    7.7290    8.3140 N.2   125  HEM125      0.0000
     41  NC         7.0140    9.4250    9.3760 N.ar  125  HEM125      0.0000
     42  ND         5.1040    8.1050    7.8540 N.2   125  HEM125      0.0000
     43 FE          6.9970    7.9680    8.0490 Fe    125  HEM125      0.0000
@<TRIPOS>BOND
     1    13    12   ar
     2    12    14   ar
     3    12    11    1
     4    10    11    1
     5    10     6    1
     6     9     7    1
     7     6     7   ar
     8     6     5   ar
     9     7     8   ar
    10     1     5    2
    11     1    32    1
    12     5    39   ar
    13    38    36   ar
    14    34    35    1
    15    34    31    1
    16     8    39   ar
    17     8     2    2
    18    39    43    1
    19    32    31    1
    20    32    42    2
    21    35    36    1
    22    31    30    2
    23     2    15    1
    24    36    37   ar
    25    15    16    1
    26    15    40    2
    27    42    43    1
    28    42    29    1
    29    19    16    1
    30    30    33    1
    31    30    29    1
    32    43    40    1
    33    43    41    1
    34    16    17    2
    35    40    18    1
    36    29     4    2
    37    21    20    1
    38    18    17    1
    39    18     3    2
    40    17    20    1
    41    41    22   ar
    42    41    25   ar
    43     4    25    1
    44     3    22    1
    45    22    23   ar
    46    25    24   ar
    47    23    24   ar
    48    23    26    1
    49    24    27    1
    50    27    28    1
