@<TRIPOS>MOLECULE
2hz3_HEM_A_1.pdb
 43 50 0 0 0
SMALL
GASTEIGER

@<TRIPOS>ATOM
      1  CHA        4.5480    6.4290    6.1240 C.2   129  HEM129      0.0000
      2  CHB        9.1410    5.7160    7.1180 C.2   129  HEM129      0.0000
      3  CHC        9.1940    9.5870    9.9130 C.2   129  HEM129      0.0000
      4  CHD        4.5420    9.7900    9.5500 C.2   129  HEM129      0.0000
      5  C1A        5.8230    5.9790    6.0830 C.ar  129  HEM129      0.0000
      6  C2A        6.2530    4.8940    5.2600 C.ar  129  HEM129      0.0000
      7  C3A        7.5080    4.6850    5.5220 C.ar  129  HEM129      0.0000
      8  C4A        7.8830    5.6240    6.5730 C.ar  129  HEM129      0.0000
      9  CMA        8.3480    3.5430    4.9650 C.3   129  HEM129      0.0000
     10  CAA        5.4270    4.1750    4.2280 C.3   129  HEM129      0.0000
     11  CBA        4.5450    3.0990    4.5960 C.3   129  HEM129      0.0000
     12  CGA        3.8200    2.5600    3.3750 C.2   129  HEM129      0.0000
     13  O1A        4.1400    2.8110    2.1810 O.co2 129  HEM129      0.0000
     14  O2A        2.9130    1.7710    3.7310 O.co2 129  HEM129      0.0000
     15  C1B        9.6070    6.7350    7.9030 C.2   129  HEM129      0.0000
     16  C2B       10.9680    6.9430    8.3020 C.2   129  HEM129      0.0000
     17  C3B       10.9380    8.0170    9.0970 C.2   129  HEM129      0.0000
     18  C4B        9.5840    8.4960    9.1690 C.2   129  HEM129      0.0000
     19  CMB       12.1520    6.0170    8.0110 C.3   129  HEM129      0.0000
     20  CAB       12.0430    8.6010    9.6470 C.3   129  HEM129      0.0000
     21  CBB       13.3530    8.4880    9.0550 C.3   129  HEM129      0.0000
     22  C1C        7.8970    9.9880   10.0530 C.ar  129  HEM129      0.0000
     23  C2C        7.5500   11.0740   10.9030 C.ar  129  HEM129      0.0000
     24  C3C        6.1820   11.1040   10.8090 C.ar  129  HEM129      0.0000
     25  C4C        5.7920   10.0150    9.9680 C.ar  129  HEM129      0.0000
     26  CMC        8.4210   12.0140   11.7030 C.3   129  HEM129      0.0000
     27  CAC        5.2510   11.9350   11.4510 C.3   129  HEM129      0.0000
     28  CBC        5.5110   12.5600   12.6990 C.3   129  HEM129      0.0000
     29  C1D        4.1330    8.8620    8.6390 C.2   129  HEM129      0.0000
     30  C2D        2.7960    8.7890    8.0810 C.2   129  HEM129      0.0000
     31  C3D        2.8200    7.8470    7.1420 C.2   129  HEM129      0.0000
     32  C4D        4.1730    7.4010    7.0370 C.2   129  HEM129      0.0000
     33  CMD        1.5580    9.5650    8.5800 C.3   129  HEM129      0.0000
     34  CAD        1.6040    7.4430    6.3510 C.3   129  HEM129      0.0000
     35  CBD        0.8610    6.3260    6.9890 C.3   129  HEM129      0.0000
     36  CGD        1.5500    5.0150    7.2060 C.2   129  HEM129      0.0000
     37  O1D        1.8370    4.5460    8.3070 O.co2 129  HEM129      0.0000
     38  O2D        1.8340    4.4200    6.1190 O.co2 129  HEM129      0.0000
     39  NA         6.8390    6.4110    6.9140 N.ar  129  HEM129      0.0000
     40  NB         8.7530    7.6750    8.4410 N.2   129  HEM129      0.0000
     41  NC         6.8340    9.3220    9.5220 N.ar  129  HEM129      0.0000
     42  ND         4.9720    8.0970    7.9320 N.2   129  HEM129      0.0000
     43 FE          6.8650    7.8950    8.1860 Fe    129  HEM129      0.0000
@<TRIPOS>BOND
     1    13    12   ar
     2    12    14   ar
     3    12    11    1
     4    10    11    1
     5    10     6    1
     6     9     7    1
     7     6     7   ar
     8     6     5   ar
     9     7     8   ar
    10     5     1    2
    11     5    39   ar
    12    38    36   ar
    13     1    32    1
    14    34    35    1
    15    34    31    1
    16     8    39   ar
    17     8     2    2
    18    39    43    1
    19    35    36    1
    20    32    31    1
    21    32    42    2
    22     2    15    1
    23    31    30    2
    24    36    37   ar
    25    15    16    1
    26    15    40    2
    27    42    43    1
    28    42    29    1
    29    19    16    1
    30    30    33    1
    31    30    29    1
    32    43    40    1
    33    43    41    1
    34    16    17    2
    35    40    18    1
    36    29     4    2
    37    21    20    1
    38    17    18    1
    39    17    20    1
    40    18     3    2
    41    41    25   ar
    42    41    22   ar
    43     4    25    1
    44     3    22    1
    45    25    24   ar
    46    22    23   ar
    47    24    23   ar
    48    24    27    1
    49    23    26    1
    50    27    28    1
