@<TRIPOS>MOLECULE
2hz4_4ST_A_1.pdb
 35 42 0 0 0
SMALL
GASTEIGER

@<TRIPOS>ATOM
      1  CAB       24.5600    4.7580   25.4650 C.3   501  4ST501      0.1743
      2  OAQ       25.0800    5.0520   26.7580 O.3   501  4ST501     -0.3478
      3  CBF       25.0820    4.0320   27.7760 C.3   501  4ST501      0.1761
      4  CBD       25.0900    4.7730   29.1140 C.3   501  4ST501      0.1086
      5  NAO       23.8280    5.5410   29.2760 N.3   501  4ST501     -0.2152
      6  CAA       23.2360    5.8860   30.5830 C.3   501  4ST501      0.1075
      7  CAN       26.3850    5.6050   29.1340 C.3   501  4ST501      0.0739
      8  CBE       27.5350    4.6870   28.6540 C.3   501  4ST501      0.2076
      9  OAR       27.2650    3.2740   28.4590 O.3   501  4ST501     -0.3186
     10  CBI       26.1590    2.8890   27.6240 C.3   501  4ST501      0.1915
     11  CAC       25.7670    1.5880   28.3540 C.3   501  4ST501      0.0566
     12  NBH       26.6590    2.6650   26.2470 N.ar  501  4ST501     -0.3054
     13  CAY       26.2510    1.7600   25.2350 C.ar  501  4ST501      0.0617
     14  CAH       25.2550    0.7280   25.1860 C.ar  501  4ST501      0.0172
     15  CAF       25.0630   -0.0780   24.0140 C.ar  501  4ST501      0.0015
     16  CAE       25.8630    0.1510   22.8660 C.ar  501  4ST501      0.0001
     17  CAG       26.8550    1.1730   22.9270 C.ar  501  4ST501      0.0015
     18  CAX       27.0110    1.9350   24.1220 C.ar  501  4ST501      0.0171
     19  CBA       27.9270    3.0020   24.3920 C.ar  501  4ST501      0.0173
     20  CBC       27.6990    3.4580   25.7410 C.ar  501  4ST501      0.0773
     21  CBB       28.4310    4.4750   26.2900 C.ar  501  4ST501      0.0777
     22  NBG       28.3700    5.0960   27.5330 N.ar  501  4ST501     -0.3080
     23  CAV       29.3260    6.0820   27.6120 C.ar  501  4ST501      0.0352
     24  CAL       29.6050    6.9680   28.8130 C.3   501  4ST501      0.0435
     25  CAJ       30.2140    8.3110   28.3770 C.3   501  4ST501      0.0066
     26  CAI       31.4130    8.1240   27.4240 C.3   501  4ST501      0.0051
     27  CAK       31.1210    7.1740   26.2280 C.3   501  4ST501      0.0276
     28  CAT       30.0170    6.1670   26.4560 C.ar  501  4ST501     -0.0083
     29  CAZ       29.4730    5.1610   25.5620 C.ar  501  4ST501      0.0250
     30  CAW       29.6800    4.6970   24.2280 C.ar  501  4ST501      0.0819
     31  CAU       28.9460    3.6500   23.6580 C.ar  501  4ST501      0.0154
     32  CAM       29.3630    3.3680   22.2350 C.3   501  4ST501      0.1650
     33  NAP       30.4180    4.3800   22.1310 N.2   501  4ST501     -0.1976
     34  CAS       30.6190    5.1420   23.2230 C.1   501  4ST501      0.1501
     35  OAD       31.4300    6.0540   23.3670 O.2   501  4ST501     -0.2222
@<TRIPOS>BOND
     1    33    32    1
     2    33    34    2
     3    32    31    1
     4    16    17   ar
     5    16    15   ar
     6    17    18   ar
     7    34    35    2
     8    34    30    1
     9    31    30   ar
    10    31    19   ar
    11    15    14   ar
    12    18    19   ar
    13    18    13   ar
    14    30    29   ar
    15    19    20   ar
    16    14    13   ar
    17    13    12   ar
    18     1     2    1
    19    29    21   ar
    20    29    28   ar
    21    20    12   ar
    22    20    21   ar
    23    27    28    1
    24    27    26    1
    25    12    10    1
    26    21    22   ar
    27    28    23   ar
    28     2     3    1
    29    26    25    1
    30    22    23   ar
    31    22     8    1
    32    23    24    1
    33    10     3    1
    34    10    11    1
    35    10     9    1
    36     3     4    1
    37    25    24    1
    38     9     8    1
    39     8     7    1
    40     4     7    1
    41     4     5    1
    42     5     6    1
