@<TRIPOS>MOLECULE
2hza_3CM_B_1.pdb
 32 34 0 0 0
SMALL
GASTEIGER

@<TRIPOS>ATOM
      1  C1         9.7550   36.6030   21.0820 C.3   201  3CM201      0.2695
      2  C2        10.3480   35.3880   20.3020 C.3   201  3CM201      0.2406
      3  C3        10.9050   34.3830   21.3050 C.3   201  3CM201      0.2198
      4  C4        11.9740   35.0560   22.1870 C.3   201  3CM201      0.2144
      5  C5        11.3420   36.2810   22.9120 C.3   201  3CM201      0.1835
      6  C6        12.3580   37.0130   23.7610 C.3   201  3CM201      0.2142
      7  O2         9.2960   34.8060   19.4660 O.3   201  3CM201     -0.2149
      8  O3        11.4610   33.2720   20.5640 O.3   201  3CM201     -0.2174
      9  O5        10.7880   37.1900   21.9460 O.3   201  3CM201     -0.3256
     10  O6        13.2380   37.7920   22.9520 O.3   201  3CM201     -0.2176
     11  O1         8.6900   36.0870   21.8810 O.3   201  3CM201     -0.3257
     12  O4        12.4710   34.1520   23.1540 O.3   201  3CM201     -0.2176
     13  C10        4.8370   36.9540   23.1780 C.3   201  3CM201      0.2695
     14  C20        4.9650   36.4800   21.7130 C.3   201  3CM201      0.2404
     15  C30        6.3130   35.7640   21.6030 C.3   201  3CM201      0.2167
     16  C40        7.4050   36.7590   21.9880 C.3   201  3CM201      0.1804
     17  C50        7.2160   37.2450   23.4050 C.3   201  3CM201      0.1803
     18  C60        8.2500   38.2920   23.8500 C.3   201  3CM201      0.2141
     19  O10        3.6130   37.6410   23.3370 O.3   201  3CM201     -0.3286
     20  O20        3.9140   35.6050   21.3720 O.3   201  3CM201     -0.2149
     21  O30        6.4920   35.3160   20.2630 O.3   201  3CM201     -0.2175
     22  O50        5.9200   37.8510   23.5340 O.3   201  3CM201     -0.3257
     23  O60        8.3870   38.2290   25.2920 O.3   201  3CM201     -0.2176
     24  C11        3.0130   37.4650   24.6370 C.3   201  3CM201      0.1449
     25  C21        1.6030   37.9910   24.5620 C.3   201  3CM201      0.0325
     26  C31        0.7690   36.9770   25.3440 C.3   201  3CM201      0.0069
     27  C12       -0.7020   37.1500   25.0200 C.3   201  3CM201      0.0218
     28  C22       -1.4970   37.2260   26.3130 C.3   201  3CM201      0.0047
     29  C32       -2.8380   36.5390   26.3480 C.3   201  3CM201      0.0050
     30  C42       -3.5670   36.3880   25.0010 C.3   201  3CM201      0.0257
     31  C52       -2.6600   35.7730   23.9250 C.2   201  3CM201     -0.0307
     32  C62       -1.1360   36.0450   24.0670 C.2   201  3CM201     -0.0310
@<TRIPOS>BOND
     1     7     2    1
     2    21    15    1
     3     2     1    1
     4     2     3    1
     5     8     3    1
     6     1    11    1
     7     1     9    1
     8     3     4    1
     9    20    14    1
    10    15    14    1
    11    15    16    1
    12    14    13    1
    13    11    16    1
    14     9     5    1
    15    16    17    1
    16     4     5    1
    17     4    12    1
    18     5     6    1
    19    10     6    1
    20    13    19    1
    21    13    22    1
    22    19    24    1
    23    17    22    1
    24    17    18    1
    25    18    23    1
    26    31    32    2
    27    31    30    1
    28    32    27    1
    29    25    24    1
    30    25    26    1
    31    30    29    1
    32    27    26    1
    33    27    28    1
    34    28    29    1
