@<TRIPOS>MOLECULE
2hzh_MAN_A_1.pdb
 11 11 0 0 0
SMALL
GASTEIGER

@<TRIPOS>ATOM
      1  C1       -31.9980  -34.8610   -8.1020 C.3   503  MAN503      0.1777
      2  C2       -31.3240  -33.9850   -9.1800 C.3   503  MAN503      0.2141
      3  C3       -30.0120  -34.6460   -9.6540 C.3   503  MAN503      0.2173
      4  C4       -29.5780  -35.8100   -8.7690 C.3   503  MAN503      0.2142
      5  C5       -30.6950  -36.8240   -8.5040 C.3   503  MAN503      0.1810
      6  C6       -30.4740  -37.4830   -7.1500 C.3   503  MAN503      0.2141
      7  O2       -31.1890  -32.6240   -8.7650 O.3   503  MAN503     -0.2176
      8  O3       -28.9240  -33.7490   -9.7030 O.3   503  MAN503     -0.2175
      9  O4       -28.4790  -36.4550   -9.3760 O.3   503  MAN503     -0.2176
     10  O5       -31.9750  -36.2180   -8.5140 O.3   503  MAN503     -0.3481
     11  O6       -30.1190  -38.8180   -7.3650 O.3   503  MAN503     -0.2176
@<TRIPOS>BOND
     1     8     3    1
     2     3     2    1
     3     3     4    1
     4     9     4    1
     5     2     7    1
     6     2     1    1
     7     4     5    1
     8    10     5    1
     9    10     1    1
    10     5     6    1
    11    11     6    1
