@<TRIPOS>MOLECULE
2hzi_JIN_A_1.pdb
 29 32 0 0 0
SMALL
GASTEIGER

@<TRIPOS>ATOM
      1  C10       18.7180   14.5070    3.5840 C.ar  600  JIN600      0.0105
      2  C12       17.6050   16.1330    4.9300 C.ar  600  JIN600      0.2627
      3  C13       15.1530   16.0020    5.3110 C.3   600  JIN600      0.1361
      4  C15       22.0520   16.8670    5.8630 C.ar  600  JIN600      0.0114
      5  C16       22.4560   17.8380    4.9110 C.ar  600  JIN600      0.0017
      6  C19       20.1290   16.3200    4.5030 C.ar  600  JIN600      0.0257
      7  C20       20.8670   16.1450    5.6450 C.ar  600  JIN600      0.0586
      8  C27       12.7210   12.4780    3.1580 C.ar  600  JIN600      0.0824
      9  C30        9.9420   13.0810    3.6230 C.ar  600  JIN600      0.1362
     10  C31       10.9270   13.7090    4.3430 C.ar  600  JIN600      0.0307
     11  C34        9.2220   11.4610    1.9550 C.3   600  JIN600      0.0334
     12  F35        8.6710   13.3630    3.8870 F     600  JIN600     -0.2045
     13  C29       10.3390   12.1550    2.6880 C.ar  600  JIN600      0.0069
     14  C28       11.6930   11.7860    2.4860 C.ar  600  JIN600      0.0153
     15  C26       12.2820   13.4030    4.1210 C.ar  600  JIN600      0.0196
     16  N08       13.9880   12.0550    2.8670 N.pl3 600  JIN600     -0.1357
     17  C04       15.1360   12.7130    3.0870 C.1   600  JIN600      0.1711
     18  N03       16.1630   12.1260    2.5210 N.2   600  JIN600     -0.1682
     19  C02       17.3840   12.6850    2.6400 C.2   600  JIN600      0.1158
     20  N05       15.1830   13.8300    3.8310 N.2   600  JIN600     -0.3179
     21  C06       16.3920   14.4070    3.9860 C.ar  600  JIN600      0.2117
     22  N11       16.4410   15.4940    4.7440 N.ar  600  JIN600     -0.2681
     23  O14       17.5860   17.1530    5.6210 O.2   600  JIN600     -0.2669
     24  C09       18.7910   15.6810    4.3350 C.ar  600  JIN600      0.0580
     25  C01       17.5060   13.8530    3.4140 C.ar  600  JIN600      0.0676
     26  C18       20.5380   17.2630    3.5440 C.ar  600  JIN600      0.0586
     27  C17       21.7110   18.0230    3.7110 C.ar  600  JIN600      0.0114
     28 CL4        19.6970   17.5810    2.0470 Cl    600  JIN600     -0.0822
     29 CL5        20.3770   14.9170    6.8500 Cl    600  JIN600     -0.0822
@<TRIPOS>BOND
     1    11    13    1
     2    28    26    1
     3    14    13   ar
     4    14     8   ar
     5    18    19    1
     6    18    17    2
     7    19    25    2
     8    13     9   ar
     9    16    17    1
    10    16     8    1
    11    17    20    2
    12     8    15   ar
    13    25     1   ar
    14    25    21   ar
    15    26    27   ar
    16    26     6   ar
    17     1    24   ar
    18     9    12    1
    19     9    10   ar
    20    27     5   ar
    21    20    21    2
    22    21    22   ar
    23    15    10   ar
    24    24     6    1
    25    24     2   ar
    26     6     7   ar
    27    22     2   ar
    28    22     3    1
    29     5     4   ar
    30     2    23    2
    31     7     4   ar
    32     7    29    1
