@<TRIPOS>MOLECULE
2hzn_KIN_A_1.pdb
 27 29 0 0 0
SMALL
GASTEIGER

@<TRIPOS>ATOM
      1  C11       47.5410   30.8440   43.6370 C.ar  600  KIN600      0.0013
      2  C13       47.7180   31.0870   42.2710 C.ar  600  KIN600      0.0039
      3  C21       48.0740   23.6850   43.3000 C.ar  600  KIN600      0.0752
      4  C22       49.2950   23.6190   42.5980 C.ar  600  KIN600      0.0198
      5  C24       49.8230   22.3920   42.1510 C.ar  600  KIN600      0.0388
      6  C27       47.9230   21.2530   43.1130 C.ar  600  KIN600      0.0388
      7  C32       49.4060   19.5470   40.7520 C.ar  600  KIN600      0.1484
      8  C33       48.3030   19.9870   40.0070 C.ar  600  KIN600      0.0581
      9  C35       48.1360   19.5210   38.7130 C.ar  600  KIN600      0.1020
     10  F01       47.9040   31.5700   39.5280 F     600  KIN600     -0.1659
     11  C02       47.9650   30.2390   39.8940 C.3   600  KIN600      0.4186
     12  F03       49.2240   29.7680   39.6020 F     600  KIN600     -0.1659
     13  F04       47.0530   29.5380   39.1390 F     600  KIN600     -0.1659
     14  C05       47.7360   30.0130   41.3680 C.ar  600  KIN600      0.0727
     15  C06       47.5650   28.6970   41.8480 C.ar  600  KIN600      0.0205
     16  C08       47.3800   28.4350   43.2180 C.ar  600  KIN600      0.0749
     17  C09       47.3910   29.5280   44.1070 C.ar  600  KIN600      0.0166
     18  N15       47.2070   27.1220   43.7380 N.am  600  KIN600     -0.1607
     19  C17       47.7310   26.0460   43.1030 C.2   600  KIN600      0.3477
     20  O18       48.3390   26.1070   41.9950 O.2   600  KIN600     -0.2484
     21  N19       47.5430   24.9000   43.7870 N.am  600  KIN600     -0.1607
     22  C26       49.1480   21.1950   42.4230 C.ar  600  KIN600      0.1454
     23  C29       47.3940   22.4850   43.5540 C.ar  600  KIN600      0.0198
     24  O31       49.6280   19.9910   42.0130 O.3   600  KIN600     -0.4534
     25  N37       48.9790   18.6650   38.1290 N.ar  600  KIN600     -0.2421
     26  C38       50.0280   18.2370   38.8410 C.ar  600  KIN600      0.1020
     27  C40       50.2880   18.6480   40.1430 C.ar  600  KIN600      0.0581
@<TRIPOS>BOND
     1    25     9   ar
     2    25    26   ar
     3     9     8   ar
     4    26    27   ar
     5    13    11    1
     6    10    11    1
     7    12    11    1
     8    11    14    1
     9     8     7   ar
    10    27     7   ar
    11     7    24    1
    12    14    15   ar
    13    14     2   ar
    14    15    16   ar
    15    20    19    2
    16    24    22    1
    17     5    22   ar
    18     5     4   ar
    19     2     1   ar
    20    22     6   ar
    21     4     3   ar
    22    19    18   am
    23    19    21   am
    24     6    23   ar
    25    16    18    1
    26    16    17   ar
    27     3    23   ar
    28     3    21    1
    29     1    17   ar
