@<TRIPOS>MOLECULE
2hzp_PLP_A_1.pdb
 15 15 0 0 0
SMALL
GASTEIGER

@<TRIPOS>ATOM
      1  N1        40.2210   31.5810   14.1470 N.ar  544  PLP544     -0.2452
      2  C2        40.8700   32.1660   15.1710 C.ar  544  PLP544      0.0978
      3  C2A       41.9110   31.3990   15.9460 C.3   544  PLP544      0.0555
      4  C3        40.5580   33.5680   15.5370 C.ar  544  PLP544      0.2049
      5  O3        41.1910   34.1980   16.5630 O.3   544  PLP544     -0.2857
      6  C4        39.5250   34.2500   14.7210 C.ar  544  PLP544      0.0182
      7  C4A       39.0910   35.6360   14.9710 C.3   544  PLP544      0.0342
      8  C5        38.8910   33.4970   13.6250 C.ar  544  PLP544      0.0261
      9  C6        39.2800   32.1780   13.4030 C.ar  544  PLP544      0.0965
     10  C5A       37.8270   34.1810   12.7940 C.3   544  PLP544      0.1815
     11  O4P       37.7010   33.4840   11.5640 O.3   544  PLP544     -0.2653
     12  P         37.3370   34.2210   10.1950 P.3   544  PLP544      0.5329
     13  O1P       37.5550   33.1100    9.1940 O.2   544  PLP544     -0.2224
     14  O2P       35.8950   34.6830   10.3680 O.3   544  PLP544     -0.1145
     15  O3P       38.3100   35.3820   10.0860 O.3   544  PLP544     -0.1145
@<TRIPOS>BOND
     1    13    12    2
     2    15    12    1
     3    12    14    1
     4    12    11    1
     5    11    10    1
     6    10     8    1
     7     9     8   ar
     8     9     1   ar
     9     8     6   ar
    10     1     2   ar
    11     6     7    1
    12     6     4   ar
    13     2     4   ar
    14     2     3    1
    15     4     5    1
