@<TRIPOS>MOLECULE
2hzq_STR_A_1.pdb
 23 26 0 0 0
SMALL
GASTEIGER

@<TRIPOS>ATOM
      1  C1         8.1410   32.1210   56.6850 C.3   300  STR300      0.0078
      2  C2         8.8390   33.3880   56.1740 C.3   300  STR300      0.0645
      3  C3         7.9340   34.1130   55.1930 C.2   300  STR300      0.1506
      4  O3         8.3340   35.0380   54.4870 O.2   300  STR300     -0.2961
      5  C4         6.5320   33.7110   55.0630 C.3   300  STR300      0.0645
      6  C5         5.9000   33.1200   56.0780 C.3   300  STR300      0.0073
      7  C6         4.3990   33.2830   56.1580 C.3   300  STR300      0.0004
      8  C7         3.7160   31.9250   56.1060 C.3   300  STR300      0.0000
      9  C8         4.3650   30.9750   57.1300 C.3   300  STR300      0.0000
     10  C9         5.9190   30.9150   57.0380 C.3   300  STR300      0.0000
     11  C10        6.6570   32.2780   57.0790 C.3   300  STR300      0.0008
     12  C11        6.5490   29.8770   57.9940 C.3   300  STR300      0.0000
     13  C12        5.8770   28.5000   57.9220 C.3   300  STR300      0.0004
     14  C13        4.3540   28.5790   58.0190 C.3   300  STR300      0.0065
     15  C14        3.8630   29.5320   56.9380 C.3   300  STR300      0.0004
     16  C15        2.3640   29.2350   56.8130 C.3   300  STR300      0.0004
     17  C16        2.2970   27.7200   57.0120 C.3   300  STR300      0.0073
     18  C17        3.6560   27.2920   57.6130 C.3   300  STR300      0.0576
     19  C18        3.8420   28.9620   59.4280 C.3   300  STR300      0.0004
     20  C19        6.6480   32.9430   58.4740 C.3   300  STR300      0.0000
     21  C20        3.5760   26.2720   58.7320 C.2   300  STR300      0.1507
     22  O20        2.5280   26.1210   59.3470 O.2   300  STR300     -0.2961
     23  C21        4.7990   25.4470   59.0420 C.3   300  STR300      0.0722
@<TRIPOS>BOND
     1     4     3    2
     2     5     3    1
     3     5     6    1
     4     3     2    1
     5     6     7    1
     6     6    11    1
     7     8     7    1
     8     8     9    1
     9     2     1    1
    10     1    11    1
    11    16    15    1
    12    16    17    1
    13    15     9    1
    14    15    14    1
    15    17    18    1
    16    10    11    1
    17    10     9    1
    18    10    12    1
    19    11    20    1
    20    18    14    1
    21    18    21    1
    22    13    12    1
    23    13    14    1
    24    14    19    1
    25    21    23    1
    26    21    22    2
