@<TRIPOS>MOLECULE
2hzy_DHJ_A_1.pdb
 15 14 0 0 0
SMALL
GASTEIGER

@<TRIPOS>ATOM
      1  O2        44.8640   38.0060   56.8800 O.co2 1102  DHJ1102    -0.2405
      2  C3        44.8400   38.1750   58.1640 C.2   1102  DHJ1102     0.3882
      3  O4        44.5620   37.2370   58.9030 O.co2 1102  DHJ1102    -0.2405
      4  C1        45.1590   39.4850   58.8520 C.2   1102  DHJ1102     0.0914
      5  C7        45.5090   40.5690   58.1480 C.2   1102  DHJ1102     0.0684
      6  P1        45.9190   42.1320   58.8410 P.3   1102  DHJ1102     0.2819
      7  O6        45.4810   43.1620   57.8250 O.2   1102  DHJ1102    -0.2821
      8  O7        45.4760   42.3090   60.2550 O.3   1102  DHJ1102    -0.1630
      9  C6        47.7410   42.1150   58.8500 C.3   1102  DHJ1102     0.1582
     10  C5        48.2450   43.2450   59.6880 C.2   1102  DHJ1102     0.1722
     11  O5        48.3430   44.4150   59.3010 O.2   1102  DHJ1102    -0.2949
     12  C4        48.6590   42.9130   61.1300 C.3   1102  DHJ1102     0.1788
     13  C2        47.9130   43.7600   62.1640 C.2   1102  DHJ1102     0.3723
     14  O1        47.8810   45.0080   62.0050 O.co2 1102  DHJ1102    -0.2452
     15  O3        47.3650   43.1660   63.1360 O.co2 1102  DHJ1102    -0.2452
@<TRIPOS>BOND
     1     1     2   ar
     2     7     6    2
     3     5     6    1
     4     5     4    2
     5     2     4    1
     6     2     3   ar
     7     6     9    1
     8     6     8    1
     9     9    10    1
    10    11    10    2
    11    10    12    1
    12    12    13    1
    13    14    13   ar
    14    13    15   ar
