@<TRIPOS>MOLECULE
2i02_FMN_A_1.pdb
 31 33 0 0 0
SMALL
GASTEIGER

@<TRIPOS>ATOM
      1  N1        28.0690   36.2930   17.0650 N.2   200  FMN200     -0.2887
      2  C2        29.2310   35.7290   17.5540 C.1   200  FMN200      0.3669
      3  O2        29.5470   35.9270   18.7700 O.2   200  FMN200     -0.1744
      4  N3        29.9670   34.9470   16.6520 N.2   200  FMN200     -0.2300
      5  C4        29.5640   34.7270   15.3150 C.1   200  FMN200      0.2513
      6  O4        30.0940   33.8540   14.5930 O.2   200  FMN200     -0.2057
      7  C4A       28.3990   35.3330   14.8490 C.2   200  FMN200      0.2703
      8  N5        27.9580   35.1530   13.5410 N.2   200  FMN200     -0.3885
      9  C5A       26.7730   35.7720   13.1410 C.2   200  FMN200      0.1233
     10  C6        26.3280   35.5840   11.8330 C.3   200  FMN200      0.0606
     11  C7        25.1360   36.1740   11.3880 C.3   200  FMN200      0.0111
     12  C7M       24.4540   35.5780   10.1760 C.3   200  FMN200      0.0008
     13  C8        24.4180   36.9850   12.2740 C.3   200  FMN200      0.0238
     14  C8M       23.0950   37.5490   11.8880 C.3   200  FMN200      0.0047
     15  C9        24.8550   37.1840   13.5780 C.2   200  FMN200     -0.0093
     16  C9A       26.0240   36.5670   14.0360 C.2   200  FMN200      0.0750
     17  N10       26.4640   36.7100   15.3580 N.pl3 200  FMN200     -0.2548
     18  C10       27.6580   36.1150   15.7460 C.2   200  FMN200      0.2449
     19  C1'       25.6960   37.3850   16.4770 C.3   200  FMN200      0.1336
     20  C2'       25.0670   36.3670   17.4560 C.3   200  FMN200      0.2048
     21  O2'       23.9990   35.7670   16.7460 O.3   200  FMN200     -0.2185
     22  C3'       24.6300   37.0270   18.7720 C.3   200  FMN200      0.2165
     23  O3'       23.5920   38.0420   18.6510 O.3   200  FMN200     -0.2175
     24  C4'       25.7880   37.7820   19.4510 C.3   200  FMN200      0.2147
     25  O4'       26.9620   36.9940   19.5530 O.3   200  FMN200     -0.2176
     26  C5'       25.4200   38.2500   20.8550 C.3   200  FMN200      0.1892
     27  O5'       25.0060   37.1370   21.5980 O.3   200  FMN200     -0.2674
     28  P         25.0670   37.1260   23.2050 P.3   200  FMN200      0.5327
     29  O1P       25.6840   35.8140   23.4760 O.2   200  FMN200     -0.2224
     30  O2P       25.8400   38.2980   23.7890 O.3   200  FMN200     -0.1145
     31  O3P       23.6650   37.2190   23.7850 O.3   200  FMN200     -0.1145
@<TRIPOS>BOND
     1    12    11    1
     2    11    10    1
     3    11    13    1
     4    10     9    1
     5    14    13    1
     6    13    15    1
     7     9     8    2
     8     9    16    1
     9     8     7    2
    10    15    16    2
    11    16    17    1
    12     6     5    2
    13     7     5    1
    14     7    18    1
    15     5     4    2
    16    17    18    1
    17    17    19    1
    18    18     1    2
    19    19    20    1
    20     4     2    2
    21    21    20    1
    22     1     2    2
    23    20    22    1
    24     2     3    2
    25    23    22    1
    26    22    24    1
    27    24    25    1
    28    24    26    1
    29    26    27    1
    30    27    28    1
    31    28    29    2
    32    28    31    1
    33    28    30    1
