@<TRIPOS>MOLECULE
2i03_AXD_B_1.pdb
 29 31 0 0 0
SMALL
GASTEIGER

@<TRIPOS>ATOM
      1  N1        32.4490    4.6210   64.0770 N.3   1630  AXD1630    -0.2112
      2  C2        33.5320    4.8000   63.0720 C.3   1630  AXD1630     0.0633
      3  C3        34.3470    3.4980   63.0160 C.3   1630  AXD1630     0.0376
      4  C4        35.4710    3.6080   61.9700 C.3   1630  AXD1630     0.0935
      5  N5        34.9240    4.0110   60.6130 N.pl3 1630  AXD1630    -0.2932
      6  C6        34.0500    5.2270   60.5730 C.3   1630  AXD1630     0.0935
      7  C7        32.9600    5.0840   61.6340 C.3   1630  AXD1630     0.0376
      8  C8        29.7170    8.1340   64.0000 C.3   1630  AXD1630     0.1406
      9  N9        29.4490    6.8000   63.3880 N.am  1630  AXD1630    -0.2692
     10  C10       28.1710    6.7890   62.6680 C.3   1630  AXD1630     0.0953
     11  C11       27.4070    7.8680   63.4440 C.3   1630  AXD1630     0.0241
     12  C12       28.4640    8.9470   63.6380 C.3   1630  AXD1630     0.0351
     13  C13       28.2720    7.1940   61.1650 C.3   1630  AXD1630     0.1290
     14  N14       29.4500    7.4330   60.5690 N.3   1630  AXD1630    -0.1296
     15  C15       30.2280    5.6600   63.4780 C.2   1630  AXD1630     0.2440
     16  O16       29.9490    4.6090   62.9280 O.2   1630  AXD1630    -0.2733
     17  C17       31.5070    5.7030   64.3530 C.3   1630  AXD1630     0.1737
     18  C18       35.2170    3.2840   59.4470 C.ar  1630  AXD1630     0.1319
     19  C19       36.0460    2.1430   59.4930 C.ar  1630  AXD1630     0.0409
     20  C20       36.3320    1.4210   58.3230 C.ar  1630  AXD1630     0.0841
     21  C21       35.7800    1.8530   57.0770 C.ar  1630  AXD1630     0.0273
     22  C22       34.9570    3.0090   57.0790 C.ar  1630  AXD1630     0.1005
     23  N23       34.6870    3.7090   58.2340 N.ar  1630  AXD1630    -0.2292
     24  C24       30.8610    8.8250   63.3480 C.1   1630  AXD1630    -0.0585
     25  C25       31.7610    9.3350   62.7360 C.1   1630  AXD1630    -0.0125
     26  C26       34.4650    5.9740   63.5350 C.3   1630  AXD1630     0.0176
     27  C27       37.2100    0.2410   58.4290 C.2   1630  AXD1630     0.3879
     28  O28       37.6770   -0.0690   59.5540 O.co2 1630  AXD1630    -0.2406
     29  O29       37.4720   -0.4190   57.4090 O.co2 1630  AXD1630    -0.2406
@<TRIPOS>BOND
     1    21    22   ar
     2    21    20   ar
     3    22    23   ar
     4    29    27   ar
     5    23    18   ar
     6    20    27    1
     7    20    19   ar
     8    27    28   ar
     9    18    19   ar
    10    18     5    1
    11    14    13    1
    12     6     5    1
    13     6     7    1
    14     5     4    1
    15    13    10    1
    16     7     2    1
    17     4     3    1
    18    10     9    1
    19    10    11    1
    20    25    24    3
    21    16    15    2
    22     3     2    1
    23     2    26    1
    24     2     1    1
    25    24     8    1
    26     9    15   am
    27     9     8    1
    28    11    12    1
    29    15    17    1
    30    12     8    1
    31     1    17    1
