@<TRIPOS>MOLECULE
2i04_III_C_1.pdb
 44 43 0 0 0
SMALL
GASTEIGER

@<TRIPOS>ATOM
      1  N         16.8250    1.9860   -5.2450 N.3   2002  ARG2002    -0.1231
      2  CA        16.4880    1.0330   -4.1970 C.3   2002  ARG2002     0.1694
      3  C         15.3560    1.5410   -3.2910 C.2   2002  ARG2002     0.2592
      4  O         15.5300    1.6520   -2.0830 O.2   2002  ARG2002    -0.2718
      5  CB        17.7190    0.7400   -3.3330 C.3   2002  ARG2002     0.0321
      6  CG        17.5280   -0.4210   -2.3660 C.3   2002  ARG2002     0.0489
      7  CD        18.3620   -1.6070   -2.7610 C.3   2002  ARG2002     0.2205
      8  NE        19.6050   -1.6170   -2.0100 N.pl3 2002  ARG2002    -0.0865
      9  CZ        20.7470   -2.1280   -2.4370 C.cat 2002  ARG2002     0.5346
     10  NH1       20.8560   -2.6920   -3.6180 N.pl3 2002  ARG2002     0.1354
     11  NH2       21.7900   -2.0570   -1.6740 N.pl3 2002  ARG2002     0.1354
     12  N         14.3120    2.0410   -3.4770 N.am  2003  GLU2003    -0.1966
     13  CA        13.2060    2.5060   -2.6320 C.3   2003  GLU2003     0.1733
     14  C         12.0100    1.5780   -2.7820 C.2   2003  GLU2003     0.2617
     15  O         11.2880    1.6370   -3.7800 O.2   2003  GLU2003    -0.2715
     16  CB        12.8010    3.9500   -2.9880 C.3   2003  GLU2003     0.0429
     17  CG        11.6560    4.5030   -2.1200 C.3   2003  GLU2003     0.1163
     18  CD        11.5400    6.0190   -2.1700 C.2   2003  GLU2003     0.3649
     19  OE1       10.6770    6.5750   -1.4570 O.co2 2003  GLU2003    -0.2457
     20  OE2       12.3120    6.6580   -2.9160 O.co2 2003  GLU2003    -0.2457
     21  N         11.6990    0.5840   -2.0890 N.am  2004  THR2004    -0.1937
     22  CA        10.5840   -0.3530   -2.1390 C.3   2004  THR2004     0.2028
     23  C          9.4730   -0.0890   -1.1390 C.2   2004  THR2004     0.2642
     24  O          9.6930   -0.1040    0.0720 O.2   2004  THR2004    -0.2714
     25  CB        11.0520   -1.8000   -1.9130 C.3   2004  THR2004     0.1808
     26  OG1       12.1380   -2.1040   -2.8000 O.3   2004  THR2004    -0.2208
     27  CG2        9.9110   -2.7670   -2.1680 C.3   2004  THR2004     0.0379
     28  N          8.3580    0.0600   -1.7640 N.am  2005  GLN2005    -0.1963
     29  CA         7.1540    0.3040   -0.9880 C.3   2005  GLN2005     0.1733
     30  C          6.6360   -1.0390   -0.4930 C.2   2005  GLN2005     0.2617
     31  O          6.4250   -1.9660   -1.2740 O.2   2005  GLN2005    -0.2715
     32  CB         6.0690    0.9730   -1.8420 C.3   2005  GLN2005     0.0408
     33  CG         4.6740    0.8910   -1.2240 C.3   2005  GLN2005     0.0908
     34  CD         3.6190    1.6040   -2.0430 C.2   2005  GLN2005     0.2608
     35  OE1        3.7480    1.7480   -3.2580 O.2   2005  GLN2005    -0.2717
     36  NE2        2.5620    2.0490   -1.3810 N.am  2005  GLN2005    -0.0878
     37  N          6.6260   -1.1280    0.6170 N.am  2006  VAL2006    -0.1942
     38  CA         5.8660   -2.1130    1.3590 C.3   2006  VAL2006     0.1977
     39  C          4.7250   -1.3930    2.0770 C.2   2006  VAL2006     0.3842
     40  O          4.2940   -0.3220    1.6450 O.co2 2006  VAL2006    -0.2437
     41  CB         6.7490   -2.8390    2.3840 C.3   2006  VAL2006     0.0311
     42  CG1        7.5160   -3.9630    1.7080 C.3   2006  VAL2006     0.0023
     43  CG2        7.7170   -1.8580    3.0140 C.3   2006  VAL2006     0.0023
     44  OXT        4.2240   -1.9520    3.0770 O.co2 2006  VAL2006    -0.2437
@<TRIPOS>BOND
     1     1     2    1
     2     2     5    1
     3     2     3    1
     4    15    14    2
     5    10     9    1
     6    12     3   am
     7    12    13    1
     8     5     6    1
     9     3     4    2
    10    35    34    2
    11    16    13    1
    12    16    17    1
    13    20    18   ar
    14    26    25    1
    15    14    13    1
    16    14    21   am
    17     7     6    1
    18     7     8    1
    19     9     8    2
    20     9    11    1
    21    18    17    1
    22    18    19   ar
    23    27    25    1
    24    22    21    1
    25    22    25    1
    26    22    23    1
    27    34    36   am
    28    34    33    1
    29    32    33    1
    30    32    29    1
    31    28    23   am
    32    28    29    1
    33    31    30    2
    34    23    24    2
    35    29    30    1
    36    30    37   am
    37    37    38    1
    38    38    39    1
    39    38    41    1
    40    40    39   ar
    41    42    41    1
    42    39    44   ar
    43    41    43    1
