@<TRIPOS>MOLECULE
2i0a_MUI_A_1.pdb
 45 48 0 0 0
SMALL
GASTEIGER

@<TRIPOS>ATOM
      1  O45       20.8850   22.5110    4.6420 O.2   200  MUI200     -0.2913
      2  C46       20.4790   23.6320    4.9430 C.2   200  MUI200      0.1735
      3  C47       19.8080   24.5120    3.9400 C.3   200  MUI200      0.0773
      4  C40       20.6710   24.1630    6.3340 C.ar  200  MUI200      0.0348
      5  C41       20.1340   25.3970    6.6980 C.ar  200  MUI200      0.0041
      6  C42       20.3150   25.9010    7.9720 C.ar  200  MUI200      0.0151
      7  C45       21.4030   23.4380    7.2640 C.ar  200  MUI200      0.0041
      8  C44       21.5950   23.9420    8.5470 C.ar  200  MUI200      0.0151
      9  C43       21.0330   25.1700    8.9220 C.ar  200  MUI200      0.0571
     10  N24       21.2330   25.7270   10.1970 N.am  200  MUI200     -0.2208
     11  C26       21.5610   25.0660   11.2880 C.2   200  MUI200      0.4092
     12  O27       21.6440   23.8610   11.4630 O.2   200  MUI200     -0.2258
     13  O28       21.8790   26.0090   12.3310 O.3   200  MUI200     -0.4267
     14  C25       21.2010   27.1640   10.3950 C.3   200  MUI200      0.1547
     15  C29       21.9140   27.3160   11.7480 C.3   200  MUI200      0.2673
     16  C21       21.1500   28.3670   12.4960 C.2   200  MUI200      0.2836
     17  O22       21.2200   29.5310   12.1150 O.2   200  MUI200     -0.2694
     18  N20       20.4170   27.9480   13.5300 N.am  200  MUI200     -0.2011
     19  C19       19.5000   28.8090   14.2840 C.3   200  MUI200      0.1314
     20  C32       18.1890   28.0010   14.2300 C.3   200  MUI200      0.0506
     21  C38       17.8880   27.6200   12.7850 C.ar  200  MUI200     -0.0204
     22  C37       17.5020   28.5870   11.8650 C.ar  200  MUI200     -0.0042
     23  C36       17.2600   28.2310   10.5390 C.ar  200  MUI200     -0.0003
     24  C35       17.3820   26.9140   10.1210 C.ar  200  MUI200     -0.0000
     25  C34       17.7720   25.9410   11.0340 C.ar  200  MUI200     -0.0003
     26  C33       18.0180   26.2920   12.3560 C.ar  200  MUI200     -0.0042
     27  C17       19.9750   29.1550   15.6950 C.3   200  MUI200      0.1897
     28  O18       19.9060   28.0150   16.5600 O.3   200  MUI200     -0.2197
     29  C16       19.1370   30.2990   16.2850 C.3   200  MUI200      0.1304
     30  N11       19.3880   31.5470   15.5200 N.3   200  MUI200     -0.1529
     31  C12       20.1700   32.5410   16.2880 C.3   200  MUI200      0.0958
     32  C13       21.6620   32.1890   16.2950 C.3   200  MUI200      0.0178
     33  C15       22.4280   33.1840   17.1590 C.3   200  MUI200      0.0015
     34  C14       22.2640   32.1250   14.8890 C.3   200  MUI200      0.0015
     35  S8        18.0720   32.2190   14.8140 S.O2  200  MUI200      0.0634
     36  O10       17.2770   31.1770   14.2510 O.2   200  MUI200     -0.1528
     37  O9        18.6210   33.0520   13.7690 O.2   200  MUI200     -0.1528
     38  C5        17.1930   33.1010   15.8520 C.ar  200  MUI200      0.1224
     39  C6        16.2110   32.5170   16.6620 C.ar  200  MUI200      0.0230
     40  C7        15.4760   33.2890   17.5760 C.ar  200  MUI200      0.0383
     41  C2        15.7060   34.6590   17.6890 C.ar  200  MUI200      0.1388
     42  O19       14.9750   35.4000   18.5900 O.3   200  MUI200     -0.4714
     43  C18       15.2940   36.7590   18.9010 C.3   200  MUI200      0.2525
     44  C3        16.6790   35.2490   16.8710 C.ar  200  MUI200      0.0383
     45  C4        17.4090   34.4720   15.9660 C.ar  200  MUI200      0.0230
@<TRIPOS>BOND
     1     3     2    1
     2     1     2    2
     3     2     4    1
     4     4     5   ar
     5     4     7   ar
     6     5     6   ar
     7     7     8   ar
     8     6     9   ar
     9     8     9   ar
    10     9    10    1
    11    24    23   ar
    12    24    25   ar
    13    10    14    1
    14    10    11   am
    15    14    15    1
    16    23    22   ar
    17    25    26   ar
    18    11    12    2
    19    11    13    1
    20    15    13    1
    21    15    16    1
    22    22    21   ar
    23    17    16    2
    24    26    21   ar
    25    16    18   am
    26    21    20    1
    27    18    19    1
    28    37    35    2
    29    20    19    1
    30    36    35    2
    31    19    27    1
    32    35    30    1
    33    35    38    1
    34    34    32    1
    35    30    29    1
    36    30    31    1
    37    27    29    1
    38    27    28    1
    39    38    45   ar
    40    38    39   ar
    41    45    44   ar
    42    31    32    1
    43    32    33    1
    44    39    40   ar
    45    44    41   ar
    46    40    41   ar
    47    41    42    1
    48    42    43    1
