@<TRIPOS>MOLECULE
2i0b_GLU_A_1.pdb
 10 9 0 0 0
SMALL
GASTEIGER

@<TRIPOS>ATOM
      1  N         25.0470   18.2910   16.4820 N.3   301  GLU301     -0.1208
      2  CA        23.5860   18.0750   16.2200 C.3   301  GLU301      0.1949
      3  C         23.2690   16.5790   16.2040 C.2   301  GLU301      0.3819
      4  O         24.0960   15.7780   16.6430 O.co2 301  GLU301     -0.2441
      5  CB        23.1450   18.7450   14.9130 C.3   301  GLU301      0.0424
      6  CG        22.9720   20.2740   15.0110 C.3   301  GLU301      0.1161
      7  CD        21.7660   20.6360   15.8980 C.2   301  GLU301      0.3649
      8  OE1       20.9010   19.7580   16.1130 O.co2 301  GLU301     -0.2457
      9  OE2       21.7110   21.7880   16.3680 O.co2 301  GLU301     -0.2457
     10  OXT       22.1330   16.1780   15.9000 O.co2 301  GLU301     -0.2441
@<TRIPOS>BOND
     1     5     6    1
     2     5     2    1
     3     6     7    1
     4     7     8   ar
     5     7     9   ar
     6    10     3   ar
     7     3     2    1
     8     3     4   ar
     9     2     1    1
