@<TRIPOS>MOLECULE
2i0c_GLU_A_1.pdb
 10 9 0 0 0
SMALL
GASTEIGER

@<TRIPOS>ATOM
      1  N        -25.1840   46.5900   -0.5610 N.3   998  GLU998     -0.1208
      2  CA       -26.5810   46.9100   -0.8630 C.3   998  GLU998      0.1949
      3  C        -26.8240   46.5300   -2.2920 C.2   998  GLU998      0.3819
      4  O        -27.8610   46.9560   -2.8180 O.co2 998  GLU998     -0.2441
      5  CB       -26.8620   48.3950   -0.6590 C.3   998  GLU998      0.0424
      6  CG       -26.9900   48.7990    0.7890 C.3   998  GLU998      0.1161
      7  CD       -28.2630   48.2470    1.4660 C.2   998  GLU998      0.3649
      8  OE1      -29.1660   47.7870    0.7310 O.co2 998  GLU998     -0.2457
      9  OE2      -28.3620   48.3150    2.7450 O.co2 998  GLU998     -0.2457
     10  OXT      -26.0040   45.7880   -2.8970 O.co2 998  GLU998     -0.2441
@<TRIPOS>BOND
     1    10     3   ar
     2     4     3   ar
     3     3     2    1
     4     2     5    1
     5     2     1    1
     6     5     6    1
     7     8     7   ar
     8     6     7    1
     9     7     9   ar
