@<TRIPOS>MOLECULE
2i0d_MUT_A_1.pdb
 45 48 0 0 0
SMALL
GASTEIGER

@<TRIPOS>ATOM
      1  O9        18.4710   33.3790   13.7330 O.2   200  MUT200     -0.1528
      2  S8        17.9420   32.5070   14.7630 S.O2  200  MUT200      0.0634
      3  O10       17.1760   31.4470   14.1620 O.2   200  MUT200     -0.1528
      4  C5        17.0350   33.3960   15.7810 C.ar  200  MUT200      0.1224
      5  C4        17.2940   34.7620   15.9630 C.ar  200  MUT200      0.0230
      6  C3        16.5620   35.5430   16.8590 C.ar  200  MUT200      0.0383
      7  C2        15.5670   34.9440   17.6510 C.ar  200  MUT200      0.1388
      8  O19       14.8560   35.6510   18.5860 O.3   200  MUT200     -0.4714
      9  C18       15.0380   37.0550   18.7950 C.3   200  MUT200      0.2525
     10  C7        15.3200   33.5790   17.5070 C.ar  200  MUT200      0.0383
     11  C6        16.0550   32.8130   16.5880 C.ar  200  MUT200      0.0230
     12  N11       19.2180   31.8380   15.4990 N.3   200  MUT200     -0.1529
     13  C12       19.9880   32.7990   16.3320 C.3   200  MUT200      0.0958
     14  C13       21.4740   32.4330   16.3210 C.3   200  MUT200      0.0178
     15  C14       22.0630   32.3930   14.9120 C.3   200  MUT200      0.0015
     16  C15       22.2990   33.3860   17.1770 C.3   200  MUT200      0.0015
     17  C16       18.9360   30.5520   16.1620 C.3   200  MUT200      0.1304
     18  C17       19.8300   29.4520   15.5710 C.3   200  MUT200      0.1897
     19  O18       19.7600   28.2940   16.4230 O.3   200  MUT200     -0.2197
     20  C19       19.3950   29.1670   14.1200 C.3   200  MUT200      0.1314
     21  C32       18.0560   28.4150   14.0070 C.3   200  MUT200      0.0506
     22  C38       17.7680   28.0790   12.5480 C.ar  200  MUT200     -0.0204
     23  C33       17.9540   26.7850   12.0510 C.ar  200  MUT200     -0.0042
     24  C34       17.7220   26.4830   10.7180 C.ar  200  MUT200     -0.0003
     25  C35       17.2760   27.4740    9.8470 C.ar  200  MUT200     -0.0000
     26  C36       17.0940   28.7610   10.3340 C.ar  200  MUT200     -0.0003
     27  C37       17.3350   29.0660   11.6750 C.ar  200  MUT200     -0.0042
     28  N20       20.3400   28.3000   13.3950 N.am  200  MUT200     -0.2011
     29  C21       21.0390   28.7550   12.3510 C.2   200  MUT200      0.2836
     30  O22       21.0420   29.9310   12.0260 O.2   200  MUT200     -0.2694
     31  C29       21.8480   27.7840   11.5280 C.3   200  MUT200      0.2673
     32  O28       21.8360   26.4690   12.0840 O.3   200  MUT200     -0.4267
     33  C26       21.4580   25.5680   11.0160 C.2   200  MUT200      0.4092
     34  O27       21.5270   24.3660   11.2130 O.2   200  MUT200     -0.2258
     35  C25       21.2060   27.6880   10.1210 C.3   200  MUT200      0.1547
     36  N24       21.1320   26.2450    9.9100 N.am  200  MUT200     -0.2208
     37  C43       20.7790   25.6650    8.6590 C.ar  200  MUT200      0.0572
     38  C44       21.2180   24.3930    8.2840 C.ar  200  MUT200      0.0150
     39  C45       20.8490   23.8240    7.0610 C.ar  200  MUT200      0.0014
     40  C40       20.0400   24.5230    6.1780 C.ar  200  MUT200      0.0029
     41  C42       19.9680   26.3580    7.7500 C.ar  200  MUT200      0.0178
     42  C41       19.5970   25.7990    6.5280 C.ar  200  MUT200      0.0360
     43  C46       18.6970   26.5940    5.5760 C.2   200  MUT200      0.1735
     44  O45       18.3090   27.7060    5.9080 O.2   200  MUT200     -0.2913
     45  C47       18.2950   25.9900    4.2650 C.3   200  MUT200      0.0773
@<TRIPOS>BOND
     1    45    43    1
     2    43    44    2
     3    43    42    1
     4    40    42   ar
     5    40    39   ar
     6    42    41   ar
     7    39    38   ar
     8    41    37   ar
     9    38    37   ar
    10    37    36    1
    11    25    26   ar
    12    25    24   ar
    13    36    35    1
    14    36    33   am
    15    35    31    1
    16    26    27   ar
    17    24    23   ar
    18    33    34    2
    19    33    32    1
    20    31    32    1
    21    31    29    1
    22    27    22   ar
    23    30    29    2
    24    23    22   ar
    25    29    28   am
    26    22    21    1
    27    28    20    1
    28     1     2    2
    29    21    20    1
    30    20    18    1
    31     3     2    2
    32     2    12    1
    33     2     4    1
    34    15    14    1
    35    12    17    1
    36    12    13    1
    37    18    17    1
    38    18    19    1
    39     4     5   ar
    40     4    11   ar
    41     5     6   ar
    42    14    13    1
    43    14    16    1
    44    11    10   ar
    45     6     7   ar
    46    10     7   ar
    47     7     8    1
    48     8     9    1
