@<TRIPOS>MOLECULE
2i0g_I0G_A_1.pdb
 21 24 0 0 0
SMALL
GASTEIGER

@<TRIPOS>ATOM
      1  C4        77.0370   39.8630   67.5790 C.3     1  I0G1        0.0292
      2  C6        77.8800   40.8900   68.3520 C.ar    1  I0G1        0.0148
      3  C7        78.7870   41.7320   67.6420 C.ar    1  I0G1        0.0407
      4  C8        79.5730   42.6830   68.3470 C.ar    1  I0G1        0.1956
      5  C10       79.4570   42.7880   69.7490 C.ar    1  I0G1        0.0451
      6  C17       75.6740   38.5710   72.3300 C.ar    1  I0G1        0.0025
      7  C21       74.1550   36.3510   71.4500 C.ar    1  I0G1        0.0418
      8  C22       74.9640   37.0520   70.5380 C.ar    1  I0G1        0.0025
      9  C24       74.7270   40.6460   67.1340 C.3     1  I0G1        0.0005
     10  C1        74.7290   39.8970   68.4920 C.3     1  I0G1        0.0043
     11  C2        76.0490   39.0640   68.5110 C.3     1  I0G1        0.0485
     12  O9        80.4400   43.4980   67.6880 O.3     1  I0G1       -0.2866
     13  C11       78.5650   41.9630   70.4420 C.ar    1  I0G1        0.0399
     14  C12       77.7740   41.0120   69.7530 C.ar    1  I0G1        0.1350
     15  O13       76.9200   40.2500   70.5140 O.3     1  I0G1       -0.4751
     16  C14       76.6420   38.9490   69.9620 C.3     1  I0G1        0.1883
     17  C16       75.7340   38.1700   70.9620 C.ar    1  I0G1        0.0174
     18  C18       74.8620   37.8620   73.2410 C.ar    1  I0G1        0.0418
     19  C19       74.1020   36.7480   72.7960 C.ar    1  I0G1        0.1957
     20  O20       73.3320   36.0650   73.6600 O.3     1  I0G1       -0.2866
     21  C23       76.1430   40.5400   66.5290 C.3     1  I0G1        0.0046
@<TRIPOS>BOND
     1    21     9    1
     2    21     1    1
     3     9    10    1
     4     1     2    1
     5     1    11    1
     6     3     4   ar
     7     3     2   ar
     8    12     4    1
     9     4     5   ar
    10     2    14   ar
    11    10    11    1
    12    11    16    1
    13     5    13   ar
    14    14    13   ar
    15    14    15    1
    16    16    15    1
    17    16    17    1
    18     8    17   ar
    19     8     7   ar
    20    17     6   ar
    21     7    19   ar
    22     6    18   ar
    23    19    18   ar
    24    19    20    1
