@<TRIPOS>MOLECULE
2i0h_222_A_1.pdb
 37 41 0 0 0
SMALL
GASTEIGER

@<TRIPOS>ATOM
      1  C13       22.1560    9.6740   30.7590 C.ar  400  222400      0.2806
      2  C1        24.8960   11.6670   30.8460 C.ar  400  222400      0.0201
      3  C2        23.8900   11.0410   31.6760 C.ar  400  222400      0.0965
      4  C3        24.2680   10.5070   32.9720 C.ar  400  222400      0.0754
      5  C4        25.6160   10.5880   33.4420 C.ar  400  222400      0.0129
      6  C5        26.6210   11.2160   32.6100 C.ar  400  222400      0.0010
      7  C6        26.2560   11.7560   31.3120 C.ar  400  222400      0.0016
      8  C14       20.7240    9.5950   30.3210 C.ar  400  222400      0.0655
      9  N11       22.5980   10.9330   31.2560 N.ar  400  222400     -0.1924
     10 CL1        23.0680    9.7460   33.9900 Cl    400  222400     -0.0807
     11  C15       19.9180   10.6890   30.4110 C.ar  400  222400      0.0417
     12  C16       20.4670   12.0160   30.9590 C.ar  400  222400      0.1596
     13  N17       21.8270   11.9870   31.3460 N.ar  400  222400     -0.1468
     14  O18       22.8200    8.6690   30.6570 O.2   400  222400     -0.2652
     15  N21       20.0940   13.3900   31.2550 N.pl3 400  222400     -0.2480
     16  C22       20.7690   14.6360   31.5960 C.2   400  222400      0.0680
     17  C23       18.6610   13.4460   31.1830 C.ar  400  222400      0.0676
     18  C33       18.0490   14.0450   29.9900 C.ar  400  222400      0.0184
     19  C34       16.6270   14.1460   29.8600 C.ar  400  222400      0.0310
     20  C35       15.7910   13.6570   30.9050 C.ar  400  222400      0.1411
     21  C36       16.3130   13.0580   32.1030 C.ar  400  222400      0.0423
     22  C37       17.7380   12.9550   32.2440 C.ar  400  222400      0.0738
     23 CL2        18.3100   12.2470   33.7110 Cl    400  222400     -0.0809
     24  F42       14.4870   13.7710   30.7540 F     400  222400     -0.2041
     25  C24       21.0460   14.9820   33.0300 C.2   400  222400      0.0122
     26  C27       21.9390   16.1590   33.3640 C.3   400  222400      0.1291
     27  N30       23.3220   15.9440   32.8890 N.am  400  222400     -0.2185
     28  C43       23.8280   16.3650   31.6820 C.2   400  222400      0.2554
     29  C44       25.2180   15.9500   31.6640 C.ar  400  222400      0.0584
     30  C45       25.4860   15.2980   32.8620 C.ar  400  222400      0.0584
     31  C46       24.2580   15.2860   33.6410 C.2   400  222400      0.2554
     32  C47       26.2070   16.1360   30.6770 C.ar  400  222400      0.0047
     33  C48       27.5050   15.6220   30.9520 C.ar  400  222400      0.0001
     34  C49       27.7830   14.9450   32.1930 C.ar  400  222400      0.0001
     35  C50       26.7600   14.7730   33.1640 C.ar  400  222400      0.0047
     36  O55       23.2150   16.9730   30.8040 O.2   400  222400     -0.2695
     37  O56       24.0690   14.8050   34.7580 O.2   400  222400     -0.2695
@<TRIPOS>BOND
     1    19    18   ar
     2    19    20   ar
     3    18    17   ar
     4     8    11   ar
     5     8     1   ar
     6    11    12   ar
     7    14     1    2
     8    32    33   ar
     9    32    29   ar
    10    24    20    1
    11     1     9   ar
    12    36    28    2
    13     2     7   ar
    14     2     3   ar
    15    20    21   ar
    16    33    34   ar
    17    12    15    1
    18    12    13   ar
    19    17    15    1
    20    17    22   ar
    21    15    16    1
    22     9    13   ar
    23     9     3    1
    24     7     6   ar
    25    16    25    2
    26    29    28    1
    27    29    30   ar
    28     3     4   ar
    29    28    27   am
    30    21    22   ar
    31    34    35   ar
    32    22    23    1
    33     6     5   ar
    34    30    35   ar
    35    30    31    1
    36    27    26    1
    37    27    31   am
    38     4     5   ar
    39     4    10    1
    40    25    26    1
    41    31    37    2
