@<TRIPOS>MOLECULE
2i0j_I0G_A_1.pdb
 21 24 0 0 0
SMALL
GASTEIGER

@<TRIPOS>ATOM
      1  C4        33.7770   -5.1350   12.6810 C.3     1  I0G1        0.0292
      2  C6        32.8290   -6.2530   12.2810 C.ar    1  I0G1        0.0148
      3  C7        32.0240   -6.8730   13.2730 C.ar    1  I0G1        0.0407
      4  C8        31.1230   -7.9440   12.9310 C.ar    1  I0G1        0.1956
      5  C10       31.0470   -8.3620   11.5760 C.ar    1  I0G1        0.0451
      6  C17       36.8180   -4.8700    9.3300 C.ar    1  I0G1        0.0025
      7  C21       35.9450   -4.7910    6.9730 C.ar    1  I0G1        0.0418
      8  C22       35.1710   -5.1810    8.0570 C.ar    1  I0G1        0.0025
      9  C24       32.9110   -2.9270   12.0410 C.3     1  I0G1        0.0005
     10  C1        33.7130   -3.5030   10.8610 C.3     1  I0G1        0.0043
     11  C2        34.6020   -4.5890   11.4670 C.3     1  I0G1        0.0485
     12  O9        30.3190   -8.5760   13.9080 O.3     1  I0G1       -0.2866
     13  C11       31.8460   -7.7280   10.6190 C.ar    1  I0G1        0.0399
     14  C12       32.7370   -6.6670   10.9660 C.ar    1  I0G1        0.1350
     15  O13       33.4910   -6.0940    9.9580 O.3     1  I0G1       -0.4751
     16  C14       34.7880   -5.6820   10.4280 C.3     1  I0G1        0.1883
     17  C16       35.6130   -5.2260    9.2300 C.ar    1  I0G1        0.0174
     18  C18       37.5960   -4.4780    8.2570 C.ar    1  I0G1        0.0418
     19  C19       37.1650   -4.4310    7.0760 C.ar    1  I0G1        0.1957
     20  O20       37.9480   -4.0350    6.0050 O.3     1  I0G1       -0.2866
     21  C23       32.9600   -3.9630   13.1940 C.3     1  I0G1        0.0046
@<TRIPOS>BOND
     1    20    19    1
     2     7    19   ar
     3     7     8   ar
     4    19    18   ar
     5     8    17   ar
     6    18     6   ar
     7    17     6   ar
     8    17    16    1
     9    15    16    1
    10    15    14    1
    11    16    11    1
    12    13    14   ar
    13    13     5   ar
    14    10    11    1
    15    10     9    1
    16    14     2   ar
    17    11     1    1
    18     5     4   ar
    19     9    21    1
    20     2     1    1
    21     2     3   ar
    22     1    21    1
    23     4     3   ar
    24     4    12    1
