@<TRIPOS>MOLECULE
2i0l_III_C_1.pdb
 49 48 0 0 0
SMALL
GASTEIGER

@<TRIPOS>ATOM
      1  N         -8.3730    2.2030   32.5460 N.3   2001  ARG2001    -0.1231
      2  CA        -6.9890    2.3220   32.0510 C.3   2001  ARG2001     0.1694
      3  C         -6.6170    1.0430   31.2640 C.2   2001  ARG2001     0.2592
      4  O         -6.4740    0.0020   31.8880 O.2   2001  ARG2001    -0.2718
      5  CB        -6.0310    2.5050   33.2680 C.3   2001  ARG2001     0.0304
      6  N         -6.4540    1.1170   29.9330 N.am  2002  ARG2002    -0.1966
      7  CA        -6.1320   -0.0630   29.0760 C.3   2002  ARG2002     0.1729
      8  C         -4.7380   -0.0520   28.2920 C.2   2002  ARG2002     0.2616
      9  O         -4.5800    0.8520   27.4610 O.2   2002  ARG2002    -0.2715
     10  CB        -7.2760   -0.2430   28.0230 C.3   2002  ARG2002     0.0348
     11  CG        -8.6280   -0.8670   28.4630 C.3   2002  ARG2002     0.0492
     12  CD        -8.6090   -2.3740   28.1400 C.3   2002  ARG2002     0.2205
     13  NE        -9.6410   -2.8430   27.2010 N.pl3 2002  ARG2002    -0.0865
     14  CZ        -9.5370   -3.9560   26.4650 C.cat 2002  ARG2002     0.5346
     15  NH1       -8.4510   -4.7130   26.5430 N.pl3 2002  ARG2002     0.1354
     16  NH2      -10.5240   -4.3360   25.6600 N.pl3 2002  ARG2002     0.1354
     17  N         -3.7620   -0.9790   28.5720 N.am  2003  GLU2003    -0.1963
     18  CA        -2.4160   -1.1860   27.8680 C.3   2003  GLU2003     0.1733
     19  C         -2.4900   -2.6720   27.3680 C.2   2003  GLU2003     0.2617
     20  O         -2.6360   -3.5870   28.1940 O.2   2003  GLU2003    -0.2715
     21  CB        -1.1810   -1.0440   28.8150 C.3   2003  GLU2003     0.0429
     22  CG        -0.0470   -1.9810   28.3940 C.3   2003  GLU2003     0.1163
     23  CD         1.3090   -1.6660   28.9720 C.2   2003  GLU2003     0.3649
     24  OE1        2.1650   -2.5540   28.7880 O.co2 2003  GLU2003    -0.2457
     25  OE2        1.5260   -0.5780   29.5670 O.co2 2003  GLU2003    -0.2457
     26  N         -2.3680   -2.9200   26.0540 N.am  2004  THR2004    -0.1937
     27  CA        -2.5170   -4.2910   25.5050 C.3   2004  THR2004     0.2028
     28  C         -1.3850   -4.9340   24.6700 C.2   2004  THR2004     0.2642
     29  O         -0.7040   -4.2700   23.8820 O.2   2004  THR2004    -0.2714
     30  CB        -3.7900   -4.4070   24.6370 C.3   2004  THR2004     0.1808
     31  OG1       -4.9440   -3.9580   25.3630 O.3   2004  THR2004    -0.2208
     32  CG2       -4.0010   -5.8520   24.2390 C.3   2004  THR2004     0.0379
     33  N         -1.2270   -6.2490   24.8400 N.am  2005  GLN2005    -0.1963
     34  CA        -0.2070   -7.0500   24.1420 C.3   2005  GLN2005     0.1733
     35  C         -0.6920   -7.3670   22.7330 C.2   2005  GLN2005     0.2617
     36  O         -1.7200   -8.0090   22.5690 O.2   2005  GLN2005    -0.2715
     37  CB         0.0220   -8.3810   24.8790 C.3   2005  GLN2005     0.0408
     38  CG         1.4300   -8.6340   25.4610 C.3   2005  GLN2005     0.0908
     39  CD         2.4310   -9.2280   24.4680 C.2   2005  GLN2005     0.2608
     40  OE1        3.3280   -9.9820   24.8570 O.2   2005  GLN2005    -0.2717
     41  NE2        2.2930   -8.8800   23.1950 N.am  2005  GLN2005    -0.0878
     42  N          0.0570   -6.9360   21.7260 N.am  2006  VAL2006    -0.1942
     43  CA        -0.3130   -7.1680   20.3360 C.3   2006  VAL2006     0.1977
     44  C          0.8490   -7.7870   19.5590 C.2   2006  VAL2006     0.3842
     45  O          0.6440   -8.4300   18.5280 O.co2 2006  VAL2006    -0.2437
     46  CB        -0.7320   -5.8440   19.6430 C.3   2006  VAL2006     0.0311
     47  CG1       -1.0230   -6.0930   18.1700 C.3   2006  VAL2006     0.0023
     48  CG2       -1.9630   -5.2540   20.3330 C.3   2006  VAL2006     0.0023
     49  OXT        1.9980   -7.5910   20.0030 O.co2 2006  VAL2006    -0.2437
@<TRIPOS>BOND
     1    47    46    1
     2    45    44   ar
     3    44    49   ar
     4    44    43    1
     5    46    48    1
     6    46    43    1
     7    43    42    1
     8    42    35   am
     9    36    35    2
    10    35    34    1
    11    41    39   am
    12    29    28    2
    13    34    33    1
    14    34    37    1
    15    32    30    1
    16    39    40    2
    17    39    38    1
    18    30    31    1
    19    30    27    1
    20    28    33   am
    21    28    27    1
    22    37    38    1
    23    27    26    1
    24    16    14    1
    25    26    19   am
    26    14    15    1
    27    14    13    2
    28    13    12    1
    29    19    18    1
    30    19    20    2
    31     9     8    2
    32    18    17    1
    33    18    21    1
    34    10    11    1
    35    10     7    1
    36    12    11    1
    37     8    17   am
    38     8     7    1
    39    22    21    1
    40    22    23    1
    41    24    23   ar
    42    23    25   ar
    43     7     6    1
    44     6     3   am
    45     3     4    2
    46     3     2    1
    47     2     1    1
    48     2     5    1
