@<TRIPOS>MOLECULE
2i0u_TRT_A_1.pdb
 25 25 0 0 0
SMALL
GASTEIGER

@<TRIPOS>ATOM
      1  C25       28.5760   18.6510    6.3500 C.3   2123  TRT2123     0.1742
      2  O24       28.2470   18.6710    7.7450 O.3   2123  TRT2123    -0.3484
      3  C23       26.8910   18.2810    7.9950 C.3   2123  TRT2123     0.1742
      4  C22       26.7100   17.9560    9.4760 C.3   2123  TRT2123     0.1742
      5  O21       26.6060   16.5400    9.6570 O.3   2123  TRT2123    -0.3484
      6  C20       25.3540   16.1550   10.2240 C.3   2123  TRT2123     0.1742
      7  C19       25.6020   15.1780   11.3690 C.3   2123  TRT2123     0.1743
      8  O18       25.6700   15.8730   12.6160 O.3   2123  TRT2123    -0.3471
      9  C17       25.8980   15.0110   13.7380 C.3   2123  TRT2123     0.1894
     10  C16       26.6150   15.7930   14.8360 C.3   2123  TRT2123     0.2373
     11  O15       25.9770   17.0500   15.0700 O.3   2123  TRT2123    -0.4727
     12  C12       26.2280   17.7670   16.2170 C.ar  2123  TRT2123     0.1387
     13  C13       25.2270   17.8520   17.2240 C.ar  2123  TRT2123     0.0366
     14  C14       25.4740   18.5950   18.4080 C.ar  2123  TRT2123    -0.0012
     15  C11       27.4770   18.4270   16.3940 C.ar  2123  TRT2123     0.0366
     16  C10       27.7260   19.1720   17.5800 C.ar  2123  TRT2123    -0.0012
     17  C9        26.7310   19.2740   18.6150 C.ar  2123  TRT2123    -0.0226
     18  C6        26.9830   20.0870   19.9250 C.3   2123  TRT2123     0.0189
     19  C8        25.9910   21.2530   19.8750 C.3   2123  TRT2123     0.0044
     20  C7        28.3780   20.7300   19.9430 C.3   2123  TRT2123     0.0044
     21  C5        26.6680   19.3420   21.2730 C.3   2123  TRT2123     0.0040
     22  C1        27.3660   18.0680   21.8650 C.3   2123  TRT2123     0.0003
     23  C2        27.2720   16.8080   20.9940 C.3   2123  TRT2123     0.0000
     24  C4        26.6870   17.7550   23.1820 C.3   2123  TRT2123     0.0000
     25  C3        28.8320   18.2570   22.2160 C.3   2123  TRT2123     0.0000
@<TRIPOS>BOND
     1     1     2    1
     2     2     3    1
     3     3     4    1
     4     4     5    1
     5     5     6    1
     6     6     7    1
     7     7     8    1
     8     8     9    1
     9     9    10    1
    10    10    11    1
    11    11    12    1
    12    12    15   ar
    13    12    13   ar
    14    15    16   ar
    15    13    14   ar
    16    16    17   ar
    17    14    17   ar
    18    17    18    1
    19    19    18    1
    20    18    20    1
    21    18    21    1
    22    23    22    1
    23    21    22    1
    24    22    25    1
    25    22    24    1
