@<TRIPOS>MOLECULE
2i0v_6C3_A_1.pdb
 24 27 0 0 0
SMALL
GASTEIGER

@<TRIPOS>ATOM
      1  C1         8.6990   25.9350    7.8890 C.ar  1000  6C31000     0.1438
      2  C2         7.8980   26.6870    6.9720 C.ar  1000  6C31000     0.0289
      3  C3         7.6680   26.1070    5.6790 C.ar  1000  6C31000     0.0137
      4  C7         7.2920   28.0220    7.3900 C.2   1000  6C31000     0.0038
      5  C8         7.5420   28.4900    8.7370 C.3   1000  6C31000     0.2000
      6  C9         8.4250   27.6200    9.6670 C.1   1000  6C31000     0.1908
      7  C10        5.0730   28.7240    6.3350 C.ar  1000  6C31000    -0.0003
      8  C11        4.3540   29.4760    5.3790 C.ar  1000  6C31000    -0.0000
      9  C12        5.0360   30.2980    4.4500 C.ar  1000  6C31000    -0.0000
     10  C13        6.4450   30.3720    4.4710 C.ar  1000  6C31000    -0.0000
     11  C14        7.1740   29.6300    5.4250 C.ar  1000  6C31000    -0.0003
     12  C15        6.4950   28.8070    6.3750 C.ar  1000  6C31000    -0.0024
     13  C16        6.0920   30.5850    8.8630 C.ar  1000  6C31000     0.0551
     14  C19        4.7470   32.6220    9.7320 C.3   1000  6C31000     0.0557
     15  C4         8.2090   24.8470    5.3410 C.ar  1000  6C31000     0.0578
     16  C5         9.0000   24.1200    6.2570 C.ar  1000  6C31000     0.0140
     17  C6         9.2490   24.6620    7.5360 C.ar  1000  6C31000     0.0339
     18  N1         8.9220   26.4320    9.1730 N.2   1000  6C31000    -0.3358
     19 CL1         7.8720   24.1940    3.8030 Cl    1000  6C31000    -0.0822
     20  O1         8.7180   27.9500   10.8330 O.2   1000  6C31000    -0.2134
     21  C17        6.9910   29.6970    9.4580 C.ar  1000  6C31000     0.1744
     22  O2         7.1850   30.2100   10.7360 O.2   1000  6C31000    -0.3566
     23  N2         6.4370   31.3470   10.9590 N.ar  1000  6C31000    -0.0817
     24  C18        5.7720   31.5570    9.8210 C.ar  1000  6C31000     0.1008
@<TRIPOS>BOND
     1    19    15    1
     2     9    10   ar
     3     9     8   ar
     4    10    11   ar
     5    15     3   ar
     6    15    16   ar
     7     8     7   ar
     8    11    12   ar
     9     3     2   ar
    10    16    17   ar
    11     7    12   ar
    12    12     4    1
    13     2     4    2
    14     2     1   ar
    15     4     5    1
    16    17     1   ar
    17     1    18    2
    18     5    21    1
    19     5     6    1
    20    13    21   ar
    21    13    24   ar
    22    18     6    2
    23    21    22   ar
    24     6    20    2
    25    14    24    1
    26    24    23   ar
    27    22    23   ar
