@<TRIPOS>MOLECULE
2i0y_5CN_A_1.pdb
 25 27 0 0 0
SMALL
GASTEIGER

@<TRIPOS>ATOM
      1  C1         4.8210   29.4920    6.6940 C.ar  1000  5CN1000     0.0634
      2  C2         4.0660   30.6670    7.0190 C.ar  1000  5CN1000     0.0156
      3  C3         4.0100   31.1710    8.3450 C.ar  1000  5CN1000    -0.0004
      4  C7         6.3080   28.5200    3.3060 C.3   1000  5CN1000     0.0215
      5  C8         6.2000   29.3000    4.6260 C.3   1000  5CN1000     0.0908
      6  C9         3.6200   28.7700    4.6020 C.3   1000  5CN1000     0.0908
      7  C10        3.8570   28.0410    3.2600 C.3   1000  5CN1000     0.0215
      8  C11        5.0380   28.6280    2.4680 C.3   1000  5CN1000     0.0034
      9  C12        5.2240   27.8740    1.1540 C.3   1000  5CN1000     0.0001
     10  C13        4.6580   31.0470   10.8010 C.3   1000  5CN1000     0.2086
     11  C14        7.0690   26.7940    8.1310 C.2   1000  5CN1000     0.3037
     12  C15        7.4480   25.6140    7.3570 C.ar  1000  5CN1000     0.2014
     13  C16        8.2850   24.5520    7.6490 C.ar  1000  5CN1000     0.0462
     14  C19        7.0100   23.9000    4.3000 C.1   1000  5CN1000     0.1384
     15  C4         4.7120   30.5160    9.3960 C.ar  1000  5CN1000     0.0119
     16  C5         5.4680   29.3420    9.0980 C.ar  1000  5CN1000     0.0161
     17  C6         5.5300   28.8160    7.7630 C.ar  1000  5CN1000     0.0868
     18  N1         4.8900   29.1020    5.3310 N.pl3 1000  5CN1000    -0.3065
     19  O1         3.3930   30.6960   11.3640 O.3   1000  5CN1000    -0.2152
     20  N2         6.1970   27.6130    7.4300 N.am  1000  5CN1000    -0.1716
     21  O2         7.4780   26.9850    9.2800 O.2   1000  5CN1000    -0.2646
     22  C17        8.2660   23.6880    6.5170 C.ar  1000  5CN1000     0.0515
     23  C18        7.4180   24.2790    5.6030 C.ar  1000  5CN1000     0.2129
     24  O3         6.9180   25.4400    6.0940 O.2   1000  5CN1000    -0.4387
     25  N3         6.6830   23.6010    3.2280 N.1   1000  5CN1000    -0.1876
@<TRIPOS>BOND
     1     9     8    1
     2     8     7    1
     3     8     4    1
     4    25    14    3
     5     7     6    1
     6     4     5    1
     7    14    23    1
     8     6    18    1
     9     5    18    1
    10    18     1    1
    11    23    24   ar
    12    23    22   ar
    13    24    12   ar
    14    22    13   ar
    15     1     2   ar
    16     1    17   ar
    17     2     3   ar
    18    12    13   ar
    19    12    11    1
    20    20    17    1
    21    20    11   am
    22    17    16   ar
    23    11    21    2
    24     3    15   ar
    25    16    15   ar
    26    15    10    1
    27    10    19    1
