@<TRIPOS>MOLECULE
2i10_NPO_B_1.pdb
 10 10 0 0 0
SMALL
GASTEIGER

@<TRIPOS>ATOM
      1  C1        -3.4650   33.5190   28.6750 C.ar  201  NPO201      0.1431
      2  C2        -4.3270   32.8170   27.8520 C.ar  201  NPO201      0.0274
      3  C3        -4.1280   31.4840   27.5970 C.ar  201  NPO201      0.0437
      4  C4        -3.0710   30.8310   28.1570 C.ar  201  NPO201      0.1958
      5  C5        -2.1830   31.5000   28.9900 C.ar  201  NPO201      0.0437
      6  C6        -2.3800   32.8480   29.2530 C.ar  201  NPO201      0.0274
      7  OH        -2.9390   29.5170   27.8470 O.3   201  NPO201     -0.2866
      8  N1        -3.7750   34.8910   28.8760 N.pl3 201  NPO201      0.0577
      9  O2        -4.8230   35.3130   28.3670 O.2   201  NPO201     -0.1261
     10  O3        -3.0660   35.6570   29.5380 O.2   201  NPO201     -0.1261
@<TRIPOS>BOND
     1     3     2   ar
     2     3     4   ar
     3     7     4    1
     4     2     1   ar
     5     4     5   ar
     6     9     8    2
     7     1     8    1
     8     1     6   ar
     9     8    10    2
    10     5     6   ar
