@<TRIPOS>MOLECULE
2i14_PCP_A_1.pdb
 22 22 0 0 0
SMALL
GASTEIGER

@<TRIPOS>ATOM
      1  C1       148.4580  161.8690 -123.5940 C.3   392  PCP392      0.1547
      2  C2       149.8600  162.4170 -123.9420 C.3   392  PCP392      0.2094
      3  C3       149.9260  162.3510 -125.4880 C.3   392  PCP392      0.1870
      4  C4       149.1180  161.0890 -125.8640 C.3   392  PCP392      0.0658
      5  C5       148.0760  161.0700 -124.7990 C.3   392  PCP392      0.0379
      6  CP       149.9460  159.7670 -125.9420 C.3   392  PCP392      0.1564
      7  O1       147.4250  162.9880 -123.5110 O.3   392  PCP392     -0.3136
      8  O2       150.0180  163.7630 -123.4850 O.3   392  PCP392     -0.2178
      9  O3       149.3190  163.4870 -126.1300 O.3   392  PCP392     -0.2202
     10  OP       150.6180  159.3640 -124.6970 O.3   392  PCP392     -0.2702
     11  P        150.7580  157.8100 -124.2120 P.3   392  PCP392      0.5326
     12  O1P      152.1510  157.6300 -123.7490 O.3   392  PCP392     -0.1145
     13  O2P      150.4380  156.9610 -125.4030 O.2   392  PCP392     -0.2224
     14  O3P      149.7850  157.6460 -123.0930 O.3   392  PCP392     -0.1145
     15  PA       145.8890  162.7900 -123.1440 P.3   392  PCP392      0.2230
     16  O1A      145.8480  162.0430 -121.8220 O.3   392  PCP392     -0.4370
     17  O2A      145.2890  161.9780 -124.2730 O.2   392  PCP392     -0.5169
     18  O3A      145.3580  164.2580 -123.0640 O.3   392  PCP392     -0.2261
     19  PB       145.8960  165.6330 -122.5950 P.3   392  PCP392      0.5373
     20  O1B      144.8290  166.6750 -122.5770 O.3   392  PCP392     -0.1143
     21  O2B      146.9290  166.1400 -123.4760 O.2   392  PCP392     -0.2221
     22  O3B      146.4780  165.5450 -121.2240 O.3   392  PCP392     -0.1143
@<TRIPOS>BOND
     1     9     3    1
     2     6     4    1
     3     6    10    1
     4     4     3    1
     5     4     5    1
     6     3     2    1
     7    13    11    2
     8     5     1    1
     9    10    11    1
    10    17    15    2
    11    11    12    1
    12    11    14    1
    13     2     1    1
    14     2     8    1
    15     1     7    1
    16     7    15    1
    17    21    19    2
    18    15    18    1
    19    15    16    1
    20    18    19    1
    21    19    20    1
    22    19    22    1
