@<TRIPOS>MOLECULE
2i16_LDT_A_1.pdb
 24 25 0 0 0
SMALL
GASTEIGER

@<TRIPOS>ATOM
      1  C2        15.6250   -9.4450   18.1210 C.ar  321  LDT321      0.0666
      2  C3        15.9820  -10.3410   15.5180 C.ar  321  LDT321      0.0071
      3  C4        16.5250   -8.7790   17.2670 C.ar  321  LDT321      0.1433
      4  C5        14.9320  -10.5260   17.6170 C.ar  321  LDT321      0.1432
      5  C6        15.0740  -11.0070   16.3510 C.ar  321  LDT321      0.0299
      6  C7        16.6870   -9.2290   15.9490 C.ar  321  LDT321      0.0556
      7 BR8        14.8810   -3.7390    9.6920 Br    321  LDT321     -0.0489
      8  F9        14.0830  -11.1560   18.4670 F     321  LDT321     -0.2041
      9  C11       17.5750   -8.5250   14.9870 C.2   321  LDT321      0.1039
     10  C13       18.2780   -6.3220   14.1810 C.3   321  LDT321      0.1414
     11  F14       19.2200   -4.3600   12.4720 F     321  LDT321     -0.2044
     12  O15       17.3350   -7.7820   17.7000 O.3   321  LDT321     -0.4636
     13  S16       18.5220   -9.3830   13.8940 S.2   321  LDT321     -0.0331
     14  N17       17.5220   -7.2040   15.0390 N.am  321  LDT321     -0.2257
     15  C20       16.8380   -6.9040   18.6990 C.3   321  LDT321      0.3186
     16  C24       17.4350   -5.7820   13.0330 C.ar  321  LDT321      0.0269
     17  C25       15.9610   -4.6160   10.9900 C.ar  321  LDT321      0.0368
     18  C26       16.1350   -6.1960   12.7780 C.ar  321  LDT321      0.0002
     19  C27       17.9640   -4.7890   12.2250 C.ar  321  LDT321      0.1383
     20  C28       17.2430   -4.1910   11.1950 C.ar  321  LDT321      0.0361
     21  C29       15.3830   -5.6180   11.7540 C.ar  321  LDT321      0.0066
     22  C32       15.6990   -6.0170   18.1620 C.2   321  LDT321      0.4084
     23  O33       14.9880   -5.4940   19.0650 O.co2 321  LDT321     -0.2415
     24  O34       15.5770   -5.8880   16.9400 O.co2 321  LDT321     -0.2415
@<TRIPOS>BOND
     1     7    17    1
     2    17    20   ar
     3    17    21   ar
     4    20    19   ar
     5    21    18   ar
     6    19    11    1
     7    19    16   ar
     8    18    16   ar
     9    16    10    1
    10    13     9    2
    11    10    14    1
    12     9    14    1
    13     9     6    1
    14     2     6   ar
    15     2     5   ar
    16     6     3   ar
    17     5     4   ar
    18    24    22   ar
    19     3    12    1
    20     3     1   ar
    21     4     1   ar
    22     4     8    1
    23    12    15    1
    24    22    15    1
    25    22    23   ar
