@<TRIPOS>MOLECULE
2i16_NDP_A_1.pdb
 48 52 0 0 0
SMALL
GASTEIGER

@<TRIPOS>ATOM
      1  PA        22.6230   -4.7280   26.9370 P.3   319  NDP319      0.2189
      2  O1A       23.5430   -3.6680   26.4530 O.2   319  NDP319     -0.5170
      3  O2A       21.5400   -4.4030   27.8750 O.3   319  NDP319     -0.4371
      4  O5B       23.5590   -5.9040   27.4680 O.3   319  NDP319     -0.3112
      5  C5B       22.9570   -7.1270   27.9740 C.3   319  NDP319      0.1813
      6  C4B       24.0990   -8.0360   28.3290 C.3   319  NDP319      0.1820
      7  O4B       24.8820   -7.4240   29.4060 O.3   319  NDP319     -0.3136
      8  C3B       23.7150   -9.4280   28.8100 C.3   319  NDP319      0.2157
      9  O3B       24.6680  -10.3550   28.3000 O.3   319  NDP319     -0.2175
     10  C2B       23.8500   -9.3020   30.3370 C.3   319  NDP319      0.2314
     11  O2B       24.1850  -10.5490   30.9420 O.3   319  NDP319     -0.2630
     12  C1B       25.0020   -8.3220   30.4830 C.3   319  NDP319      0.3158
     13  N9A       24.9810   -7.5830   31.7270 N.pl3 319  NDP319     -0.1439
     14  C8A       23.9000   -6.9340   32.2700 C.3   319  NDP319      0.3377
     15  N7A       24.1660   -6.2940   33.3790 N.2   319  NDP319     -0.2095
     16  C5A       25.4930   -6.5310   33.5660 C.2   319  NDP319      0.2526
     17  C6A       26.3670   -6.1360   34.6070 C.2   319  NDP319      0.4393
     18  N6A       25.9600   -5.4210   35.6430 N.pl3 319  NDP319      0.2180
     19  N1A       27.6440   -6.5590   34.5190 N.2   319  NDP319      0.0021
     20  C2A       28.0250   -7.3040   33.4520 C.3   319  NDP319      0.5254
     21  N3A       27.3080   -7.7250   32.4380 N.2   319  NDP319     -0.0055
     22  C4A       26.0210   -7.3070   32.5540 C.2   319  NDP319      0.3518
     23  O3        22.0120   -5.4510   25.6140 O.3   319  NDP319     -0.2703
     24  PN        20.6230   -5.5590   24.8480 P.3   319  NDP319      0.2189
     25  O1N       19.8310   -6.6910   25.4280 O.3   319  NDP319     -0.4371
     26  O2N       20.9540   -5.5770   23.3970 O.2   319  NDP319     -0.5170
     27  O5D       19.8750   -4.1570   25.0960 O.3   319  NDP319     -0.3112
     28  C5D       19.0070   -3.9230   26.2150 C.3   319  NDP319      0.1813
     29  C4D       17.5520   -4.0480   25.8070 C.3   319  NDP319      0.1799
     30  O4D       17.2220   -3.0380   24.8210 O.3   319  NDP319     -0.3327
     31  C3D       17.1560   -5.3410   25.1060 C.3   319  NDP319      0.2158
     32  O3D       17.0880   -6.4580   25.9750 O.3   319  NDP319     -0.2175
     33  C2D       15.8010   -4.9400   24.5170 C.3   319  NDP319      0.2309
     34  O2D       14.8560   -4.8980   25.5660 O.3   319  NDP319     -0.2158
     35  C1D       16.1650   -3.5170   24.0200 C.3   319  NDP319      0.2263
     36  N1N       16.6130   -3.4960   22.5850 N.pl3 319  NDP319     -0.2787
     37  C2N       15.7700   -2.9710   21.6630 C.3   319  NDP319      0.1244
     38  C3N       16.0960   -2.9610   20.3250 C.2   319  NDP319      0.0544
     39  C7N       15.2450   -2.2910   19.2990 C.2   319  NDP319      0.2818
     40  O7N       15.4270   -2.5170   18.0990 O.2   319  NDP319     -0.2670
     41  N7N       14.2990   -1.4450   19.7590 N.am  319  NDP319     -0.0839
     42  C4N       17.3100   -3.5470   19.9220 C.2   319  NDP319      0.0033
     43  C5N       18.1800   -4.0250   20.8870 C.2   319  NDP319      0.0157
     44  C6N       17.8380   -3.9680   22.2220 C.2   319  NDP319      0.0633
     45  P2B       23.1500  -11.4540   31.7850 P.3   319  NDP319      0.5328
     46  O1X       21.7650  -11.2370   31.2200 O.2   319  NDP319     -0.2224
     47  O2X       23.7350  -12.8290   31.5650 O.3   319  NDP319     -0.1145
     48  O3X       23.2800  -10.9910   33.2320 O.3   319  NDP319     -0.1145
@<TRIPOS>BOND
     1    40    39    2
     2    39    41   am
     3    39    38    1
     4    42    38    2
     5    42    43    1
     6    38    37    1
     7    43    44    2
     8    37    36    1
     9    44    36    1
    10    36    35    1
    11    26    24    2
    12    35    33    1
    13    35    30    1
    14    33    31    1
    15    33    34    1
    16    30    29    1
    17    24    27    1
    18    24    25    1
    19    24    23    1
    20    27    28    1
    21    31    29    1
    22    31    32    1
    23    23     1    1
    24    29    28    1
    25     2     1    2
    26     1     4    1
    27     1     3    1
    28     4     5    1
    29     5     6    1
    30     9     8    1
    31     6     8    1
    32     6     7    1
    33     8    10    1
    34     7    12    1
    35    10    12    1
    36    10    11    1
    37    12    13    1
    38    11    45    1
    39    46    45    2
    40    47    45    1
    41    13    14    1
    42    13    22    1
    43    45    48    1
    44    14    15    1
    45    21    22    2
    46    21    20    1
    47    22    16    1
    48    15    16    2
    49    20    19    1
    50    16    17    1
    51    19    17    2
    52    17    18    1
