@<TRIPOS>MOLECULE
2i17_NDP_A_1.pdb
 48 52 0 0 0
SMALL
GASTEIGER

@<TRIPOS>ATOM
      1  PA        22.6370   -4.7320   26.9440 P.3   319  NDP319      0.2189
      2  O1A       23.5530   -3.6780   26.4510 O.2   319  NDP319     -0.5170
      3  O2A       21.5550   -4.4030   27.8870 O.3   319  NDP319     -0.4371
      4  O5B       23.5740   -5.9070   27.4750 O.3   319  NDP319     -0.3112
      5  C5B       22.9760   -7.1300   27.9850 C.3   319  NDP319      0.1813
      6  C4B       24.1230   -8.0330   28.3430 C.3   319  NDP319      0.1820
      7  O4B       24.9020   -7.4230   29.4140 O.3   319  NDP319     -0.3136
      8  C3B       23.7350   -9.4290   28.8210 C.3   319  NDP319      0.2157
      9  O3B       24.6860  -10.3540   28.3120 O.3   319  NDP319     -0.2175
     10  C2B       23.8670   -9.3040   30.3460 C.3   319  NDP319      0.2314
     11  O2B       24.2000  -10.5500   30.9530 O.3   319  NDP319     -0.2630
     12  C1B       25.0200   -8.3300   30.4940 C.3   319  NDP319      0.3158
     13  N9A       24.9960   -7.5820   31.7380 N.pl3 319  NDP319     -0.1439
     14  C8A       23.9050   -6.9340   32.2760 C.3   319  NDP319      0.3377
     15  N7A       24.1810   -6.2930   33.3830 N.2   319  NDP319     -0.2095
     16  C5A       25.5120   -6.5290   33.5760 C.2   319  NDP319      0.2526
     17  C6A       26.3840   -6.1350   34.6120 C.2   319  NDP319      0.4393
     18  N6A       25.9520   -5.4140   35.6610 N.pl3 319  NDP319      0.2180
     19  N1A       27.6540   -6.5610   34.5290 N.2   319  NDP319      0.0021
     20  C2A       28.0450   -7.3090   33.4620 C.3   319  NDP319      0.5254
     21  N3A       27.3260   -7.7310   32.4450 N.2   319  NDP319     -0.0055
     22  C4A       26.0430   -7.3040   32.5520 C.2   319  NDP319      0.3518
     23  O3        22.0160   -5.4590   25.6250 O.3   319  NDP319     -0.2703
     24  PN        20.6360   -5.5640   24.8550 P.3   319  NDP319      0.2189
     25  O1N       19.8410   -6.6950   25.4250 O.3   319  NDP319     -0.4371
     26  O2N       20.9690   -5.5810   23.4040 O.2   319  NDP319     -0.5170
     27  O5D       19.8890   -4.1650   25.1000 O.3   319  NDP319     -0.3112
     28  C5D       19.0180   -3.9300   26.2160 C.3   319  NDP319      0.1813
     29  C4D       17.5700   -4.0470   25.8120 C.3   319  NDP319      0.1799
     30  O4D       17.2360   -3.0400   24.8220 O.3   319  NDP319     -0.3327
     31  C3D       17.1600   -5.3410   25.1130 C.3   319  NDP319      0.2158
     32  O3D       17.1000   -6.4580   25.9750 O.3   319  NDP319     -0.2175
     33  C2D       15.8080   -4.9380   24.5230 C.3   319  NDP319      0.2309
     34  O2D       14.8650   -4.8990   25.5720 O.3   319  NDP319     -0.2158
     35  C1D       16.1740   -3.5160   24.0200 C.3   319  NDP319      0.2263
     36  N1N       16.6240   -3.4950   22.5930 N.pl3 319  NDP319     -0.2787
     37  C2N       15.7760   -2.9700   21.6640 C.3   319  NDP319      0.1244
     38  C3N       16.1070   -2.9620   20.3300 C.2   319  NDP319      0.0544
     39  C7N       15.2480   -2.2900   19.3040 C.2   319  NDP319      0.2818
     40  O7N       15.4330   -2.5170   18.1050 O.2   319  NDP319     -0.2670
     41  N7N       14.3070   -1.4500   19.7590 N.am  319  NDP319     -0.0839
     42  C4N       17.3180   -3.5430   19.9250 C.2   319  NDP319      0.0033
     43  C5N       18.1870   -4.0200   20.8880 C.2   319  NDP319      0.0157
     44  C6N       17.8500   -3.9680   22.2280 C.2   319  NDP319      0.0633
     45  P2B       23.1650  -11.4550   31.7940 P.3   319  NDP319      0.5328
     46  O1X       21.7840  -11.2350   31.2250 O.2   319  NDP319     -0.2224
     47  O2X       23.7450  -12.8330   31.5760 O.3   319  NDP319     -0.1145
     48  O3X       23.2910  -10.9950   33.2380 O.3   319  NDP319     -0.1145
@<TRIPOS>BOND
     1    40    39    2
     2    39    41   am
     3    39    38    1
     4    42    38    2
     5    42    43    1
     6    38    37    1
     7    43    44    2
     8    37    36    1
     9    44    36    1
    10    36    35    1
    11    26    24    2
    12    35    33    1
    13    35    30    1
    14    33    31    1
    15    33    34    1
    16    30    29    1
    17    24    27    1
    18    24    25    1
    19    24    23    1
    20    27    28    1
    21    31    29    1
    22    31    32    1
    23    23     1    1
    24    29    28    1
    25     2     1    2
    26     1     4    1
    27     1     3    1
    28     4     5    1
    29     5     6    1
    30     9     8    1
    31     6     8    1
    32     6     7    1
    33     8    10    1
    34     7    12    1
    35    10    12    1
    36    10    11    1
    37    12    13    1
    38    11    45    1
    39    46    45    2
    40    47    45    1
    41    13    14    1
    42    13    22    1
    43    45    48    1
    44    14    15    1
    45    21    22    2
    46    21    20    1
    47    22    16    1
    48    15    16    2
    49    20    19    1
    50    16    17    1
    51    19    17    2
    52    17    18    1
