@<TRIPOS>MOLECULE
2i17_LDT_A_1.pdb
 24 25 0 0 0
SMALL
GASTEIGER

@<TRIPOS>ATOM
      1  C2        15.6400   -9.4470   18.1340 C.ar  321  LDT321      0.0666
      2  C3        15.9940  -10.3440   15.5270 C.ar  321  LDT321      0.0071
      3  C4        16.5360   -8.7830   17.2780 C.ar  321  LDT321      0.1433
      4  C5        14.9480  -10.5270   17.6300 C.ar  321  LDT321      0.1432
      5  C6        15.0880  -11.0060   16.3570 C.ar  321  LDT321      0.0299
      6  C7        16.6910   -9.2300   15.9590 C.ar  321  LDT321      0.0556
      7 BR8        14.8960   -3.7480    9.6940 Br    321  LDT321     -0.0489
      8  F9        14.1010  -11.1590   18.4860 F     321  LDT321     -0.2041
      9  C11       17.5780   -8.5180   14.9930 C.2   321  LDT321      0.1039
     10  C13       18.2800   -6.3230   14.1870 C.3   321  LDT321      0.1414
     11  F14       19.2270   -4.3600   12.4770 F     321  LDT321     -0.2044
     12  O15       17.3430   -7.7760   17.7080 O.3   321  LDT321     -0.4636
     13  S16       18.5280   -9.3820   13.9030 S.2   321  LDT321     -0.0331
     14  N17       17.5200   -7.2030   15.0450 N.am  321  LDT321     -0.2257
     15  C20       16.8440   -6.8980   18.6970 C.3   321  LDT321      0.3186
     16  C24       17.4510   -5.7820   13.0390 C.ar  321  LDT321      0.0269
     17  C25       15.9650   -4.6140   10.9940 C.ar  321  LDT321      0.0368
     18  C26       16.1420   -6.1870   12.7760 C.ar  321  LDT321      0.0002
     19  C27       17.9680   -4.7870   12.2340 C.ar  321  LDT321      0.1383
     20  C28       17.2590   -4.1880   11.1980 C.ar  321  LDT321      0.0361
     21  C29       15.3890   -5.6150   11.7520 C.ar  321  LDT321      0.0066
     22  C32       15.6980   -6.0180   18.1670 C.2   321  LDT321      0.4084
     23  O33       14.9910   -5.4950   19.0720 O.co2 321  LDT321     -0.2415
     24  O34       15.5790   -5.8900   16.9440 O.co2 321  LDT321     -0.2415
@<TRIPOS>BOND
     1     7    17    1
     2    17    20   ar
     3    17    21   ar
     4    20    19   ar
     5    21    18   ar
     6    19    11    1
     7    19    16   ar
     8    18    16   ar
     9    16    10    1
    10    13     9    2
    11    10    14    1
    12     9    14    1
    13     9     6    1
    14     2     6   ar
    15     2     5   ar
    16     6     3   ar
    17     5     4   ar
    18    24    22   ar
    19     3    12    1
    20     3     1   ar
    21     4     1   ar
    22     4     8    1
    23    12    15    1
    24    22    15    1
    25    22    23   ar
