@<TRIPOS>MOLECULE
2i19_1BY_A_1.pdb
 17 17 0 0 0
SMALL
GASTEIGER

@<TRIPOS>ATOM
      1  C5        14.8860   41.0290   45.4800 C.ar  3001  1BY3001     0.0045
      2  C4        15.2430   42.1030   46.4130 C.ar  3001  1BY3001     0.0358
      3  C6        14.1020   41.3210   44.4440 C.ar  3001  1BY3001     0.0208
      4  C7        13.6100   42.6960   44.2740 C.ar  3001  1BY3001     0.1004
      5  N2        13.8980   43.6020   45.1240 N.ar  3001  1BY3001    -0.2277
      6  C3        14.7620   43.3470   46.2640 C.ar  3001  1BY3001     0.1475
      7  N1        15.1100   44.2570   47.1470 N.pl3 3001  1BY3001    -0.2194
      8  C2        15.9890   43.9320   48.2730 C.3   3001  1BY3001     0.1283
      9  C1        16.8540   45.1500   48.6600 C.3   3001  1BY3001     0.1255
     10  P1        17.4050   45.0530   50.3980 P.3   3001  1BY3001     0.1254
     11  O1        16.2630   44.5600   51.2210 O.3   3001  1BY3001    -0.3568
     12  O2        18.5520   44.1090   50.5110 O.2   3001  1BY3001    -0.4596
     13  O3        17.8140   46.4040   50.8660 O.3   3001  1BY3001    -0.3568
     14  P2        18.2930   45.4380   47.5670 P.3   3001  1BY3001     0.1254
     15  O4        19.1630   44.2360   47.4770 O.3   3001  1BY3001    -0.3568
     16  O5        17.8000   45.7980   46.1990 O.2   3001  1BY3001    -0.4596
     17  O6        19.0930   46.5720   48.1380 O.3   3001  1BY3001    -0.3568
@<TRIPOS>BOND
     1     4     3   ar
     2     4     5   ar
     3     3     1   ar
     4     5     6   ar
     5     1     2   ar
     6    16    14    2
     7     6     2   ar
     8     6     7    1
     9     7     8    1
    10    15    14    1
    11    14    17    1
    12    14     9    1
    13     8     9    1
    14     9    10    1
    15    10    12    2
    16    10    13    1
    17    10    11    1
