@<TRIPOS>MOLECULE
2i1m_5CN_A_1.pdb
 25 27 0 0 0
SMALL
GASTEIGER

@<TRIPOS>ATOM
      1  C1        45.8260   40.2990   -8.5340 C.ar  1000  5CN1000     0.0634
      2  C2        45.1700   39.0860   -8.9520 C.ar  1000  5CN1000     0.0156
      3  C3        45.2710   38.6140  -10.2860 C.ar  1000  5CN1000    -0.0004
      4  C7        46.9450   41.0230   -4.9490 C.3   1000  5CN1000     0.0215
      5  C8        46.9540   40.3270   -6.3230 C.3   1000  5CN1000     0.0908
      6  C9        44.4490   41.0530   -6.5970 C.3   1000  5CN1000     0.0908
      7  C10       44.5530   41.6870   -5.1960 C.3   1000  5CN1000     0.0215
      8  C11       45.5650   40.9710   -4.2940 C.3   1000  5CN1000     0.0034
      9  C12       45.6150   41.6490   -2.9250 C.3   1000  5CN1000     0.0001
     10  C13       46.1680   38.8240  -12.6600 C.3   1000  5CN1000     0.2086
     11  C14       48.0360   43.1760   -9.6270 C.2   1000  5CN1000     0.3037
     12  C15       48.3300   44.3040   -8.7350 C.ar  1000  5CN1000     0.2014
     13  C16       49.1940   45.3780   -8.8740 C.ar  1000  5CN1000     0.0462
     14  C19       47.6100   45.8870   -5.6420 C.1   1000  5CN1000     0.1384
     15  C4        46.0300   39.3390  -11.2500 C.ar  1000  5CN1000     0.0119
     16  C5        46.6830   40.5540  -10.8530 C.ar  1000  5CN1000     0.0161
     17  C6        46.5860   41.0460   -9.5050 C.ar  1000  5CN1000     0.0868
     18  N1        45.7650   40.6540   -7.1720 N.pl3 1000  5CN1000    -0.3065
     19  O1        45.1340   39.3890  -13.4610 O.3   1000  5CN1000    -0.2152
     20  N2        47.1640   42.2710   -9.0500 N.am  1000  5CN1000    -0.1716
     21  O2        48.5300   43.0820  -10.7590 O.2   1000  5CN1000    -0.2646
     22  C17       49.0710   46.1710   -7.7010 C.ar  1000  5CN1000     0.0515
     23  C18       48.1370   45.5480   -6.9180 C.ar  1000  5CN1000     0.2129
     24  O3        47.6730   44.4120   -7.5270 O.2   1000  5CN1000    -0.4387
     25  N3        47.1900   46.1750   -4.5950 N.1   1000  5CN1000    -0.1876
@<TRIPOS>BOND
     1    19    10    1
     2    10    15    1
     3    15    16   ar
     4    15     3   ar
     5    16    17   ar
     6    21    11    2
     7     3     2   ar
     8    11    20   am
     9    11    12    1
    10    17    20    1
    11    17     1   ar
    12     2     1   ar
    13    13    12   ar
    14    13    22   ar
    15    12    24   ar
    16     1    18    1
    17    22    23   ar
    18    24    23   ar
    19    18     6    1
    20    18     5    1
    21    23    14    1
    22     6     7    1
    23     5     4    1
    24    14    25    3
    25     7     8    1
    26     4     8    1
    27     8     9    1
