@<TRIPOS>MOLECULE
2i1q_ANP_A_1.pdb
 31 33 0 0 0
SMALL
GASTEIGER

@<TRIPOS>ATOM
      1  PG        27.7510   60.1240   -8.8850 P.3   401  ANP401      0.4884
      2  O1G       28.8580   60.3000   -8.0000 O.3   401  ANP401     -0.1240
      3  O2G       26.5640   59.7090   -8.0830 O.3   401  ANP401     -0.1240
      4  O3G       27.5980   61.4060   -9.5370 O.2   401  ANP401     -0.2331
      5  PB        28.4080   57.4380   -9.7170 P.3   401  ANP401      0.4669
      6  O1B       27.8080   57.0400   -8.4160 O.3   401  ANP401     -0.1253
      7  O2B       29.8270   57.1760   -9.5810 O.2   401  ANP401     -0.2351
      8  N3B       28.2740   58.9940   -9.9910 N.3   401  ANP401     -0.0163
      9  PA        26.8650   55.4320  -11.0080 P.3   401  ANP401      0.2220
     10  O1A       27.2460   54.3700   -9.9670 O.3   401  ANP401     -0.4370
     11  O2A       25.5190   55.9800  -10.7490 O.2   401  ANP401     -0.5170
     12  O3A       27.9210   56.6350  -11.0160 O.3   401  ANP401     -0.2360
     13  O5'       26.9160   54.7290  -12.4980 O.3   401  ANP401     -0.3111
     14  C5'       26.6010   55.5380  -13.7360 C.3   401  ANP401      0.1813
     15  C4'       26.8760   54.8110  -14.8160 C.3   401  ANP401      0.1821
     16  O4'       26.1780   53.5280  -14.6910 O.3   401  ANP401     -0.3135
     17  C3'       26.1880   55.4680  -16.0420 C.3   401  ANP401      0.2184
     18  O3'       26.7290   56.6760  -16.4490 O.3   401  ANP401     -0.2174
     19  C2'       25.7790   54.2860  -16.9670 C.3   401  ANP401      0.2570
     20  O2'       26.9360   54.1080  -17.9530 O.3   401  ANP401     -0.2130
     21  C1'       25.7600   53.0810  -16.0070 C.3   401  ANP401      0.3186
     22  N9        24.4940   52.5910  -15.9020 N.pl3 401  ANP401     -0.1439
     23  C8        23.5140   52.9830  -14.9690 C.3   401  ANP401      0.3377
     24  N7        22.4290   52.3010  -15.1630 N.2   401  ANP401     -0.2095
     25  C5        22.6260   51.4520  -16.1950 C.2   401  ANP401      0.2526
     26  C6        21.8280   50.5040  -16.8280 C.2   401  ANP401      0.4393
     27  N6        20.5510   50.2860  -16.4150 N.pl3 401  ANP401      0.2180
     28  N1        22.3650   49.7680  -17.9080 N.2   401  ANP401      0.0021
     29  C2        23.7000   49.9850  -18.3510 C.3   401  ANP401      0.5254
     30  N3        24.5090   50.9090  -17.7510 N.2   401  ANP401     -0.0055
     31  C4        23.9210   51.6250  -16.6670 C.2   401  ANP401      0.3518
@<TRIPOS>BOND
     1    29    28    1
     2    29    30    1
     3    20    19    1
     4    28    26    2
     5    30    31    2
     6    19    17    1
     7    19    21    1
     8    26    27    1
     9    26    25    1
    10    31    25    1
    11    31    22    1
    12    18    17    1
    13    25    24    2
    14    17    15    1
    15    21    22    1
    16    21    16    1
    17    22    23    1
    18    24    23    1
    19    15    16    1
    20    15    14    1
    21    14    13    1
    22    13     9    1
    23    12     9    1
    24    12     5    1
    25     9    11    2
    26     9    10    1
    27     8     5    1
    28     8     1    1
    29     5     7    2
    30     5     6    1
    31     4     1    2
    32     1     3    1
    33     1     2    1
