@<TRIPOS>MOLECULE
2i1r_VXR_A_1.pdb
 28 31 0 0 0
SMALL
GASTEIGER

@<TRIPOS>ATOM
      1  C1        11.0790   30.9090   71.0880 C.ar  600  VXR600      0.1228
      2  C2        11.1420   30.7290   72.4440 C.ar  600  VXR600      0.0361
      3  C3         9.8400   31.0430   72.9390 C.ar  600  VXR600      0.0403
      4  C4         9.0670   31.3960   71.8640 C.ar  600  VXR600      0.1462
      5  O5         9.8340   31.3110   70.7360 O.2   600  VXR600     -0.4577
      6  C6        12.2520   30.6740   70.1590 C.3   600  VXR600      0.0645
      7  C7        12.5220   31.8070   69.1720 C.3   600  VXR600      0.0084
      8  C8         7.6590   31.7860   71.8670 C.2   600  VXR600      0.0568
      9  C9         7.1470   32.8490   72.5030 C.2   600  VXR600      0.1306
     10  S10        7.8420   34.0640   73.4660 S.3   600  VXR600     -0.0248
     11  C11        6.4420   34.9050   73.8070 C.2   600  VXR600      0.2452
     12  N12        5.5230   34.2860   73.2140 N.2   600  VXR600     -0.3085
     13  C13        5.7310   33.1860   72.4890 C.1   600  VXR600      0.2128
     14  N14        6.2600   35.9920   74.5230 N.pl3 600  VXR600     -0.1851
     15  C15        7.2710   36.7960   75.1970 C.3   600  VXR600      0.2054
     16  C16        8.0200   37.6100   74.1440 C.ar  600  VXR600      0.0117
     17  C17        6.6440   37.7210   76.2150 C.1   600  VXR600      0.0813
     18  N18        5.5880   38.5590   75.9720 N.2   600  VXR600     -0.0736
     19  N19        5.3130   39.2250   77.1170 N.2   600  VXR600     -0.0132
     20  N20        6.1700   38.8070   78.0230 N.2   600  VXR600     -0.0132
     21  N21        7.0170   37.8580   77.4710 N.2   600  VXR600     -0.0736
     22  C22        7.3180   38.5130   73.2820 C.ar  600  VXR600      0.0007
     23  C23        8.0210   39.2660   72.3110 C.ar  600  VXR600      0.0294
     24  C24        9.4290   39.1230   72.1890 C.ar  600  VXR600      0.1401
     25  C25       10.1260   38.2300   73.0370 C.ar  600  VXR600      0.0294
     26  C26        9.4220   37.4740   74.0120 C.ar  600  VXR600      0.0007
     27  F         10.0880   39.8350   71.2820 F     600  VXR600     -0.2042
     28  O28        4.8650   32.5680   71.9020 O.2   600  VXR600     -0.2087
@<TRIPOS>BOND
     1     7     6    1
     2     6     1    1
     3     5     1   ar
     4     5     4   ar
     5     1     2   ar
     6    27    24    1
     7     4     8    1
     8     4     3   ar
     9     8     9    2
    10    28    13    2
    11    24    23   ar
    12    24    25   ar
    13    23    22   ar
    14     2     3   ar
    15    13     9    1
    16    13    12    2
    17     9    10    1
    18    25    26   ar
    19    12    11    2
    20    22    16   ar
    21    10    11    1
    22    11    14    1
    23    26    16   ar
    24    16    15    1
    25    14    15    1
    26    15    17    1
    27    18    17    2
    28    18    19    1
    29    17    21    2
    30    19    20    2
    31    21    20    1
