@<TRIPOS>MOLECULE
2i1v_F6P_B_1.pdb
 16 16 0 0 0
SMALL
GASTEIGER

@<TRIPOS>ATOM
      1  O1       -44.1120   67.9890   13.9110 O.3   720  F6P720     -0.2148
      2  C1       -43.2890   67.2220   14.7820 C.3   720  F6P720      0.2434
      3  C2       -41.9100   67.8600   14.8140 C.3   720  F6P720      0.2807
      4  O2       -41.0360   67.1000   15.6470 O.3   720  F6P720     -0.1896
      5  C3       -42.0690   69.3330   15.3050 C.3   720  F6P720      0.2409
      6  O3       -41.8650   69.4990   16.7070 O.3   720  F6P720     -0.2149
      7  C4       -41.0220   70.0350   14.4160 C.3   720  F6P720      0.2167
      8  O4       -41.2170   71.4440   14.3600 O.3   720  F6P720     -0.2175
      9  C5       -41.3380   69.3010   13.1430 C.3   720  F6P720      0.1808
     10  O5       -41.4020   67.9240   13.4680 O.3   720  F6P720     -0.3254
     11  C6       -40.4050   69.6490   11.9880 C.3   720  F6P720      0.1859
     12  O6       -40.8280   68.8630   10.8820 O.3   720  F6P720     -0.2675
     13  P        -40.0150   69.3190    9.6120 P.3   720  F6P720      0.5327
     14  O1P      -38.5570   69.2890    9.8030 O.3   720  F6P720     -0.1145
     15  O2P      -40.4540   68.4020    8.3710 O.2   720  F6P720     -0.2224
     16  O3P      -40.4640   70.8260    9.3160 O.3   720  F6P720     -0.1145
@<TRIPOS>BOND
     1    15    13    2
     2    16    13    1
     3    13    14    1
     4    13    12    1
     5    12    11    1
     6    11     9    1
     7     9    10    1
     8     9     7    1
     9    10     3    1
    10     1     2    1
    11     8     7    1
    12     7     5    1
    13     2     3    1
    14     3     5    1
    15     3     4    1
    16     5     6    1
