@<TRIPOS>MOLECULE
2i1v_ADP_B_1.pdb
 27 29 0 0 0
SMALL
GASTEIGER

@<TRIPOS>ATOM
      1  PB        -7.5060   47.9230    4.6860 P.3   700  ADP700      0.5373
      2  O1B       -6.4370   48.2970    5.6610 O.3   700  ADP700     -0.1143
      3  O2B       -8.1050   49.0380    3.9180 O.3   700  ADP700     -0.1143
      4  O3B       -6.8810   46.8850    3.6680 O.2   700  ADP700     -0.2221
      5  PA       -10.2570   47.6710    5.5630 P.3   700  ADP700      0.2231
      6  O1A      -10.6170   49.0580    5.9300 O.3   700  ADP700     -0.4370
      7  O2A      -10.6710   47.0810    4.2750 O.2   700  ADP700     -0.5169
      8  O3A       -8.6050   47.3930    5.6420 O.3   700  ADP700     -0.2261
      9  O5'      -10.6400   46.8060    6.8410 O.3   700  ADP700     -0.3111
     10  C5'      -11.9190   46.8830    7.4180 C.3   700  ADP700      0.1813
     11  C4'      -11.8730   45.9280    8.6100 C.3   700  ADP700      0.1821
     12  O4'      -10.8560   46.3080    9.5180 O.3   700  ADP700     -0.3135
     13  C3'      -13.1690   45.8150    9.4170 C.3   700  ADP700      0.2184
     14  O3'      -13.4050   44.4480    9.7030 O.3   700  ADP700     -0.2174
     15  C2'      -12.8620   46.5800   10.7050 C.3   700  ADP700      0.2570
     16  O2'      -13.6000   46.1560   11.8720 O.3   700  ADP700     -0.2130
     17  C1'      -11.3360   46.4030   10.8220 C.3   700  ADP700      0.3186
     18  N9       -10.7020   47.5580   11.5180 N.pl3 700  ADP700     -0.1439
     19  C8       -11.1480   48.8530   11.7670 C.3   700  ADP700      0.3377
     20  N7       -10.3660   49.6850   12.4260 N.2   700  ADP700     -0.2095
     21  C5        -9.2840   48.8720   12.6540 C.2   700  ADP700      0.2526
     22  C6        -8.0340   49.0800   13.3140 C.2   700  ADP700      0.4393
     23  N6        -7.7270   50.3690   13.9120 N.pl3 700  ADP700      0.2180
     24  N1        -7.1210   48.0430   13.3830 N.2   700  ADP700      0.0021
     25  C2        -7.4120   46.8150   12.8170 C.3   700  ADP700      0.5254
     26  N3        -8.5600   46.4870   12.1580 N.2   700  ADP700     -0.0055
     27  C4        -9.4630   47.5520   12.1080 C.2   700  ADP700      0.3518
@<TRIPOS>BOND
     1     4     1    2
     2     3     1    1
     3     7     5    2
     4     1     8    1
     5     1     2    1
     6     5     8    1
     7     5     6    1
     8     5     9    1
     9     9    10    1
    10    10    11    1
    11    11    13    1
    12    11    12    1
    13    13    14    1
    14    13    15    1
    15    12    17    1
    16    15    17    1
    17    15    16    1
    18    17    18    1
    19    18    19    1
    20    18    27    1
    21    19    20    1
    22    27    26    2
    23    27    21    1
    24    26    25    1
    25    20    21    2
    26    21    22    1
    27    25    24    1
    28    22    24    2
    29    22    23    1
