@<TRIPOS>MOLECULE
2i1v_FDP_B_1.pdb
 20 20 0 0 0
SMALL
GASTEIGER

@<TRIPOS>ATOM
      1  P1        -7.3970   48.1510   -1.1700 P.3   710  FDP710      0.5345
      2  O1P       -8.1700   47.0740   -0.4760 O.3   710  FDP710     -0.1145
      3  O2P       -7.4700   49.4820   -0.4350 O.3   710  FDP710     -0.1145
      4  O3P       -7.9730   48.2680   -2.5170 O.2   710  FDP710     -0.2223
      5  O1        -4.9230   45.4570   -1.2240 O.3   710  FDP710     -0.2149
      6  C1        -4.1350   46.7790   -1.2290 C.3   710  FDP710      0.2410
      7  C2        -5.0110   47.6640   -2.2770 C.3   710  FDP710      0.2588
      8  O2        -5.9820   47.8720   -1.2660 O.3   710  FDP710     -0.2440
      9  C3        -4.8730   47.6210   -3.7690 C.3   710  FDP710      0.2385
     10  O3        -6.0730   47.4950   -4.3910 O.3   710  FDP710     -0.2150
     11  C4        -4.1020   48.8300   -4.2870 C.3   710  FDP710      0.2166
     12  O4        -3.2870   48.5690   -5.4110 O.3   710  FDP710     -0.2175
     13  C5        -3.3780   49.3220   -3.1070 C.3   710  FDP710      0.1807
     14  O5        -3.8680   48.5020   -2.0110 O.3   710  FDP710     -0.3271
     15  C6        -3.4170   50.8120   -2.8610 C.3   710  FDP710      0.1859
     16  O6        -2.1570   51.0450   -2.1530 O.3   710  FDP710     -0.2675
     17  P2        -0.6690   51.0270   -2.7810 P.3   710  FDP710      0.5327
     18  O4P       -0.3870   49.7570   -3.4970 O.3   710  FDP710     -0.1145
     19  O5P       -0.4480   52.1760   -3.7150 O.2   710  FDP710     -0.2224
     20  O6P        0.3170   51.3080   -1.6720 O.3   710  FDP710     -0.1145
@<TRIPOS>BOND
     1    12    11    1
     2    10     9    1
     3    11     9    1
     4    11    13    1
     5     9     7    1
     6    19    17    2
     7    18    17    1
     8    13    15    1
     9    13    14    1
    10    15    16    1
    11    17    16    1
    12    17    20    1
    13     4     1    2
    14     7    14    1
    15     7     8    1
    16     7     6    1
    17     8     1    1
    18     6     5    1
    19     1     2    1
    20     1     3    1
