@<TRIPOS>MOLECULE
2i1x_RET_A_1.pdb
 20 20 0 0 0
SMALL
GASTEIGER

@<TRIPOS>ATOM
      1  C1        14.8050   45.4650    0.2030 C.3   300  RET300      0.0183
      2  C2        14.6360   46.4170   -0.9660 C.3   300  RET300      0.0044
      3  C3        14.0990   47.7570   -0.6840 C.3   300  RET300      0.0047
      4  C4        14.7910   48.4260    0.4730 C.3   300  RET300      0.0217
      5  C5        14.8240   47.5010    1.6790 C.2   300  RET300     -0.0479
      6  C6        14.9590   46.1780    1.5610 C.2   300  RET300     -0.0310
      7  C7        15.4140   45.5170    2.7950 C.2   300  RET300     -0.0095
      8  C8        15.6290   44.2250    3.1090 C.2   300  RET300     -0.0268
      9  C9        16.3030   43.5420    4.2140 C.3   300  RET300      0.0224
     10  C10       16.4460   42.2130    4.0340 C.3   300  RET300      0.0090
     11  C11       16.8630   41.5480    5.2750 C.3   300  RET300      0.0257
     12  C12       16.8730   40.2000    5.0410 C.2   300  RET300     -0.0346
     13  C13       17.3490   39.1040    5.9050 C.2   300  RET300     -0.0482
     14  C14       17.5000   37.8690    5.4010 C.3   300  RET300      0.0217
     15  C15       17.4760   36.6140    6.1560 C.3   300  RET300      0.0047
     16  C16       13.5180   44.5880    0.1840 C.3   300  RET300      0.0043
     17  C17       16.0490   44.5850   -0.1380 C.3   300  RET300      0.0043
     18  C18       15.1340   48.3130    2.9130 C.3   300  RET300      0.0260
     19  C19       16.5070   44.2400    5.5300 C.3   300  RET300      0.0047
     20  C20       17.8450   39.2440    7.3240 C.3   300  RET300      0.0260
@<TRIPOS>BOND
     1     2     3    1
     2     2     1    1
     3     3     4    1
     4    17     1    1
     5    16     1    1
     6     1     6    1
     7     4     5    1
     8     6     5    2
     9     6     7    1
    10     5    18    1
    11     7     8    2
    12     8     9    1
    13    10     9    1
    14    10    11    1
    15     9    19    1
    16    12    11    1
    17    12    13    2
    18    14    13    1
    19    14    15    1
    20    13    20    1
