@<TRIPOS>MOLECULE
2i20_RET_A_1.pdb
 20 20 0 0 0
SMALL
GASTEIGER

@<TRIPOS>ATOM
      1  C1        14.8640   45.2610    0.4340 C.3   300  RET300      0.0152
      2  C2        14.3710   46.1400   -0.6980 C.3   300  RET300      0.0037
      3  C3        14.0840   47.5550   -0.4320 C.3   300  RET300      0.0006
      4  C4        14.9270   48.1710    0.6530 C.3   300  RET300      0.0040
      5  C5        14.9090   47.2980    1.9050 C.3   300  RET300      0.0183
      6  C6        15.0330   45.9700    1.7930 C.2   300  RET300     -0.0452
      7  C7        15.5300   45.3170    3.0060 C.2   300  RET300     -0.0088
      8  C8        15.7690   44.0180    3.2790 C.2   300  RET300     -0.0049
      9  C9        16.2790   43.4500    4.5400 C.2   300  RET300     -0.0219
     10  C10       16.5180   42.1170    4.5520 C.2   300  RET300     -0.0043
     11  C11       16.9960   41.3480    5.7050 C.2   300  RET300     -0.0010
     12  C12       17.1120   39.9950    5.6100 C.2   300  RET300     -0.0085
     13  C13       17.6370   39.1450    6.6860 C.2   300  RET300     -0.0439
     14  C14       17.4280   37.8260    6.5540 C.3   300  RET300      0.0220
     15  C15       17.6630   36.9860    5.3680 C.3   300  RET300      0.0047
     16  C16       13.7820   44.1480    0.5460 C.3   300  RET300      0.0040
     17  C17       16.2050   44.6240   -0.0510 C.3   300  RET300      0.0040
     18  C18       15.2380   48.1250    3.1200 C.3   300  RET300      0.0043
     19  C19       16.5870   44.3600    5.7020 C.3   300  RET300      0.0310
     20  C20       18.0080   39.8750    7.9600 C.3   300  RET300      0.0264
@<TRIPOS>BOND
     1     2     3    1
     2     2     1    1
     3     3     4    1
     4    17     1    1
     5     1    16    1
     6     1     6    1
     7     4     5    1
     8     6     5    1
     9     6     7    2
    10     5    18    1
    11     7     8    1
    12     8     9    2
    13     9    10    1
    14     9    19    1
    15    10    11    2
    16    15    14    1
    17    12    11    1
    18    12    13    2
    19    14    13    1
    20    13    20    1
