@<TRIPOS>MOLECULE
2i21_RET_A_1.pdb
 20 20 0 0 0
SMALL
GASTEIGER

@<TRIPOS>ATOM
      1  C1        14.8710   45.5510    0.2760 C.3   300  RET300      0.0183
      2  C2        14.6110   46.4950   -0.8880 C.3   300  RET300      0.0044
      3  C3        14.0940   47.8380   -0.5930 C.3   300  RET300      0.0047
      4  C4        14.8510   48.5130    0.5150 C.3   300  RET300      0.0217
      5  C5        14.9320   47.6050    1.7380 C.2   300  RET300     -0.0479
      6  C6        15.0860   46.2850    1.6200 C.2   300  RET300     -0.0307
      7  C7        15.5110   45.5610    2.8330 C.2   300  RET300     -0.0052
      8  C8        15.7280   44.2500    3.0330 C.2   300  RET300     -0.0049
      9  C9        16.2510   43.6220    4.2400 C.2   300  RET300     -0.0258
     10  C10       16.4250   42.2940    4.1810 C.2   300  RET300     -0.0257
     11  C11       16.9720   41.4400    5.2320 C.3   300  RET300      0.0510
     12  C12       17.0900   40.1040    4.9640 C.2   300  RET300     -0.0299
     13  C13       17.5060   39.1220    5.9870 C.2   300  RET300     -0.0478
     14  C14       17.6120   37.8720    5.5210 C.3   300  RET300      0.0217
     15  C15       17.2640   36.6460    6.2170 C.3   300  RET300      0.0047
     16  C16       13.6130   44.6400    0.3370 C.3   300  RET300      0.0043
     17  C17       16.1150   44.7170   -0.1910 C.3   300  RET300      0.0043
     18  C18       15.1950   48.4530    2.9600 C.3   300  RET300      0.0260
     19  C19       16.5510   44.4620    5.4510 C.3   300  RET300      0.0307
     20  C20       17.9080   39.5370    7.3910 C.3   300  RET300      0.0260
@<TRIPOS>BOND
     1     2     3    1
     2     2     1    1
     3     3     4    1
     4    17     1    1
     5     1    16    1
     6     1     6    1
     7     4     5    1
     8     6     5    2
     9     6     7    1
    10     5    18    1
    11     7     8    2
    12     8     9    1
    13    10     9    2
    14    10    11    1
    15     9    19    1
    16    12    11    1
    17    12    13    2
    18    14    13    1
    19    14    15    1
    20    13    20    1
