@<TRIPOS>MOLECULE
2i22_I22_B_1.pdb
 18 17 0 0 0
SMALL
GASTEIGER

@<TRIPOS>ATOM
      1  O8        30.7760  -15.8240   25.1270 O.3   900  I22900     -0.1145
      2  P1        30.1560  -14.5820   24.3240 P.3   900  I22900      0.5327
      3  O9        30.8880  -14.3830   22.9610 O.2   900  I22900     -0.2224
      4  O10       28.5360  -14.7640   24.1340 O.3   900  I22900     -0.1145
      5  O7        30.3400  -13.0820   25.4450 O.3   900  I22900     -0.2674
      6  C7        29.1490  -12.7180   26.3630 C.3   900  I22900      0.1892
      7  C6        29.9050  -11.7530   27.3650 C.3   900  I22900      0.2147
      8  O6        30.8120  -11.0130   26.4270 O.3   900  I22900     -0.2176
      9  C5        28.9420  -10.9420   28.2240 C.3   900  I22900      0.2178
     10  O5        28.3550  -10.1180   27.0640 O.3   900  I22900     -0.2175
     11  C4        27.7870  -11.9820   28.5440 C.3   900  I22900      0.2221
     12  O4        28.6310  -12.9220   29.2780 O.3   900  I22900     -0.2171
     13  C3        26.8460  -11.2630   29.4860 C.3   900  I22900      0.2440
     14  O3        25.8980  -12.3630   29.8490 O.3   900  I22900     -0.2122
     15  C2        26.3120   -9.9930   28.7830 C.2   900  I22900      0.2165
     16  O2        25.1070   -9.9140   28.5710 O.2   900  I22900     -0.2905
     17  C1        27.1560   -8.7630   28.5490 C.3   900  I22900      0.2486
     18  O1        28.6160   -8.9250   29.0920 O.3   900  I22900     -0.2118
@<TRIPOS>BOND
     1     3     2    2
     2     4     2    1
     3     2     1    1
     4     2     5    1
     5     5     6    1
     6     6     7    1
     7     8     7    1
     8    10     9    1
     9     7     9    1
    10     9    11    1
    11    11    12    1
    12    11    13    1
    13    17    15    1
    14    17    18    1
    15    16    15    2
    16    15    13    1
    17    13    14    1
