@<TRIPOS>MOLECULE
2i29_NAD_A_1.pdb
 44 48 0 0 0
SMALL
GASTEIGER

@<TRIPOS>ATOM
      1  PA        13.6260    6.6470   12.4710 P.3   273  NAD273      0.2189
      2  O1A       13.6740    5.5500   13.4600 O.3   273  NAD273     -0.4371
      3  O2A       13.3960    6.0790   11.1200 O.2   273  NAD273     -0.5170
      4  O5B       15.0200    7.4740   12.5360 O.3   273  NAD273     -0.3112
      5  C5B       15.5170    7.9100   13.7810 C.3   273  NAD273      0.1813
      6  C4B       16.9640    7.4880   14.0070 C.3   273  NAD273      0.1821
      7  O4B       17.8300    8.2050   13.1460 O.3   273  NAD273     -0.3135
      8  C3B       17.3560    7.8640   15.4260 C.3   273  NAD273      0.2184
      9  O3B       18.3150    6.9590   15.9270 O.3   273  NAD273     -0.2174
     10  C2B       17.9640    9.2420   15.2540 C.3   273  NAD273      0.2570
     11  O2B       18.8200    9.5900   16.3310 O.3   273  NAD273     -0.2130
     12  C1B       18.6490    9.0900   13.8950 C.3   273  NAD273      0.3186
     13  N9A       18.8630   10.3910   13.2310 N.pl3 273  NAD273     -0.1439
     14  C8A       17.9360   11.3160   12.8160 C.3   273  NAD273      0.3377
     15  N7A       18.5980   12.3670   12.2800 N.2   273  NAD273     -0.2095
     16  C5A       19.9330   12.1320   12.3330 C.2   273  NAD273      0.2526
     17  C6A       21.0700   12.8490   11.9430 C.2   273  NAD273      0.4393
     18  N6A       20.9890   13.9300   11.1880 N.pl3 273  NAD273      0.2180
     19  N1A       22.3200   12.3020   12.1480 N.2   273  NAD273      0.0021
     20  C2A       22.4590   11.0680   12.7500 C.3   273  NAD273      0.5254
     21  N3A       21.3410   10.3670   13.1370 N.2   273  NAD273     -0.0055
     22  C4A       20.1050   10.8820   12.9290 C.2   273  NAD273      0.3518
     23  O3        12.4640    7.6960   12.9030 O.3   273  NAD273     -0.2703
     24  PN        12.4620    9.2630   12.4940 P.3   273  NAD273      0.2189
     25  O1N       13.4670    9.9740   13.3180 O.3   273  NAD273     -0.4371
     26  O2N       11.0750    9.7750   12.4530 O.2   273  NAD273     -0.5170
     27  O5D       12.9930    9.1930   10.9790 O.3   273  NAD273     -0.3112
     28  C5D       13.5960   10.2990   10.3670 C.3   273  NAD273      0.1813
     29  C4D       14.9870    9.9290    9.8680 C.3   273  NAD273      0.1799
     30  O4D       15.2820    8.5410    9.8530 O.3   273  NAD273     -0.3327
     31  C3D       15.1640   10.3550    8.4300 C.3   273  NAD273      0.2158
     32  O3D       15.4470   11.7300    8.3670 O.3   273  NAD273     -0.2175
     33  C2D       16.3100    9.4730    7.9430 C.3   273  NAD273      0.2309
     34  O2D       17.5170   10.1930    7.9960 O.3   273  NAD273     -0.2158
     35  C1D       16.3450    8.3080    8.9200 C.3   273  NAD273      0.2263
     36  N1N       16.2600    6.9880    8.2250 N.pl3 273  NAD273     -0.2787
     37  C2N       17.3890    6.2380    8.1550 C.3   273  NAD273      0.1244
     38  C3N       17.3870    4.9870    7.5340 C.2   273  NAD273      0.0544
     39  C7N       18.7310    4.3440    7.3700 C.2   273  NAD273      0.2818
     40  O7N       19.8170    5.1240    7.7890 O.2   273  NAD273     -0.2670
     41  N7N       18.8590    3.1210    6.8690 N.am  273  NAD273     -0.0839
     42  C4N       16.2250    4.4690    6.9660 C.2   273  NAD273      0.0033
     43  C5N       15.0670    5.2410    7.0400 C.2   273  NAD273      0.0157
     44  C6N       15.0980    6.4960    7.6660 C.2   273  NAD273      0.0633
@<TRIPOS>BOND
     1    41    39   am
     2    42    43    1
     3    42    38    2
     4    43    44    2
     5    39    38    1
     6    39    40    2
     7    38    37    1
     8    44    36    1
     9    33    34    1
    10    33    31    1
    11    33    35    1
    12    37    36    1
    13    36    35    1
    14    32    31    1
    15    31    29    1
    16    35    30    1
    17    30    29    1
    18    29    28    1
    19    28    27    1
    20    27    24    1
    21     3     1    2
    22    18    17    1
    23    17    19    2
    24    17    16    1
    25    19    20    1
    26    15    16    2
    27    15    14    1
    28    16    22    1
    29    26    24    2
    30     1     4    1
    31     1    23    1
    32     1     2    1
    33    24    23    1
    34    24    25    1
    35     4     5    1
    36    20    21    1
    37    14    13    1
    38    22    21    2
    39    22    13    1
    40     7    12    1
    41     7     6    1
    42    13    12    1
    43     5     6    1
    44    12    10    1
    45     6     8    1
    46    10     8    1
    47    10    11    1
    48     8     9    1
