@<TRIPOS>MOLECULE
2i2a_NAP_A_1.pdb
 48 52 0 0 0
SMALL
GASTEIGER

@<TRIPOS>ATOM
      1  PA        12.9800    6.7560   12.2480 P.3   273  NAP273      0.2189
      2  O1A       12.6450    5.7760   13.3000 O.3   273  NAP273     -0.4371
      3  O2A       13.1730    6.0840   10.9350 O.2   273  NAP273     -0.5170
      4  O5B       14.2560    7.6330   12.7250 O.3   273  NAP273     -0.3112
      5  C5B       15.5690    7.1850   12.4580 C.3   273  NAP273      0.1813
      6  C4B       16.5940    7.7520   13.4340 C.3   273  NAP273      0.1820
      7  O4B       17.2690    8.8320   12.8280 O.3   273  NAP273     -0.3136
      8  C3B       16.0220    8.3050   14.7290 C.3   273  NAP273      0.2157
      9  O3B       16.4770    7.4920   15.7850 O.3   273  NAP273     -0.2175
     10  C2B       16.5850    9.7270   14.8360 C.3   273  NAP273      0.2314
     11  O2B       17.0350   10.0490   16.1410 O.3   273  NAP273     -0.2630
     12  C1B       17.7250    9.7040   13.8260 C.3   273  NAP273      0.3158
     13  N9A       18.0700   10.9970   13.1910 N.pl3 273  NAP273     -0.1439
     14  C8A       17.2470   12.0310   12.8350 C.3   273  NAP273      0.3377
     15  N7A       17.9970   13.0050   12.2810 N.2   273  NAP273     -0.2095
     16  C5A       19.2950   12.6140   12.2700 C.2   273  NAP273      0.2526
     17  C6A       20.4820   13.2120   11.8230 C.2   273  NAP273      0.4393
     18  N6A       20.4840   14.3890   11.1950 N.pl3 273  NAP273      0.2180
     19  N1A       21.6770   12.5360   11.9720 N.2   273  NAP273      0.0021
     20  C2A       21.6970   11.2690   12.5380 C.3   273  NAP273      0.5254
     21  N3A       20.5270   10.6800   12.9680 N.2   273  NAP273     -0.0055
     22  C4A       19.3450   11.3430   12.8370 C.2   273  NAP273      0.3518
     23  O3        11.8040    7.8550   12.1430 O.3   273  NAP273     -0.2703
     24  PN        11.3920    8.5690   10.7480 P.3   273  NAP273      0.2189
     25  O1N       10.7230    9.8440   11.1110 O.3   273  NAP273     -0.4371
     26  O2N       10.7450    7.5720    9.8610 O.2   273  NAP273     -0.5170
     27  O5D       12.7640    8.9400   10.0370 O.3   273  NAP273     -0.3112
     28  C5D       13.2920   10.2240   10.1580 C.3   273  NAP273      0.1813
     29  C4D       14.7240   10.0980    9.6900 C.3   273  NAP273      0.1799
     30  O4D       15.1640    8.7540    9.7580 O.3   273  NAP273     -0.3327
     31  C3D       14.8450   10.4860    8.2350 C.3   273  NAP273      0.2158
     32  O3D       14.9120   11.9040    8.1470 O.3   273  NAP273     -0.2175
     33  C2D       16.0620    9.6740    7.7830 C.3   273  NAP273      0.2309
     34  O2D       17.2560   10.4190    7.8480 O.3   273  NAP273     -0.2158
     35  C1D       16.1530    8.5130    8.7650 C.3   273  NAP273      0.2263
     36  N1N       15.9670    7.1890    8.1030 N.pl3 273  NAP273     -0.2787
     37  C2N       17.0690    6.3920    8.0250 C.3   273  NAP273      0.1244
     38  C3N       17.0210    5.1510    7.4210 C.2   273  NAP273      0.0544
     39  C7N       18.3280    4.4200    7.2370 C.2   273  NAP273      0.2818
     40  O7N       19.5170    5.0050    7.7070 O.2   273  NAP273     -0.2670
     41  N7N       18.2870    3.2140    6.6570 N.am  273  NAP273     -0.0839
     42  C4N       15.8080    4.6860    6.8910 C.2   273  NAP273      0.0033
     43  C5N       14.6800    5.5060    6.9630 C.2   273  NAP273      0.0157
     44  C6N       14.7710    6.7580    7.5770 C.2   273  NAP273      0.0633
     45  P2B       16.0300   10.2210   17.4000 P.3   273  NAP273      0.5328
     46  O1X       16.6680   11.1700   18.3770 O.3   273  NAP273     -0.1145
     47  O2X       15.8290    8.8810   18.0670 O.3   273  NAP273     -0.1145
     48  O3X       14.6850   10.7640   16.9700 O.2   273  NAP273     -0.2224
@<TRIPOS>BOND
     1    41    39   am
     2    42    43    1
     3    42    38    2
     4    43    44    2
     5    39    38    1
     6    39    40    2
     7    38    37    1
     8    44    36    1
     9    33    34    1
    10    33    31    1
    11    33    35    1
    12    37    36    1
    13    36    35    1
    14    32    31    1
    15    31    29    1
    16    35    30    1
    17    29    30    1
    18    29    28    1
    19    26    24    2
    20    27    28    1
    21    27    24    1
    22    24    25    1
    23    24    23    1
    24     3     1    2
    25    18    17    1
    26    17    19    2
    27    17    16    1
    28    19    20    1
    29    23     1    1
    30     1     4    1
    31     1     2    1
    32    16    15    2
    33    16    22    1
    34    15    14    1
    35     5     4    1
    36     5     6    1
    37    20    21    1
    38     7     6    1
    39     7    12    1
    40    14    13    1
    41    22    21    2
    42    22    13    1
    43    13    12    1
    44     6     8    1
    45    12    10    1
    46     8    10    1
    47     8     9    1
    48    10    11    1
    49    11    45    1
    50    48    45    2
    51    45    47    1
    52    45    46    1
