@<TRIPOS>MOLECULE
2i2b_CC5_A_1.pdb
 17 19 0 0 0
SMALL
GASTEIGER

@<TRIPOS>ATOM
      1  N1        19.7790    4.2800    7.8010 N.2   273  CC5273      0.0021
      2  C2        20.0980    5.3930    8.4510 C.3   273  CC5273      0.5254
      3  N3        19.2200    6.3550    8.6680 N.2   273  CC5273     -0.0055
      4  C4        17.9650    6.2340    8.2110 C.2   273  CC5273      0.3518
      5  N9        16.9050    7.0300    8.2790 N.pl3 273  CC5273     -0.1439
      6  C8        15.8900    6.4130    7.6560 C.3   273  CC5273      0.3377
      7  N7        16.3050    5.2300    7.1930 N.2   273  CC5273     -0.2095
      8  C5        17.5860    5.0880    7.5270 C.2   273  CC5273      0.2526
      9  C6        18.5360    4.0890    7.3290 C.2   273  CC5273      0.4393
     10  N6        18.2410    2.9660    6.6780 N.pl3 273  CC5273      0.2180
     11  C1'       16.8840    8.3770    8.9400 C.3   273  CC5273      0.3186
     12  C2'       16.7340    9.4890    7.8850 C.3   273  CC5273      0.2570
     13  C3'       15.5200   10.3030    8.3650 C.3   273  CC5273      0.2184
     14  C4'       15.4000    9.9120    9.8450 C.3   273  CC5273      0.1820
     15  O4'       15.7720    8.5210    9.8630 O.3   273  CC5273     -0.3135
     16  O2'       17.9230   10.2990    7.8820 O.3   273  CC5273     -0.2130
     17  O3'       15.7650   11.7210    8.2420 O.3   273  CC5273     -0.2174
@<TRIPOS>BOND
     1    10     9    1
     2     7     8    2
     3     7     6    1
     4     9     8    1
     5     9     1    2
     6     8     4    1
     7     6     5    1
     8     1     2    1
     9    16    12    1
    10    12    13    1
    11    12    11    1
    12     4     5    1
    13     4     3    2
    14    17    13    1
    15     5    11    1
    16    13    14    1
    17     2     3    1
    18    11    15    1
    19    14    15    1
