@<TRIPOS>MOLECULE
2i2c_DTA_A_1.pdb
 38 43 0 0 0
SMALL
GASTEIGER

@<TRIPOS>ATOM
      1  N62       18.5590    3.0940    6.7060 N.pl3 273  DTA273      0.2180
      2  C62       18.7240    4.2500    7.3660 C.2   273  DTA273      0.4393
      3  N12       19.9290    4.5530    7.8720 N.2   273  DTA273      0.0021
      4  C22       20.1590    5.6710    8.5410 C.3   273  DTA273      0.5254
      5  N32       19.1980    6.5590    8.7380 N.2   273  DTA273     -0.0055
      6  C42       17.9580    6.3190    8.2600 C.2   273  DTA273      0.3518
      7  C52       17.6790    5.1590    7.5570 C.2   273  DTA273      0.2526
      8  N72       16.3880    5.2020    7.2170 N.2   273  DTA273     -0.2095
      9  C82       15.8740    6.3500    7.6830 C.3   273  DTA273      0.3377
     10  N92       16.8390    7.0310    8.3190 N.pl3 273  DTA273     -0.1439
     11  C1'       16.7510    8.3490    9.0050 C.3   273  DTA273      0.3185
     12  O4'       15.5520    8.4440    9.8090 O.3   273  DTA273     -0.3152
     13  C2'       16.6510    9.4640    7.9550 C.3   273  DTA273      0.2569
     14  O2'       17.8330   10.2710    8.0070 O.3   273  DTA273     -0.2130
     15  C3'       15.4190   10.2640    8.4070 C.3   273  DTA273      0.2168
     16  O3'       15.6470   11.6680    8.3270 O.3   273  DTA273     -0.2175
     17  C4'       15.2430    9.8360    9.8630 C.3   273  DTA273      0.1639
     18  C5'       13.7780   10.0340   10.2670 C.3   273  DTA273      0.1010
     19  S5'       13.3070    9.3070   11.8850 S.3   273  DTA273     -0.0794
     20  S5R       14.9200    9.5490   13.1210 S.3   273  DTA273     -0.0794
     21  C5R       15.4540    7.8380   13.5400 C.3   273  DTA273      0.1010
     22  C4R       16.9750    7.6710   13.8250 C.3   273  DTA273      0.1639
     23  O4R       17.7440    8.5720   12.9740 O.3   273  DTA273     -0.3152
     24  C3R       17.3480    8.0260   15.2750 C.3   273  DTA273      0.2168
     25  O3R       18.2810    7.0580   15.7880 O.3   273  DTA273     -0.2175
     26  C2R       18.0060    9.4000   15.1540 C.3   273  DTA273      0.2569
     27  O2R       18.9740    9.6180   16.1940 O.3   273  DTA273     -0.2130
     28  C1R       18.7060    9.2610   13.8150 C.3   273  DTA273      0.3185
     29  N91       19.0230   10.5760   13.1930 N.pl3 273  DTA273     -0.1439
     30  C81       18.1550   11.5260   12.8280 C.3   273  DTA273      0.3377
     31  N71       18.8190   12.5570   12.3050 N.2   273  DTA273     -0.2095
     32  C51       20.1160   12.2540   12.3240 C.2   273  DTA273      0.2526
     33  C41       20.2450   10.9910   12.8880 C.2   273  DTA273      0.3518
     34  N31       21.4650   10.4380   13.0380 N.2   273  DTA273     -0.0055
     35  C21       22.5480   11.0940   12.6400 C.3   273  DTA273      0.5254
     36  N11       22.4620   12.3040   12.0960 N.2   273  DTA273      0.0021
     37  C61       21.2760   12.9140   11.9140 C.2   273  DTA273      0.4393
     38  N61       21.2180   14.1270   11.3620 N.pl3 273  DTA273      0.2180
@<TRIPOS>BOND
     1     1     2    1
     2     8     7    2
     3     8     9    1
     4     2     7    1
     5     2     3    2
     6     7     6    1
     7     9    10    1
     8     3     4    1
     9    13    14    1
    10    13    15    1
    11    13    11    1
    12     6    10    1
    13     6     5    2
    14    10    11    1
    15    16    15    1
    16    15    17    1
    17     4     5    1
    18    11    12    1
    19    12    17    1
    20    17    18    1
    21    18    19    1
    22    38    37    1
    23    19    20    1
    24    37    36    2
    25    37    32    1
    26    36    35    1
    27    31    32    2
    28    31    30    1
    29    32    33    1
    30    35    34    1
    31    30    29    1
    32    33    34    2
    33    33    29    1
    34    23    28    1
    35    23    22    1
    36    20    21    1
    37    29    28    1
    38    21    22    1
    39    28    26    1
    40    22    24    1
    41    26    24    1
    42    26    27    1
    43    24    25    1
