@<TRIPOS>MOLECULE
2i2d_A2D_A_1.pdb
 45 50 0 0 0
SMALL
GASTEIGER

@<TRIPOS>ATOM
      1  PA        14.3060    7.5490   13.3880 P.3   273  A2D273      0.2189
      2  O1A       14.6490    8.5970   14.5740 O.3   273  A2D273     -0.4371
      3  O2A       13.6970    6.3040   13.4610 O.2   273  A2D273     -0.5170
      4  O3A       13.6780    8.4390   12.6580 O.3   273  A2D273     -0.2703
      5  PB        12.9040    9.6450   12.9120 P.3   273  A2D273      0.2189
      6  O1B       11.4220    9.4770   12.8620 O.2   273  A2D273     -0.5170
      7  O2B       13.4090   10.7670   13.7680 O.3   273  A2D273     -0.4371
      8  O5D       15.7290    7.5290   12.6280 O.3   273  A2D273     -0.3112
      9  C5D       16.7020    6.5390   12.9460 C.3   273  A2D273      0.1813
     10  C4D       17.8600    7.2160   13.6550 C.3   273  A2D273      0.1821
     11  O4D       18.2580    8.3620   12.9100 O.3   273  A2D273     -0.3135
     12  C3D       17.5090    7.7120   15.0530 C.3   273  A2D273      0.2184
     13  O3D       18.2790    6.9610   15.9940 O.3   273  A2D273     -0.2174
     14  C2D       17.8690    9.1950   15.0590 C.3   273  A2D273      0.2570
     15  O2D       18.5480    9.6010   16.2570 O.3   273  A2D273     -0.2130
     16  C1D       18.7800    9.2920   13.8470 C.3   273  A2D273      0.3186
     17  N9A       18.8950   10.6220   13.2040 N.pl3 273  A2D273     -0.1439
     18  C8A       17.9310   11.4790   12.8220 C.3   273  A2D273      0.3377
     19  N7A       18.5250   12.5580   12.2670 N.2   273  A2D273     -0.2095
     20  C5A       19.8740   12.3640   12.2910 C.2   273  A2D273      0.2526
     21  C6A       21.0020   13.0920   11.8750 C.2   273  A2D273      0.4393
     22  N6A       20.9070   14.3080   11.2790 N.pl3 273  A2D273      0.2180
     23  N1A       22.2280   12.5560   12.0720 N.2   273  A2D273      0.0021
     24  C2A       22.4020   11.3610   12.6510 C.3   273  A2D273      0.5254
     25  N3A       21.3540   10.6400   13.0590 N.2   273  A2D273     -0.0055
     26  C4A       20.0890   11.1260   12.8820 C.2   273  A2D273      0.3518
     27  O5E       13.2670   10.4100   11.5630 O.3   273  A2D273     -0.3112
     28  C5E       13.6660    9.6720   10.4190 C.3   273  A2D273      0.1813
     29  C4E       15.1260    9.9340   10.1400 C.3   273  A2D273      0.1821
     30  O4E       15.8530    8.7240   10.0260 O.3   273  A2D273     -0.3135
     31  C3E       15.2750   10.6090    8.8120 C.3   273  A2D273      0.2184
     32  O3E       16.4900   11.3270    8.8900 O.3   273  A2D273     -0.2174
     33  C2E       15.6220    9.5060    7.8840 C.3   273  A2D273      0.2570
     34  O2E       16.3930   10.1400    6.8760 O.3   273  A2D273     -0.2130
     35  C1E       16.4960    8.6500    8.7670 C.3   273  A2D273      0.3186
     36  N9B       16.5330    7.2460    8.2960 N.pl3 273  A2D273     -0.1439
     37  C8B       15.5060    6.5690    7.8030 C.3   273  A2D273      0.3377
     38  N7B       15.9030    5.3310    7.4740 N.2   273  A2D273     -0.2095
     39  C5B       17.1970    5.2260    7.7750 C.2   273  A2D273      0.2526
     40  C6B       18.1180    4.2020    7.6620 C.2   273  A2D273      0.4393
     41  N6B       17.7800    2.9990    7.1610 N.pl3 273  A2D273      0.2180
     42  N1B       19.3700    4.4190    8.0690 N.2   273  A2D273      0.0021
     43  C2B       19.7220    5.6000    8.5630 C.3   273  A2D273      0.5254
     44  N3B       18.8570    6.5990    8.6860 N.2   273  A2D273     -0.0055
     45  C4B       17.5850    6.4390    8.2950 C.2   273  A2D273      0.3518
@<TRIPOS>BOND
     1    34    33    1
     2    41    40    1
     3    38    39    2
     4    38    37    1
     5    40    39    1
     6    40    42    2
     7    39    45    1
     8    37    36    1
     9    33    35    1
    10    33    31    1
    11    42    43    1
    12    45    36    1
    13    45    44    2
    14    36    35    1
    15    43    44    1
    16    35    30    1
    17    31    32    1
    18    31    29    1
    19    30    29    1
    20    29    28    1
    21    28    27    1
    22    22    21    1
    23    27     5    1
    24    21    23    2
    25    21    20    1
    26    23    24    1
    27    19    20    2
    28    19    18    1
    29    20    26    1
    30     8     9    1
    31     8     1    1
    32    24    25    1
    33     4     5    1
    34     4     1    1
    35    18    17    1
    36     6     5    2
    37    26    25    2
    38    26    17    1
    39    11    10    1
    40    11    16    1
    41     5     7    1
    42     9    10    1
    43    17    16    1
    44     1     3    2
    45     1     2    1
    46    10    12    1
    47    16    14    1
    48    12    14    1
    49    12    13    1
    50    14    15    1
