@<TRIPOS>MOLECULE
2i2f_NAD_A_1.pdb
 44 48 0 0 0
SMALL
GASTEIGER

@<TRIPOS>ATOM
      1  PA        13.4310    6.1170   12.0940 P.3   274  NAD274      0.2189
      2  O1A       13.1880    5.0420   13.0820 O.3   274  NAD274     -0.4371
      3  O2A       13.3330    5.5910   10.7130 O.2   274  NAD274     -0.5170
      4  O5B       14.8810    6.7700   12.3700 O.3   274  NAD274     -0.3112
      5  C5B       15.1990    7.3330   13.6240 C.3   274  NAD274      0.1813
      6  C4B       16.6910    7.1970   13.9220 C.3   274  NAD274      0.1821
      7  O4B       17.4440    8.0770   13.1010 O.3   274  NAD274     -0.3135
      8  C3B       16.9880    7.5830   15.3640 C.3   274  NAD274      0.2184
      9  O3B       17.9050    6.6730   15.9270 O.3   274  NAD274     -0.2174
     10  C2B       17.5950    8.9740   15.2650 C.3   274  NAD274      0.2570
     11  O2B       18.5140    9.2440   16.3050 O.3   274  NAD274     -0.2130
     12  C1B       18.2630    8.9170   13.8990 C.3   274  NAD274      0.3186
     13  N9A       18.4650   10.2590   13.3180 N.pl3 274  NAD274     -0.1439
     14  C8A       17.5380   11.2450   13.0750 C.3   274  NAD274      0.3377
     15  N7A       18.1730   12.3170   12.5400 N.2   274  NAD274     -0.2095
     16  C5A       19.4920   12.0220   12.4380 C.2   274  NAD274      0.2526
     17  C6A       20.5950   12.7340   11.9680 C.2   274  NAD274      0.4393
     18  N6A       20.4220   13.8350   11.2410 N.pl3 274  NAD274      0.2180
     19  N1A       21.8480   12.1460   11.9950 N.2   274  NAD274      0.0021
     20  C2A       22.0120   10.8650   12.4760 C.3   274  NAD274      0.5254
     21  N3A       20.9200   10.1630   12.9440 N.2   274  NAD274     -0.0055
     22  C4A       19.6840   10.7320   12.9210 C.2   274  NAD274      0.3518
     23  O3        12.3850    7.3160   12.3560 O.3   274  NAD274     -0.2703
     24  PN        11.8640    8.2960   11.1840 P.3   274  NAD274      0.2189
     25  O1N       11.0430    7.5140   10.2300 O.2   274  NAD274     -0.5170
     26  O2N       11.3020    9.5050   11.8340 O.3   274  NAD274     -0.4371
     27  O5D       13.2090    8.6950   10.4070 O.3   274  NAD274     -0.3112
     28  C5D       13.8420    9.9390   10.6060 C.3   274  NAD274      0.1813
     29  C4D       15.2400    9.8460   10.0200 C.3   274  NAD274      0.1799
     30  O4D       15.7110    8.5070   10.0440 O.3   274  NAD274     -0.3327
     31  C3D       15.2510   10.2510    8.5550 C.3   274  NAD274      0.2158
     32  O3D       15.3880   11.6540    8.3900 O.3   274  NAD274     -0.2175
     33  C2D       16.4060    9.4430    7.9850 C.3   274  NAD274      0.2309
     34  O2D       17.5800   10.2090    7.9630 O.3   274  NAD274     -0.2158
     35  C1D       16.5930    8.2810    8.9570 C.3   274  NAD274      0.2263
     36  N1N       16.3530    6.9850    8.2800 N.pl3 274  NAD274     -0.2787
     37  C2N       17.4090    6.1280    8.1740 C.3   274  NAD274      0.1244
     38  C3N       17.2720    4.8960    7.5430 C.2   274  NAD274      0.0544
     39  C7N       18.5320    4.1280    7.2700 C.2   274  NAD274      0.2818
     40  O7N       19.7500    4.7290    7.6570 O.2   274  NAD274     -0.2670
     41  N7N       18.4820    2.9240    6.7000 N.am  274  NAD274     -0.0839
     42  C4N       16.0340    4.5270    7.0080 C.2   274  NAD274      0.0033
     43  C5N       14.9550    5.4070    7.1150 C.2   274  NAD274      0.0157
     44  C6N       15.1280    6.6350    7.7560 C.2   274  NAD274      0.0633
@<TRIPOS>BOND
     1    41    39   am
     2    42    43    1
     3    42    38    2
     4    43    44    2
     5    39    38    1
     6    39    40    2
     7    38    37    1
     8    44    36    1
     9    34    33    1
    10    33    31    1
    11    33    35    1
    12    37    36    1
    13    36    35    1
    14    32    31    1
    15    31    29    1
    16    35    30    1
    17    29    30    1
    18    29    28    1
    19    25    24    2
    20    27    28    1
    21    27    24    1
    22     3     1    2
    23    24    26    1
    24    24    23    1
    25    18    17    1
    26    17    19    2
    27    17    16    1
    28    19    20    1
    29     1    23    1
    30     1     4    1
    31     1     2    1
    32     4     5    1
    33    16    15    2
    34    16    22    1
    35    20    21    1
    36    15    14    1
    37    22    21    2
    38    22    13    1
    39    14    13    1
    40     7    12    1
    41     7     6    1
    42    13    12    1
    43     5     6    1
    44    12    10    1
    45     6     8    1
    46    10     8    1
    47    10    11    1
    48     8     9    1
