@<TRIPOS>MOLECULE
2i2s_MNA_A_1.pdb
 22 22 0 0 0
SMALL
GASTEIGER

@<TRIPOS>ATOM
      1  C1        60.2860   10.1050   33.2420 C.2   1000  MNA1000     0.4152
      2  C2        60.2940   11.6170   33.3980 C.3   1000  MNA1000     0.2863
      3  C3        61.1780   12.3100   32.3530 C.3   1000  MNA1000     0.1028
      4  C4        60.5250   12.3530   30.9710 C.3   1000  MNA1000     0.1797
      5  C5        59.0950   12.8920   31.0050 C.3   1000  MNA1000     0.1554
      6  C6        58.3080   12.1000   32.0510 C.3   1000  MNA1000     0.1733
      7  C7        56.8280   12.4720   32.2340 C.3   1000  MNA1000     0.2135
      8  C8        56.2040   11.6630   33.3690 C.3   1000  MNA1000     0.2173
      9  C9        54.6830   11.6780   33.3310 C.3   1000  MNA1000     0.2175
     10  C10       57.7070   13.6520   29.1140 C.2   1000  MNA1000     0.2420
     11  C11       57.4230   13.4200   27.6600 C.3   1000  MNA1000     0.0964
     12  C12       60.1930   11.4810   35.8890 C.3   1000  MNA1000     0.1772
     13  N5        58.5090   12.7480   29.6830 N.am  1000  MNA1000    -0.2020
     14  O1A       61.3820    9.5020   33.1930 O.co2 1000  MNA1000    -0.2402
     15  O1B       59.1960    9.4890   33.1910 O.co2 1000  MNA1000    -0.2402
     16  O2        60.8280   11.9240   34.6880 O.3   1000  MNA1000    -0.3233
     17  O4        61.3250   13.1300   30.0830 O.3   1000  MNA1000    -0.2210
     18  O6        58.9740   12.1760   33.3230 O.3   1000  MNA1000    -0.3239
     19  O7        56.6870   13.8690   32.5150 O.3   1000  MNA1000    -0.2176
     20  O8        56.6400   10.2950   33.3120 O.3   1000  MNA1000    -0.2175
     21  O9        54.2150   10.9780   34.4910 O.3   1000  MNA1000    -0.2175
     22  O10       57.2230   14.5940   29.7210 O.2   1000  MNA1000    -0.2733
@<TRIPOS>BOND
     1    11    10    1
     2    10    13   am
     3    10    22    2
     4    13     5    1
     5    17     4    1
     6     4     5    1
     7     4     3    1
     8     5     6    1
     9     6     7    1
    10     6    18    1
    11     7    19    1
    12     7     8    1
    13     3     2    1
    14    15     1   ar
    15    14     1   ar
    16     1     2    1
    17    20     8    1
    18    18     2    1
    19     9     8    1
    20     9    21    1
    21     2    16    1
    22    16    12    1
