@<TRIPOS>MOLECULE
2i2z_SAL_A_1.pdb
 10 10 0 0 0
SMALL
GASTEIGER

@<TRIPOS>ATOM
      1  C1'       35.7800   15.3480    9.4930 C.2   1100  SAL1100     0.3909
      2  O1'       35.7810   14.5910   10.5700 O.co2 1100  SAL1100    -0.2404
      3  O2'       36.9630   15.6010    8.9870 O.co2 1100  SAL1100    -0.2404
      4  C1        34.5340   15.8940    8.8670 C.ar  1100  SAL1100     0.1186
      5  C2        33.1860   15.6410    9.3760 C.ar  1100  SAL1100     0.2020
      6  C3        31.9490   16.1840    8.7560 C.ar  1100  SAL1100     0.0422
      7  C4        32.0690   17.0100    7.5840 C.ar  1100  SAL1100     0.0033
      8  C5        33.3830   17.2990    7.0200 C.ar  1100  SAL1100     0.0004
      9  C6        34.6070   16.7290    7.6800 C.ar  1100  SAL1100     0.0098
     10  O2        32.9780   14.8500   10.5170 O.3   1100  SAL1100    -0.2863
@<TRIPOS>BOND
     1     8     7   ar
     2     8     9   ar
     3     7     6   ar
     4     9     4   ar
     5     6     5   ar
     6     4     5   ar
     7     4     1    1
     8     3     1   ar
     9     5    10    1
    10     1     2   ar
