@<TRIPOS>MOLECULE
2i30_SAL_A_1.pdb
 10 10 0 0 0
SMALL
GASTEIGER

@<TRIPOS>ATOM
      1  C1'       31.0710    2.7490   30.8340 C.2   1100  SAL1100     0.3909
      2  O1'       30.3390    2.1300   31.7220 O.co2 1100  SAL1100    -0.2404
      3  O2'       31.4840    3.9370   31.1730 O.co2 1100  SAL1100    -0.2404
      4  C1        31.4300    2.1690   29.5250 C.ar  1100  SAL1100     0.1186
      5  C2        31.0010    0.8230   29.0650 C.ar  1100  SAL1100     0.2020
      6  C3        31.3910    0.2640   27.7240 C.ar  1100  SAL1100     0.0422
      7  C4        32.2210    1.0830   26.8490 C.ar  1100  SAL1100     0.0033
      8  C5        32.6770    2.4280   27.2450 C.ar  1100  SAL1100     0.0004
      9  C6        32.2690    2.9450   28.5820 C.ar  1100  SAL1100     0.0098
     10  O2        30.1900   -0.0260   29.8630 O.3   1100  SAL1100    -0.2863
@<TRIPOS>BOND
     1     7     8   ar
     2     7     6   ar
     3     8     9   ar
     4     6     5   ar
     5     9     4   ar
     6     5     4   ar
     7     5    10    1
     8     4     1    1
     9     1     3   ar
    10     1     2   ar
