@<TRIPOS>MOLECULE
2i35_RET_A_1.pdb
 20 20 0 0 0
SMALL
GASTEIGER

@<TRIPOS>ATOM
      1  C1        40.5330  135.3910   -0.1630 C.3   1332  RET1332     0.0183
      2  C2        41.4580  134.2580    0.3070 C.3   1332  RET1332     0.0044
      3  C3        42.8030  134.7500    0.8520 C.3   1332  RET1332     0.0047
      4  C4        43.2630  136.0950    0.2930 C.3   1332  RET1332     0.0217
      5  C5        42.1920  137.1560    0.4030 C.2   1332  RET1332    -0.0479
      6  C6        40.9000  136.8340    0.2090 C.2   1332  RET1332    -0.0307
      7  C7        39.8460  137.8810    0.2810 C.2   1332  RET1332    -0.0052
      8  C8        39.1170  138.1000    1.3720 C.2   1332  RET1332    -0.0046
      9  C9        38.0740  139.1400    1.3920 C.2   1332  RET1332    -0.0219
     10  C10       38.3830  140.3580    1.8780 C.2   1332  RET1332    -0.0043
     11  C11       37.4360  141.4730    1.9630 C.2   1332  RET1332    -0.0007
     12  C12       37.1050  142.1160    3.0910 C.2   1332  RET1332    -0.0046
     13  C13       37.6000  141.8320    4.4630 C.2   1332  RET1332    -0.0261
     14  C14       37.2670  142.6690    5.4590 C.2   1332  RET1332    -0.0300
     15  C15       37.7280  142.4230    6.8230 C.3   1332  RET1332     0.0304
     16  C16       39.1280  135.1600   -0.7290 C.3   1332  RET1332     0.0043
     17  C17       39.8240  135.1480    1.1680 C.3   1332  RET1332     0.0043
     18  C18       42.6230  138.5560    0.7430 C.3   1332  RET1332     0.0260
     19  C19       36.7010  138.7920    0.8840 C.3   1332  RET1332     0.0310
     20  C20       38.4520  140.6360    4.7870 C.3   1332  RET1332     0.0307
@<TRIPOS>BOND
     1    16     1    1
     2     1     6    1
     3     1     2    1
     4     1    17    1
     5     6     7    1
     6     6     5    2
     7     7     8    2
     8     4     5    1
     9     4     3    1
    10     2     3    1
    11     5    18    1
    12    19     9    1
    13     8     9    1
    14     9    10    2
    15    10    11    1
    16    11    12    2
    17    12    13    1
    18    13    20    1
    19    13    14    2
    20    14    15    1
