@<TRIPOS>MOLECULE
2i3g_NAP_A_1.pdb
 48 52 0 0 0
SMALL
GASTEIGER

@<TRIPOS>ATOM
      1  PA        -8.3170   30.2380   -8.4340 P.3   500  NAP500      0.2189
      2  O1A       -8.5970   31.5930   -7.8320 O.3   500  NAP500     -0.4371
      3  O2A       -7.1810   29.3590   -7.9350 O.2   500  NAP500     -0.5170
      4  O5B       -9.6290   29.2790   -8.3910 O.3   500  NAP500     -0.3112
      5  C5B       -9.6640   28.0250   -9.0690 C.3   500  NAP500      0.1813
      6  C4B      -11.0250   27.3450   -8.9100 C.3   500  NAP500      0.1820
      7  O4B      -10.9690   26.1190   -9.6370 O.3   500  NAP500     -0.3136
      8  C3B      -11.3530   26.9370   -7.4610 C.3   500  NAP500      0.2157
      9  O3B      -12.7710   26.9710   -7.2770 O.3   500  NAP500     -0.2175
     10  C2B      -10.9270   25.4820   -7.3550 C.3   500  NAP500      0.2314
     11  O2B      -11.6600   24.7030   -6.4040 O.3   500  NAP500     -0.2630
     12  C1B      -11.3010   25.0270   -8.7510 C.3   500  NAP500      0.3158
     13  N9A      -10.6140   23.7900   -9.1700 N.pl3 500  NAP500     -0.1439
     14  C8A       -9.2890   23.5540   -9.1950 C.3   500  NAP500      0.3377
     15  N7A       -9.0860   22.3080   -9.6890 N.2   500  NAP500     -0.2095
     16  C5A      -10.3000   21.7710   -9.9720 C.2   500  NAP500      0.2526
     17  C6A      -10.7180   20.5480  -10.4770 C.2   500  NAP500      0.4393
     18  N6A       -9.8150   19.5790  -10.8000 N.pl3 500  NAP500      0.2180
     19  N1A      -12.0460   20.3310  -10.6380 N.2   500  NAP500      0.0021
     20  C2A      -12.9660   21.2660  -10.3210 C.3   500  NAP500      0.5254
     21  N3A      -12.6080   22.4580   -9.8220 N.2   500  NAP500     -0.0055
     22  C4A      -11.2700   22.7190   -9.6420 C.2   500  NAP500      0.3518
     23  O3        -8.0640   30.4570  -10.0070 O.3   500  NAP500     -0.2703
     24  PN        -8.6010   31.7460  -10.8180 P.3   500  NAP500      0.2189
     25  O1N       -7.6100   32.8860  -10.8100 O.2   500  NAP500     -0.5170
     26  O2N      -10.0580   32.0580  -10.5540 O.3   500  NAP500     -0.4371
     27  O5D       -8.4600   31.0040  -12.2610 O.3   500  NAP500     -0.3112
     28  C5D       -9.3660   30.0230  -12.7700 C.3   500  NAP500      0.1813
     29  C4D       -9.4090   30.1500  -14.2950 C.3   500  NAP500      0.1799
     30  O4D       -9.7390   31.5040  -14.6530 O.3   500  NAP500     -0.3327
     31  C3D       -8.0310   29.8380  -14.8910 C.3   500  NAP500      0.2158
     32  O3D       -8.1360   28.9860  -16.0340 O.3   500  NAP500     -0.2175
     33  C2D       -7.5050   31.1740  -15.3440 C.3   500  NAP500      0.2309
     34  O2D       -6.7120   31.0740  -16.5330 O.3   500  NAP500     -0.2158
     35  C1D       -8.7700   31.9810  -15.5970 C.3   500  NAP500      0.2263
     36  N1N       -8.4990   33.4170  -15.5100 N.pl3 500  NAP500     -0.2787
     37  C2N       -8.3250   34.0330  -14.3140 C.3   500  NAP500      0.1244
     38  C3N       -8.0700   35.4050  -14.2490 C.2   500  NAP500      0.0544
     39  C7N       -7.8620   36.1240  -12.9330 C.2   500  NAP500      0.2818
     40  O7N       -7.4590   37.4060  -12.9750 O.2   500  NAP500     -0.2670
     41  N7N       -8.0300   35.5300  -11.8080 N.am  500  NAP500     -0.0839
     42  C4N       -7.9800   36.1180  -15.4510 C.2   500  NAP500      0.0033
     43  C5N       -8.1690   35.4780  -16.6870 C.2   500  NAP500      0.0157
     44  C6N       -8.4250   34.1040  -16.6740 C.2   500  NAP500      0.0633
     45  P2B      -11.1110   24.3600   -4.9060 P.3   500  NAP500      0.5328
     46  O1X      -11.8600   23.1490   -4.4260 O.3   500  NAP500     -0.1145
     47  O2X       -9.6500   24.0420   -5.1580 O.2   500  NAP500     -0.2224
     48  O3X      -11.3890   25.6020   -4.0710 O.3   500  NAP500     -0.1145
@<TRIPOS>BOND
     1    43    44    2
     2    43    42    1
     3    44    36    1
     4    34    33    1
     5    32    31    1
     6    35    36    1
     7    35    33    1
     8    35    30    1
     9    36    37    1
    10    42    38    2
    11    33    31    1
    12    31    29    1
    13    30    29    1
    14    37    38    1
    15    29    28    1
    16    38    39    1
    17    40    39    2
    18    39    41   am
    19    28    27    1
    20    27    24    1
    21    24    25    2
    22    24    26    1
    23    24    23    1
    24    18    17    1
    25    19    17    2
    26    19    20    1
    27    17    16    1
    28    20    21    1
    29    23     1    1
    30    16    15    2
    31    16    22    1
    32    21    22    2
    33    15    14    1
    34    22    13    1
    35     7     6    1
    36     7    12    1
    37    14    13    1
    38    13    12    1
    39     5     6    1
    40     5     4    1
    41     6     8    1
    42    12    10    1
    43     1     4    1
    44     1     3    2
    45     1     2    1
    46     8    10    1
    47     8     9    1
    48    10    11    1
    49    11    45    1
    50    47    45    2
    51    45    46    1
    52    45    48    1
