@<TRIPOS>MOLECULE
2i3h_III_C_1.pdb
 34 36 0 0 0
SMALL
GASTEIGER

@<TRIPOS>ATOM
      1  N         86.3520   60.5130   15.1240 N.3     1  ALA1       -0.1231
      2  CA        84.9340   60.6570   15.5620 C.3     1  ALA1        0.1694
      3  C         84.0950   61.2160   14.4240 C.2     1  ALA1        0.2592
      4  O         84.6320   61.6650   13.4160 O.2     1  ALA1       -0.2718
      5  CB        84.8430   61.5650   16.7920 C.3     1  ALA1        0.0304
      6  N         82.7760   61.1720   14.5860 N.am    2  VAL2       -0.1966
      7  CA        81.8450   61.6900   13.5840 C.3     2  VAL2        0.1712
      8  C         80.6830   62.4300   14.2470 C.2     2  VAL2        0.2458
      9  O         80.3250   62.1210   15.3800 O.2     2  VAL2       -0.2730
     10  CB        81.2600   60.5600   12.6980 C.3     2  VAL2        0.0289
     11  CG1       82.3490   59.9240   11.8400 C.3     2  VAL2        0.0023
     12  CG2       80.5400   59.5050   13.5440 C.3     2  VAL2        0.0023
     13  N         80.0790   63.3950   13.5540 N.am    3  PRO3       -0.2716
     14  CA        78.9390   64.1300   14.1230 C.3     3  PRO3        0.1536
     15  C         77.6760   63.2760   14.3100 C.2     3  PRO3        0.2599
     16  O         77.5380   62.2410   13.6600 O.2     3  PRO3       -0.2715
     17  CB        78.6820   65.2460   13.0940 C.3     3  PRO3        0.0310
     18  CG        79.8810   65.2710   12.2150 C.3     3  PRO3        0.0237
     19  CD        80.4220   63.8770   12.2040 C.3     3  PRO3        0.0939
     20  N         76.7750   63.7120   15.1910 N.am    4  TRP4       -0.1939
     21  CA        75.4590   63.0670   15.3420 C.3     4  TRP4        0.2018
     22  C         74.3170   64.0580   15.5870 C.2     4  TRP4        0.3845
     23  O         73.1950   63.9230   15.0910 O.co2   4  TRP4       -0.2437
     24  CB        75.4960   62.0450   16.4760 C.3     4  TRP4        0.0575
     25  CG        75.8580   62.6310   17.7910 C.2     4  TRP4       -0.0136
     26  CD1       77.1080   62.9410   18.2330 C.2     4  TRP4        0.0907
     27  CD2       74.9610   62.9820   18.8460 C.3     4  TRP4        0.0819
     28  NE1       77.0480   63.4640   19.5030 N.2     4  TRP4       -0.2482
     29  CE2       75.7390   63.5030   19.9020 C.2     4  TRP4        0.0665
     30  CE3       73.5730   62.9070   19.0100 C.2     4  TRP4       -0.0164
     31  CZ2       75.1800   63.9450   21.0960 C.2     4  TRP4        0.0153
     32  CZ3       73.0180   63.3470   20.2000 C.2     4  TRP4       -0.0038
     33  CH2       73.8230   63.8550   21.2270 C.2     4  TRP4        0.0009
     34  OXT       74.4410   65.0450   16.3060 O.co2   4  TRP4       -0.2437
@<TRIPOS>BOND
     1    11    10    1
     2    19    18    1
     3    19    13    1
     4    18    17    1
     5    10    12    1
     6    10     7    1
     7    17    14    1
     8     4     3    2
     9    13    14    1
    10    13     8   am
    11     7     8    1
    12     7     6    1
    13    16    15    2
    14    14    15    1
    15     8     9    2
    16    15    20   am
    17     3     6   am
    18     3     2    1
    19    23    22   ar
    20     1     2    1
    21    20    21    1
    22    21    22    1
    23    21    24    1
    24     2     5    1
    25    22    34   ar
    26    24    25    1
    27    25    26    2
    28    25    27    1
    29    26    28    1
    30    27    30    1
    31    27    29    1
    32    30    32    2
    33    28    29    2
    34    29    31    1
    35    32    33    1
    36    31    33    2
