@<TRIPOS>MOLECULE
2i3i_618_A_1.pdb
 35 38 0 0 0
SMALL
GASTEIGER

@<TRIPOS>ATOM
      1  O6        84.6490   61.3310   12.9700 O.2   501  618501     -0.2718
      2  C5        84.0570   61.0430   13.9930 C.2   501  618501      0.2576
      3  C3        84.8460   60.4470   15.1870 C.3   501  618501      0.1505
      4  N2        86.2510   60.0790   14.8380 N.3   501  618501     -0.2087
      5  C1        86.3710   58.9560   13.8820 C.3   501  618501      0.1080
      6  C4        84.8190   61.3510   16.4370 C.3   501  618501      0.0287
      7  N7        82.7510   61.2480   14.1980 N.am  501  618501     -0.1963
      8  C8        81.5940   60.9910   13.2980 C.3   501  618501      0.1756
      9  C9        80.5700   62.0900   13.7100 C.2   501  618501      0.2470
     10  O15       80.3690   62.1550   14.9240 O.2   501  618501     -0.2730
     11  C14       81.9670   60.8170   11.8140 C.3   501  618501      0.0568
     12  C13       80.8220   60.6120   10.8070 C.2   501  618501     -0.0259
     13  C12       79.8020   61.7620   10.6210 C.2   501  618501     -0.0000
     14  C11       80.0160   63.0610   11.4290 C.3   501  618501      0.1463
     15  N10       79.8590   62.9270   12.8930 N.am  501  618501     -0.2595
     16  S16       78.7100   64.2060   10.9450 S.3   501  618501     -0.1163
     17  C17       78.5670   65.0050   12.5530 C.3   501  618501      0.0663
     18  C19       77.2060   65.7210   12.6910 C.3   501  618501      0.0131
     19  C20       79.6490   66.1010   12.7180 C.3   501  618501      0.0131
     20  C18       78.7830   63.7860   13.4890 C.3   501  618501      0.1639
     21  C21       77.5400   62.8530   13.7060 C.2   501  618501      0.2658
     22  O22       77.3280   61.9020   12.9520 O.2   501  618501     -0.2711
     23  N23       76.7480   63.1890   14.7340 N.am  501  618501     -0.1589
     24  C24       75.3800   62.7940   15.0410 C.ar  501  618501      0.1571
     25  C25       74.4960   62.3450   14.0870 C.ar  501  618501      0.0526
     26  C26       73.2980   62.0660   14.7370 C.ar  501  618501      0.0822
     27  C29       72.0120   61.5450   14.1270 C.3   501  618501      0.0540
     28  N27       73.4410   62.3330   16.0780 N.ar  501  618501     -0.1683
     29  N28       74.7040   62.7850   16.2920 N.ar  501  618501     -0.2146
     30  C30       75.1510   63.1330   17.4540 C.ar  501  618501      0.0842
     31  C31       74.3230   63.8860   18.3210 C.ar  501  618501      0.0192
     32  C32       74.7700   64.2680   19.5840 C.ar  501  618501      0.0015
     33  C33       76.0480   63.9020   19.9960 C.ar  501  618501      0.0001
     34  C34       76.8760   63.1590   19.1520 C.ar  501  618501      0.0015
     35  C35       76.4480   62.7700   17.8900 C.ar  501  618501      0.0192
@<TRIPOS>BOND
     1    13    12    2
     2    13    14    1
     3    12    11    1
     4    16    14    1
     5    16    17    1
     6    14    15    1
     7    11     8    1
     8    17    18    1
     9    17    19    1
    10    17    20    1
    11    15    20    1
    12    15     9   am
    13    22    21    2
    14     1     2    2
    15     8     9    1
    16     8     7    1
    17    20    21    1
    18    21    23   am
    19     9    10    2
    20     5     4    1
    21     2     7   am
    22     2     3    1
    23    25    26   ar
    24    25    24   ar
    25    27    26    1
    26    23    24    1
    27    26    28   ar
    28     4     3    1
    29    24    29   ar
    30     3     6    1
    31    28    29   ar
    32    29    30    1
    33    30    35   ar
    34    30    31   ar
    35    35    34   ar
    36    31    32   ar
    37    34    33   ar
    38    32    33   ar
