@<TRIPOS>MOLECULE
2i3v_GLU_A_1.pdb
 10 9 0 0 0
SMALL
GASTEIGER

@<TRIPOS>ATOM
      1  N          0.5280   71.8270   81.2660 N.3   401  GLU401     -0.1208
      2  CA         1.2150   71.8080   79.9430 C.3   401  GLU401      0.1949
      3  C          2.5230   72.5640   79.9900 C.2   401  GLU401      0.3819
      4  O          3.1810   72.6180   78.9380 O.co2 401  GLU401     -0.2441
      5  CB         0.3150   72.4040   78.8640 C.3   401  GLU401      0.0424
      6  CG        -0.8770   71.5110   78.5050 C.3   401  GLU401      0.1161
      7  CD        -0.5210   70.3310   77.5940 C.2   401  GLU401      0.3649
      8  OE1       -1.3840   69.4590   77.4060 O.co2 401  GLU401     -0.2457
      9  OE2        0.6020   70.2610   77.0560 O.co2 401  GLU401     -0.2457
     10  OXT        2.8830   73.0630   81.0850 O.co2 401  GLU401     -0.2441
@<TRIPOS>BOND
     1     9     7   ar
     2     8     7   ar
     3     7     6    1
     4     6     5    1
     5     5     2    1
     6     4     3   ar
     7     2     3    1
     8     2     1    1
     9     3    10   ar
