@<TRIPOS>MOLECULE
2i3w_GLU_A_1.pdb
 10 9 0 0 0
SMALL
GASTEIGER

@<TRIPOS>ATOM
      1  N         29.8900   48.2020   83.2580 N.3   302  GLU302     -0.1208
      2  CA        31.2830   48.0160   82.7630 C.3   302  GLU302      0.1949
      3  C         31.9260   49.3550   82.4010 C.2   302  GLU302      0.3819
      4  O         33.1120   49.3350   82.0200 O.co2 302  GLU302     -0.2441
      5  CB        31.2990   47.0820   81.5430 C.3   302  GLU302      0.0424
      6  CG        31.0670   45.5930   81.8730 C.3   302  GLU302      0.1161
      7  CD        32.2080   44.9660   82.6860 C.2   302  GLU302      0.3649
      8  OE1       32.0500   43.8280   83.1750 O.co2 302  GLU302     -0.2457
      9  OE2       33.2690   45.6000   82.8300 O.co2 302  GLU302     -0.2457
     10  OXT       31.2490   50.3980   82.5160 O.co2 302  GLU302     -0.2441
@<TRIPOS>BOND
     1     5     6    1
     2     5     2    1
     3     6     7    1
     4     4     3   ar
     5     3    10   ar
     6     3     2    1
     7     7     9   ar
     8     7     8   ar
     9     2     1    1
