@<TRIPOS>MOLECULE
2i3z_LIR_A_1.pdb
 27 30 0 0 0
SMALL
GASTEIGER

@<TRIPOS>ATOM
      1  C4        18.9310   39.7530  -78.2190 C.2   900  LIR900      0.2826
      2  C7        15.3950   38.7980  -78.6020 C.cat 900  LIR900      0.2422
      3  N12       14.0610   38.3140  -78.4140 N.pl3 900  LIR900     -0.2701
      4  C13       13.9640   36.9110  -78.8170 C.3   900  LIR900      0.1133
      5  C15       12.0480   36.5670  -77.2410 C.3   900  LIR900      0.0225
      6  C17       13.5320   38.5860  -77.0460 C.3   900  LIR900      0.0945
      7  C20       15.4000   39.2300  -82.2610 C.ar  900  LIR900      0.0074
      8  C21       15.2980   40.2200  -83.2540 C.ar  900  LIR900     -0.0019
      9  C22       15.7600   39.9780  -84.5590 C.ar  900  LIR900     -0.0002
     10  C24       16.4870   37.7420  -83.9140 C.ar  900  LIR900      0.0100
     11  C26       16.1880   36.9090  -81.6670 C.1   900  LIR900      0.1001
     12  C1        18.2790   40.4220  -80.2700 C.2   900  LIR900      0.2570
     13  C2        17.1550   39.7620  -79.6010 C.3   900  LIR900      0.2110
     14  C3        17.5290   39.3780  -78.4130 C.2   900  LIR900      0.1924
     15  N5        19.3060   40.3510  -79.3790 N.am  900  LIR900     -0.2210
     16  N6        15.7570   39.3800  -79.7600 N.pl3 900  LIR900     -0.2551
     17  N8        16.4080   38.7340  -77.7100 N.2   900  LIR900     -0.3706
     18  O9        18.2930   40.8990  -81.3970 O.2   900  LIR900     -0.2722
     19  O10       19.6100   39.5400  -77.2350 O.2   900  LIR900     -0.2670
     20  C11       20.6410   40.8950  -79.6240 C.3   900  LIR900      0.1232
     21  C14       12.5580   36.3700  -78.6800 C.3   900  LIR900      0.1117
     22  C16       12.0760   38.0710  -76.9130 C.3   900  LIR900      0.0231
     23  N18       12.6090   34.9780  -79.1230 N.3   900  LIR900     -0.1311
     24  C19       14.8600   39.5620  -80.8990 C.3   900  LIR900      0.1225
     25  C23       16.3660   38.7460  -84.8810 C.ar  900  LIR900      0.0007
     26  C25       16.0270   37.9790  -82.6080 C.ar  900  LIR900      0.0661
     27  N27       16.4010   36.1210  -80.8380 N.1   900  LIR900     -0.1908
@<TRIPOS>BOND
     1    25     9   ar
     2    25    10   ar
     3     9     8   ar
     4    10    26   ar
     5     8     7   ar
     6    26     7   ar
     7    26    11    1
     8     7    24    1
     9    11    27    3
    10    18    12    2
    11    24    16    1
    12    12    13    1
    13    12    15   am
    14    16    13    1
    15    16     2    1
    16    20    15    1
    17    13    14    1
    18    15     1   am
    19    23    21    1
    20     4    21    1
    21     4     3    1
    22    21     5    1
    23     2     3    1
    24     2    17    2
    25     3     6    1
    26    14     1    1
    27    14    17    2
    28     1    19    2
    29     5    22    1
    30     6    22    1
