@<TRIPOS>MOLECULE
2i40_BLZ_A_1.pdb
 31 34 0 0 0
SMALL
GASTEIGER

@<TRIPOS>ATOM
      1  C1        -6.7900  208.4020  110.9490 C.3   301  BLZ301      0.2521
      2  O2        -7.4790  207.8610  112.0600 O.2   301  BLZ301     -0.4723
      3  C3        -8.7540  207.4780  111.6640 C.2   301  BLZ301      0.1559
      4  C4        -9.2110  207.6380  110.3710 C.3   301  BLZ301      0.1137
      5  C5       -10.5030  207.2120  110.1120 C.2   301  BLZ301      0.0771
      6  N6       -11.2020  207.2510  108.9350 N.2   301  BLZ301     -0.2503
      7  C7       -12.3760  206.7330  109.2160 C.3   301  BLZ301      0.2240
      8  N8       -12.4690  206.3490  110.5240 N.pl3 301  BLZ301     -0.2595
      9  C9       -13.5800  205.7990  111.1400 C.ar  301  BLZ301      0.0867
     10  C10      -13.6700  204.8100  112.0950 C.ar  301  BLZ301      0.0592
     11  C11      -15.0170  204.6010  112.5030 C.ar  301  BLZ301      0.1511
     12  O12      -15.4600  203.7190  113.4340 O.3   301  BLZ301     -0.4740
     13  C13      -14.7030  203.6690  114.6620 C.3   301  BLZ301      0.1891
     14  C14      -15.5660  202.9480  115.6730 C.3   301  BLZ301      0.0523
     15  C15      -14.2850  204.9930  115.2620 C.ar  301  BLZ301      0.0278
     16  C16      -15.0740  206.1160  115.0920 C.ar  301  BLZ301      0.0000
     17  C17      -14.7140  207.3320  115.6260 C.ar  301  BLZ301     -0.0002
     18  C18      -13.5500  207.4380  116.3510 C.ar  301  BLZ301      0.0008
     19  C19      -12.7560  206.3290  116.5350 C.ar  301  BLZ301      0.0112
     20  C20      -13.1120  205.1120  115.9960 C.ar  301  BLZ301      0.0570
     21 CL2       -12.1910  203.9660  116.2420 Cl    301  BLZ301     -0.0825
     22  C22      -15.9110  205.4310  111.8600 C.ar  301  BLZ301      0.1212
     23  S23      -15.1110  206.4580  110.7460 S.2   301  BLZ301     -0.0643
     24  C24      -17.3270  205.5410  111.9970 C.2   301  BLZ301      0.2932
     25  O25      -18.0030  206.4200  111.4850 O.2   301  BLZ301     -0.2660
     26  N26      -17.8470  204.5600  112.7920 N.am  301  BLZ301     -0.0832
     27  C27      -11.2730  206.6590  111.1190 C.2   301  BLZ301      0.0703
     28  C28      -10.8290  206.4950  112.4160 C.2   301  BLZ301      0.0558
     29  C29       -9.5370  206.9270  112.6530 C.2   301  BLZ301      0.1699
     30  O30       -8.9230  206.8410  113.8990 O.2   301  BLZ301     -0.4687
     31  C31       -9.8050  206.2620  114.8470 C.3   301  BLZ301      0.2526
@<TRIPOS>BOND
     1     6     7    1
     2     6     5    2
     3     7     8    1
     4     5     4    1
     5     5    27    1
     6     4     3    1
     7     8    27    1
     8     8     9    1
     9    23     9   ar
    10    23    22   ar
    11     1     2    1
    12    27    28    2
    13     9    10   ar
    14    25    24    2
    15     3     2    1
    16     3    29    2
    17    22    24    1
    18    22    11   ar
    19    24    26   am
    20    10    11   ar
    21    28    29    1
    22    11    12    1
    23    29    30    1
    24    12    13    1
    25    30    31    1
    26    13    15    1
    27    13    14    1
    28    16    15   ar
    29    16    17   ar
    30    15    20   ar
    31    17    18   ar
    32    20    21    1
    33    20    19   ar
    34    18    19   ar
