@<TRIPOS>MOLECULE
2i47_INN_A_1.pdb
 29 28 0 0 0
SMALL
GASTEIGER

@<TRIPOS>ATOM
      1  C0        -4.7190   41.2670   45.7880 C.3   901  INN901      0.0603
      2  C         -5.1630   40.8150   44.3950 C.2   901  INN901      0.0873
      3  O         -5.9550   39.8870   44.2670 O.2   901  INN901     -0.5395
      4  N         -4.6490   41.4720   43.3770 N.am  901  INN901     -0.2030
      5  O4        -4.8140   40.9290   42.1150 O.3   901  INN901     -0.4026
      6  C4        -3.5500   40.5340   47.8160 C.2   901  INN901      0.2417
      7  O1        -2.9750   41.5930   48.0540 O.2   901  INN901     -0.2733
      8  CA        -3.8640   40.1370   46.3870 C.3   901  INN901      0.0845
      9  CB        -2.5490   39.9940   45.5990 C.3   901  INN901      0.0095
     10  C1        -1.5250   38.9890   46.1340 C.3   901  INN901      0.0005
     11  C2        -2.0800   37.5630   46.0470 C.3   901  INN901      0.0000
     12  C3        -0.2260   39.1330   45.3170 C.3   901  INN901      0.0000
     13  N1        -3.9450   39.6580   48.7430 N.am  901  INN901     -0.1978
     14  C5        -3.8790   40.0680   50.1510 C.3   901  INN901      0.1726
     15  C6        -5.2900   40.1900   50.7730 C.3   901  INN901      0.0270
     16  C7        -6.0460   41.3370   50.0660 C.3   901  INN901      0.0022
     17  C8        -6.0920   38.8610   50.6060 C.3   901  INN901      0.0022
     18  C9        -5.1800   40.5480   52.2760 C.3   901  INN901      0.0022
     19  C10       -3.0270   39.0860   50.9230 C.2   901  INN901      0.2616
     20  O2        -3.2260   37.8750   50.8290 O.2   901  INN901     -0.2715
     21  N2        -2.0710   39.6480   51.6880 N.am  901  INN901     -0.1963
     22  C11       -1.4420   38.7900   52.6780 C.3   901  INN901      0.1728
     23  C13       -2.1280   38.9510   54.0190 C.2   901  INN901      0.2613
     24  O3        -2.4480   40.0650   54.4330 O.2   901  INN901     -0.2715
     25  C12        0.0420   39.1380   52.8740 C.3   901  INN901      0.0334
     26  N4        -2.8200   37.7350   58.3160 N.3   901  INN901     -0.1294
     27  C15       -2.0400   37.9000   57.0880 C.3   901  INN901      0.1327
     28  C14       -3.0310   37.9720   55.9310 C.3   901  INN901      0.1356
     29  N3        -2.3340   37.8090   54.6630 N.am  901  INN901     -0.2024
@<TRIPOS>BOND
     1     5     4    1
     2     4     2   am
     3     3     2    2
     4     2     1    1
     5    12    10    1
     6     9    10    1
     7     9     8    1
     8     1     8    1
     9    11    10    1
    10     8     6    1
    11     6     7    2
    12     6    13   am
    13    13    14    1
    14    16    15    1
    15    14    15    1
    16    14    19    1
    17    17    15    1
    18    15    18    1
    19    20    19    2
    20    19    21   am
    21    21    22    1
    22    22    25    1
    23    22    23    1
    24    23    24    2
    25    23    29   am
    26    29    28    1
    27    28    27    1
    28    27    26    1
