@<TRIPOS>MOLECULE
2i47_KGY_C_1.pdb
 35 37 0 0 0
SMALL
GASTEIGER

@<TRIPOS>ATOM
      1  S1        19.6150   64.4160    8.4560 S.O2  1001  KGY1001     0.0672
      2  C2        18.8360   62.9090    8.6800 C.ar  1001  KGY1001     0.1715
      3  O3        19.3040   65.1950    9.6140 O.2   1001  KGY1001    -0.1526
      4  O4        19.2390   65.0240    7.1960 O.2   1001  KGY1001    -0.1526
      5  C5        17.9090   62.2750    7.8530 C.ar  1001  KGY1001     0.1192
      6  C6        19.0330   62.0600    9.7780 C.ar  1001  KGY1001     0.1729
      7  N7        17.5870   61.0990    8.4630 N.ar  1001  KGY1001    -0.0803
      8  C8        17.3370   62.7070    6.5730 C.3   1001  KGY1001     0.0571
      9  O9        18.2480   60.9780    9.5910 O.2   1001  KGY1001    -0.3567
     10  C10       19.8970   62.2150   10.9620 C.3   1001  KGY1001     0.0768
     11  N11       21.2060   64.0140    8.3910 N.3   1001  KGY1001    -0.1554
     12  C12       22.1380   64.4400    9.4350 C.3   1001  KGY1001     0.0962
     13  C13       23.3260   65.2060    8.8250 C.3   1001  KGY1001     0.0269
     14  C14       23.9830   64.5200    7.5870 C.3   1001  KGY1001     0.0653
     15  C15       22.9260   63.9260    6.5880 C.3   1001  KGY1001     0.0269
     16  C16       21.7350   63.2210    7.2710 C.3   1001  KGY1001     0.0962
     17  C17       24.9650   63.4470    8.1140 C.2   1001  KGY1001     0.0878
     18  C18       24.8000   65.6510    6.9800 C.3   1001  KGY1001     0.1618
     19  O19       25.7330   63.7250    9.0290 O.2   1001  KGY1001    -0.5395
     20  N20       24.9200   62.2450    7.5060 N.am  1001  KGY1001    -0.2029
     21  S21       25.6070   65.5720    5.4130 S.O2  1001  KGY1001     0.0090
     22  O22       25.6920   66.9400    5.0030 O.2   1001  KGY1001    -0.1686
     23  O23       24.8450   64.7100    4.5540 O.2   1001  KGY1001    -0.1686
     24  C24       27.2760   64.9970    5.5120 C.ar  1001  KGY1001     0.1059
     25  C25       27.6630   63.8120    4.8050 C.ar  1001  KGY1001     0.0215
     26  C26       29.0190   63.3760    4.8710 C.ar  1001  KGY1001     0.0383
     27  C27       29.9650   64.1170    5.6450 C.ar  1001  KGY1001     0.1401
     28  C28       29.5600   65.3090    6.3620 C.ar  1001  KGY1001     0.0383
     29  C29       28.2080   65.7460    6.2970 C.ar  1001  KGY1001     0.0215
     30  O30       31.2890   63.6240    5.6520 O.3   1001  KGY1001    -0.4612
     31  C31       32.3940   64.5680    5.6080 C.3   1001  KGY1001     0.2811
     32  C32       32.5310   65.2180    4.2860 C.1   1001  KGY1001    -0.0439
     33  C33       32.6240   65.7850    3.2290 C.1   1001  KGY1001    -0.0864
     34  C34       32.7820   66.4270    1.9370 C.3   1001  KGY1001     0.0901
     35  O35       25.7500   61.2320    7.8910 O.3   1001  KGY1001    -0.4026
@<TRIPOS>BOND
     1    34    33    1
     2    33    32    3
     3    32    31    1
     4    23    21    2
     5    25    26   ar
     6    25    24   ar
     7    26    27   ar
     8    22    21    2
     9    21    24    1
    10    21    18    1
    11    24    29   ar
    12    31    30    1
    13    27    30    1
    14    27    28   ar
    15    29    28   ar
    16     8     5    1
    17    15    16    1
    18    15    14    1
    19    18    14    1
    20     4     1    2
    21    16    11    1
    22    20    35    1
    23    20    17   am
    24    14    17    1
    25    14    13    1
    26     5     7   ar
    27     5     2   ar
    28    17    19    2
    29    11     1    1
    30    11    12    1
    31     1     2    1
    32     1     3    2
    33     7     9   ar
    34     2     6   ar
    35    13    12    1
    36     9     6   ar
    37     6    10    1
