@<TRIPOS>MOLECULE
2i4d_QFI_B_1.pdb
 45 48 0 0 0
SMALL
GASTEIGER

@<TRIPOS>ATOM
      1  C         11.8880   18.1870   18.3200 C.3   300  QFI300      0.1016
      2  O         10.7650   18.5040   20.4450 O.3   300  QFI300     -0.3265
      3  C5        12.7890   19.0500   19.2100 C.3   300  QFI300      0.2048
      4  O4        12.7450   20.4310   18.8200 O.3   300  QFI300     -0.4345
      5  C4        13.8170   20.9230   18.1820 C.2   300  QFI300      0.4211
      6  N1        13.5720   22.2150   17.8840 N.am  300  QFI300     -0.1675
      7  C6        14.5400   23.0230   17.1870 C.3   300  QFI300      0.1347
      8  C7        14.8430   24.2050   18.1340 C.3   300  QFI300      0.1898
      9  C15       16.0080   25.0840   17.6070 C.3   300  QFI300      0.1304
     10  N2        17.2520   24.2810   17.5830 N.3   300  QFI300     -0.1529
     11  C16       18.2170   24.9380   18.4890 C.3   300  QFI300      0.0958
     12  C17       18.2920   24.2540   19.8790 C.3   300  QFI300      0.0178
     13  C24       17.3970   23.0000   19.9170 C.3   300  QFI300      0.0015
     14  C25       19.7320   23.7940   20.1280 C.3   300  QFI300      0.0015
     15  S         17.8980   24.1240   16.0130 S.O2  300  QFI300      0.0634
     16  C18       18.7970   25.5560   15.5710 C.ar  300  QFI300      0.1224
     17  C19       18.1530   26.6210   14.9190 C.ar  300  QFI300      0.0230
     18  C20       18.8750   27.7800   14.5790 C.ar  300  QFI300      0.0383
     19  C21       20.2390   27.8860   14.8860 C.ar  300  QFI300      0.1388
     20  O1        20.9390   29.0520   14.5460 O.3   300  QFI300     -0.4714
     21  C26       22.3110   29.1180   14.9730 C.3   300  QFI300      0.2525
     22  C22       20.8840   26.8120   15.5340 C.ar  300  QFI300      0.0383
     23  C23       20.1640   25.6510   15.8760 C.ar  300  QFI300      0.0230
     24  O7        16.7850   23.9020   15.0420 O.2   300  QFI300     -0.1528
     25  O8        18.8160   22.9420   15.9990 O.2   300  QFI300     -0.1528
     26  O6        13.6600   24.9760   18.2350 O.3   300  QFI300     -0.2197
     27  C8        13.9410   23.5430   15.8580 C.3   300  QFI300      0.0508
     28  C9        13.3360   22.4110   15.0340 C.ar  300  QFI300     -0.0202
     29  C10       14.1720   21.5410   14.3040 C.ar  300  QFI300     -0.0011
     30  C12       13.6060   20.4980   13.5440 C.ar  300  QFI300      0.0366
     31  C14       12.2020   20.3270   13.5130 C.ar  300  QFI300      0.1392
     32  O40       11.6400   19.2980   12.7640 O.3   300  QFI300     -0.4676
     33  C41       11.9150   18.0090   13.2920 C.3   300  QFI300      0.2625
     34  P42       11.0470   16.7420   12.3170 P.3   300  QFI300      0.1615
     35  O45        9.4740   17.0070   12.3670 O.3   300  QFI300     -0.3547
     36  O44       11.3580   15.4140   12.8920 O.3   300  QFI300     -0.3547
     37  O43       11.5320   16.8010   10.7980 O.2   300  QFI300     -0.4564
     38  C13       11.3700   21.1990   14.2470 C.ar  300  QFI300      0.0366
     39  C11       11.9370   22.2400   15.0050 C.ar  300  QFI300     -0.0011
     40  O5        14.8380   20.3070   17.9020 O.2   300  QFI300     -0.2246
     41  C3        12.1230   18.9920   20.6050 C.3   300  QFI300      0.1884
     42  C27       10.5480   18.2190   19.0560 C.3   300  QFI300      0.2388
     43  O9         9.7560   19.2330   18.4350 O.3   300  QFI300     -0.3304
     44  C2        10.0700   19.2190   17.0400 C.3   300  QFI300      0.1451
     45  C1        11.5620   18.8440   16.9610 C.3   300  QFI300      0.0409
@<TRIPOS>BOND
     1    37    34    2
     2    34    35    1
     3    34    36    1
     4    34    33    1
     5    32    33    1
     6    32    31    1
     7    31    30   ar
     8    31    38   ar
     9    30    29   ar
    10    38    39   ar
    11    29    28   ar
    12    20    19    1
    13    20    21    1
    14    18    19   ar
    15    18    17   ar
    16    19    22   ar
    17    17    16   ar
    18    39    28   ar
    19    28    27    1
    20    24    15    2
    21    22    23   ar
    22    16    23   ar
    23    16    15    1
    24    27     7    1
    25    25    15    2
    26    15    10    1
    27    45    44    1
    28    45     1    1
    29    44    43    1
    30     7     6    1
    31     7     8    1
    32    10     9    1
    33    10    11    1
    34     9     8    1
    35     6     5   am
    36    40     5    2
    37     8    26    1
    38     5     4    1
    39     1    42    1
    40     1     3    1
    41    43    42    1
    42    11    12    1
    43     4     3    1
    44    42     2    1
    45     3    41    1
    46    12    13    1
    47    12    14    1
    48     2    41    1
