@<TRIPOS>MOLECULE
2i4g_UA1_A_1.pdb
 37 38 0 0 0
SMALL
GASTEIGER

@<TRIPOS>ATOM
      1  O50        4.5830   33.3890   23.7340 O.2   401  UA1401     -0.2246
      2  C49        4.2160   34.3990   24.3290 C.2   401  UA1401      0.4213
      3  O51        2.9450   35.0090   23.9770 O.3   401  UA1401     -0.4408
      4  C52        1.8880   34.3270   23.2890 C.3   401  UA1401      0.1379
      5  C55        0.7420   35.3250   23.2180 C.3   401  UA1401      0.0437
      6  C54        2.3630   33.9400   21.8830 C.3   401  UA1401      0.0437
      7  C53        1.4180   33.1110   24.0950 C.3   401  UA1401      0.0437
      8  N32        4.9200   34.9850   25.2990 N.am  401  UA1401     -0.1607
      9  C31        6.2000   34.4640   25.7440 C.3   401  UA1401      0.1804
     10  C34        6.9000   35.6670   26.3690 C.3   401  UA1401      0.0575
     11  C37        7.6420   36.5370   25.3730 C.ar  401  UA1401     -0.0198
     12  C39        7.0320   37.6720   24.8490 C.ar  401  UA1401     -0.0009
     13  C42        7.7140   38.4780   23.9380 C.ar  401  UA1401      0.0417
     14  C38        9.0200   38.1610   23.5580 C.ar  401  UA1401      0.1957
     15  O47        9.6820   38.9310   22.6880 O.3   401  UA1401     -0.2866
     16  C41        9.6370   37.0300   24.0870 C.ar  401  UA1401      0.0417
     17  C40        8.9480   36.2250   24.9950 C.ar  401  UA1401     -0.0009
     18  C28        5.8770   33.4860   26.8360 C.2   401  UA1401      0.2621
     19  O30        4.7990   33.4990   27.4100 O.2   401  UA1401     -0.2715
     20  N19        6.8090   32.5960   27.1320 N.am  401  UA1401     -0.1960
     21  C11        6.5970   31.5900   28.1610 C.3   401  UA1401      0.1771
     22  C20        7.9450   31.2640   28.7520 C.2   401  UA1401      0.2616
     23  N22        8.0100   31.0000   30.0610 N.am  401  UA1401     -0.2021
     24  C23        9.1780   30.6540   30.8730 C.3   401  UA1401      0.1386
     25  O21        8.9280   31.2460   28.0330 O.2   401  UA1401     -0.2715
     26  C66        5.9810   30.3560   27.4600 C.3   401  UA1401      0.0574
     27  C7         6.4400   29.9600   26.0590 C.ar  401  UA1401     -0.0199
     28  C4         5.7480   30.4030   24.9260 C.ar  401  UA1401     -0.0028
     29  C2         6.1520   30.0490   23.6280 C.ar  401  UA1401      0.0176
     30  C3         7.5560   29.1340   25.8580 C.ar  401  UA1401     -0.0028
     31  C6         7.9360   28.7910   24.5610 C.ar  401  UA1401      0.0176
     32  C5         7.2710   29.2320   23.4270 C.ar  401  UA1401      0.0874
     33  N9         7.6880   28.8640   22.1820 N.pl3 401  UA1401     -0.1365
     34  S14        7.2680   27.4570   21.4740 S.3   401  UA1401     -0.1124
     35  O15        7.8540   26.3100   22.2190 O.3   401  UA1401     -0.2891
     36  O16        7.7750   27.4950   20.0950 O.3   401  UA1401     -0.2891
     37  O17        5.7870   27.5020   21.5960 O.3   401  UA1401     -0.2891
@<TRIPOS>BOND
     1    36    34    1
     2    34    37    1
     3    34    33    1
     4    34    35    1
     5     6     4    1
     6    33    32    1
     7    15    14    1
     8     5     4    1
     9     4     3    1
    10     4     7    1
    11    32    29   ar
    12    32    31   ar
    13    14    13   ar
    14    14    16   ar
    15    29    28   ar
    16     1     2    2
    17    13    12   ar
    18     3     2    1
    19    16    17   ar
    20     2     8   am
    21    31    30   ar
    22    12    11   ar
    23    28    27   ar
    24    17    11   ar
    25     8     9    1
    26    11    10    1
    27     9    10    1
    28     9    18    1
    29    30    27   ar
    30    27    26    1
    31    18    20   am
    32    18    19    2
    33    20    21    1
    34    26    21    1
    35    25    22    2
    36    21    22    1
    37    22    23   am
    38    23    24    1
