@<TRIPOS>MOLECULE
2i4h_UA1_A_1.pdb
 37 38 0 0 0
SMALL
GASTEIGER

@<TRIPOS>ATOM
      1  O50       23.9890    1.8890   34.7170 O.2   401  UA1401     -0.2246
      2  C49       23.3720    2.7460   35.3090 C.2   401  UA1401      0.4213
      3  O51       23.9730    3.5110   36.4030 O.3   401  UA1401     -0.4408
      4  C52       25.3380    3.4520   36.8040 C.3   401  UA1401      0.1379
      5  C55       25.4990    4.3180   38.0530 C.3   401  UA1401      0.0437
      6  C54       25.6850    1.9850   37.1010 C.3   401  UA1401      0.0437
      7  C53       26.1620    4.0650   35.6790 C.3   401  UA1401      0.0437
      8  N32       22.1130    3.0160   35.0130 N.am  401  UA1401     -0.1607
      9  C31       21.3440    2.3580   33.9840 C.3   401  UA1401      0.1804
     10  C34       20.0120    2.1370   34.7000 C.3   401  UA1401      0.0575
     11  C37       18.8870    1.5560   33.8800 C.ar  401  UA1401     -0.0198
     12  C39       18.5580    0.2100   33.9960 C.ar  401  UA1401     -0.0009
     13  C42       17.5160   -0.2890   33.2270 C.ar  401  UA1401      0.0417
     14  C38       16.7990    0.5260   32.3440 C.ar  401  UA1401      0.1957
     15  O47       15.7770    0.0430   31.6070 O.3   401  UA1401     -0.2866
     16  C41       17.1410    1.8720   32.2330 C.ar  401  UA1401      0.0417
     17  C40       18.1830    2.3730   33.0030 C.ar  401  UA1401     -0.0009
     18  C28       21.2220    3.1510   32.7060 C.2   401  UA1401      0.2621
     19  O30       21.1140    4.3700   32.7200 O.2   401  UA1401     -0.2715
     20  N19       21.2180    2.4230   31.5840 N.am  401  UA1401     -0.1960
     21  C11       21.0820    3.0070   30.2730 C.3   401  UA1401      0.1771
     22  C20       19.7540    2.6970   29.6770 C.2   401  UA1401      0.2616
     23  N22       19.0380    3.7600   29.2890 N.am  401  UA1401     -0.2021
     24  C23       17.7160    3.8620   28.6720 C.3   401  UA1401      0.1386
     25  O21       19.4610    1.5200   29.5540 O.2   401  UA1401     -0.2715
     26  C66       22.1400    2.3180   29.4140 C.3   401  UA1401      0.0574
     27  C7        22.3260    3.0120   28.0760 C.ar  401  UA1401     -0.0199
     28  C4        21.8410    2.3590   26.9510 C.ar  401  UA1401     -0.0028
     29  C2        21.9920    2.9640   25.7180 C.ar  401  UA1401      0.0176
     30  C3        22.9510    4.2550   27.9730 C.ar  401  UA1401     -0.0028
     31  C6        23.0840    4.8260   26.7020 C.ar  401  UA1401      0.0176
     32  C5        22.6160    4.1860   25.5520 C.ar  401  UA1401      0.0874
     33  N9        22.7230    4.7240   24.2940 N.pl3 401  UA1401     -0.1365
     34  S14       23.9550    4.3420   23.3180 S.3   401  UA1401     -0.1124
     35  O15       25.2240    4.8300   23.8860 O.3   401  UA1401     -0.2891
     36  O16       23.7140    4.9760   21.9940 O.3   401  UA1401     -0.2891
     37  O17       23.9270    2.8760   23.2420 O.3   401  UA1401     -0.2891
@<TRIPOS>BOND
     1    36    34    1
     2    37    34    1
     3    34    35    1
     4    34    33    1
     5    33    32    1
     6    32    29   ar
     7    32    31   ar
     8    29    28   ar
     9    31    30   ar
    10    28    27   ar
    11    30    27   ar
    12    27    26    1
    13    24    23    1
    14    23    22   am
    15    26    21    1
    16    25    22    2
    17    22    21    1
    18    21    20    1
    19    20    18   am
    20    15    14    1
    21    16    14   ar
    22    16    17   ar
    23    14    13   ar
    24    18    19    2
    25    18     9    1
    26    17    11   ar
    27    13    12   ar
    28    11    12   ar
    29    11    10    1
    30     9    10    1
    31     9     8    1
    32     1     2    2
    33     8     2   am
    34     2     3    1
    35     7     4    1
    36     3     4    1
    37     4     6    1
    38     4     5    1
