@<TRIPOS>MOLECULE
2i4i_AMP_A_1.pdb
 23 25 0 0 0
SMALL
GASTEIGER

@<TRIPOS>ATOM
      1  P         21.6070  -22.7360   18.2570 P.3   600  AMP600      0.5327
      2  O1P       21.4090  -23.0250   19.7320 O.3   600  AMP600     -0.1145
      3  O2P       22.8590  -23.4000   17.8030 O.2   600  AMP600     -0.2224
      4  O3P       21.3170  -21.2950   17.8440 O.3   600  AMP600     -0.1145
      5  O5'       20.3200  -23.4180   17.5290 O.3   600  AMP600     -0.2675
      6  C5'       20.0560  -24.8390   17.4690 C.3   600  AMP600      0.1860
      7  C4'       18.9560  -25.1870   16.4600 C.3   600  AMP600      0.1823
      8  O4'       17.7180  -24.5980   16.8300 O.3   600  AMP600     -0.3135
      9  C3'       19.2400  -24.6450   15.0560 C.3   600  AMP600      0.2184
     10  O3'       18.9210  -25.6680   14.1190 O.3   600  AMP600     -0.2174
     11  C2'       18.2410  -23.5430   14.8530 C.3   600  AMP600      0.2570
     12  O2'       17.9100  -23.3500   13.4750 O.3   600  AMP600     -0.2130
     13  C1'       17.0740  -24.0470   15.6850 C.3   600  AMP600      0.3186
     14  N9        16.1820  -22.9870   16.1890 N.pl3 600  AMP600     -0.1439
     15  C8        16.5410  -21.7890   16.7410 C.3   600  AMP600      0.3377
     16  N7        15.4500  -21.0890   17.1080 N.2   600  AMP600     -0.2095
     17  C5        14.3610  -21.8370   16.7950 C.2   600  AMP600      0.2526
     18  C6        12.8920  -21.7000   16.9340 C.2   600  AMP600      0.4393
     19  N6        12.3290  -20.5890   17.4840 N.pl3 600  AMP600      0.2180
     20  N1        12.1090  -22.7110   16.4570 N.2   600  AMP600      0.0021
     21  C2        12.6370  -23.8330   15.8980 C.3   600  AMP600      0.5254
     22  N3        13.9540  -24.0430   15.7590 N.2   600  AMP600     -0.0055
     23  C4        14.8470  -23.0880   16.1870 C.2   600  AMP600      0.3518
@<TRIPOS>BOND
     1    12    11    1
     2    10     9    1
     3    11     9    1
     4    11    13    1
     5     9     7    1
     6    13    14    1
     7    13     8    1
     8    22    21    1
     9    22    23    2
    10    21    20    1
    11    23    14    1
    12    23    17    1
    13    14    15    1
    14    20    18    2
    15     7     8    1
    16     7     6    1
    17    15    16    1
    18    17    18    1
    19    17    16    2
    20    18    19    1
    21     6     5    1
    22     5     1    1
    23     3     1    2
    24     4     1    1
    25     1     2    1
