@<TRIPOS>MOLECULE
2i4j_DRJ_A_1.pdb
 33 35 0 0 0
SMALL
GASTEIGER

@<TRIPOS>ATOM
      1  CAB       20.8460   20.1950   21.2420 C.3   999  DRJ999      0.0043
      2  CAO       21.1950   19.3430   20.0180 C.3   999  DRJ999      0.0513
      3  CBG       19.9780   18.6660   19.3810 C.3   999  DRJ999      0.2252
      4  CAZ       19.3140   17.7690   20.4310 C.2   999  DRJ999      0.4000
      5  OAE       20.0500   16.9290   20.9940 O.co2 999  DRJ999     -0.2418
      6  OAD       18.0950   17.9350   20.6490 O.co2 999  DRJ999     -0.2418
      7  CAC       18.9850   19.7150   18.8690 C.3   999  DRJ999      0.0554
      8  OAX       20.4570   17.8710   18.2870 O.3   999  DRJ999     -0.4718
      9  CBB       19.5840   17.2500   17.4440 C.ar  999  DRJ999      0.1390
     10  CAK       18.3590   16.7520   17.8890 C.ar  999  DRJ999      0.0366
     11  CAI       17.4790   16.1500   16.9980 C.ar  999  DRJ999     -0.0011
     12  CAJ       19.9300   17.1230   16.1030 C.ar  999  DRJ999      0.0366
     13  CAH       19.0500   16.5210   15.2060 C.ar  999  DRJ999     -0.0011
     14  CBA       17.8220   16.0450   15.6510 C.ar  999  DRJ999     -0.0203
     15  CAT       16.8100   15.5160   14.6370 C.3   999  DRJ999      0.0479
     16  CAV       15.8270   16.6310   14.2680 C.3   999  DRJ999      0.1008
     17  NBF       15.2460   16.3560   12.9500 N.pl3 999  DRJ999     -0.2528
     18  CAU       13.9130   15.7340   12.8380 C.3   999  DRJ999      0.0961
     19  CAS       13.5730   14.9680   14.1190 C.3   999  DRJ999      0.0216
     20  CAR       12.1800   14.3320   14.0800 C.3   999  DRJ999      0.0018
     21  CAQ       11.8140   13.8120   15.4750 C.3   999  DRJ999      0.0001
     22  CAP       10.3230   13.4700   15.5750 C.3   999  DRJ999      0.0000
     23  CAN        9.9320   13.2980   17.0470 C.3   999  DRJ999      0.0000
     24  CAA        8.5590   12.6350   17.1800 C.3   999  DRJ999      0.0000
     25  CBC       15.9860   16.6510   11.8880 C.2   999  DRJ999      0.3479
     26  OAY       17.2570   17.1370   11.9940 O.2   999  DRJ999     -0.4141
     27  CBE       17.7260   17.2810   10.7210 C.2   999  DRJ999      0.1750
     28  CAM       18.9350   17.7280   10.2130 C.2   999  DRJ999      0.0188
     29  CAG       19.1360   17.7740    8.8310 C.3   999  DRJ999      0.0554
     30  CAF       18.1210   17.3710    7.9770 C.2   999  DRJ999     -0.0186
     31  CAL       16.9030   16.9200    8.4950 C.2   999  DRJ999      0.0311
     32  CBD       16.7020   16.8730    9.8640 C.2   999  DRJ999      0.1700
     33  NAW       15.6620   16.4970   10.6100 N.2   999  DRJ999     -0.3515
@<TRIPOS>BOND
     1    30    31    2
     2    30    29    1
     3    31    32    1
     4    29    28    1
     5    32    33    2
     6    32    27    1
     7    28    27    2
     8    33    25    2
     9    27    26    1
    10    25    26    1
    11    25    17    1
    12    18    17    1
    13    18    19    1
    14    17    16    1
    15    20    19    1
    16    20    21    1
    17    16    15    1
    18    15    14    1
    19    13    14   ar
    20    13    12   ar
    21    21    22    1
    22    22    23    1
    23    14    11   ar
    24    12     9   ar
    25    11    10   ar
    26    23    24    1
    27     9    10   ar
    28     9     8    1
    29     8     3    1
    30     7     3    1
    31     3     2    1
    32     3     4    1
    33     2     1    1
    34     4     6   ar
    35     4     5   ar
