@<TRIPOS>MOLECULE
2i4m_PSD_B_1.pdb
 30 33 0 0 0
SMALL
GASTEIGER

@<TRIPOS>ATOM
      1  CB        35.2400   72.4260   20.6080 C.3   439  PSD439      0.0282
      2  CG        33.7940   71.9970   20.4760 C.3   439  PSD439      0.0208
      3  C         35.0400   74.4050   21.9150 C.2   439  PSD439      0.2660
      4  O         34.1500   74.9360   22.5710 O.2   439  PSD439     -0.2714
      5  N         34.3310   72.2360   22.7640 N.3   439  PSD439     -0.2102
      6  CD        33.2830   71.7830   21.8920 C.3   439  PSD439      0.0893
      7  CA        35.3350   72.9490   22.0260 C.3   439  PSD439      0.1509
      8  N10       35.8350   74.9840   21.0140 N.am  439  PSD439     -0.1059
      9  P         35.8530   76.5910   20.5770 P.3   439  PSD439      0.4763
     10  O1P       35.4960   77.3900   21.8090 O.3   439  PSD439     -0.1226
     11  O2P       37.1900   76.7840   19.8900 O.2   439  PSD439     -0.2321
     12  O5'       34.6930   76.8510   19.4860 O.3   439  PSD439     -0.2749
     13  C5'       34.7910   76.1340   18.2660 C.3   439  PSD439      0.1852
     14  C4'       34.1180   76.9200   17.1650 C.3   439  PSD439      0.1823
     15  O4'       32.8470   77.3620   17.6280 O.3   439  PSD439     -0.3135
     16  C1'       32.5620   78.6920   17.1490 C.3   439  PSD439      0.3186
     17  N9        32.1440   79.6450   18.2370 N.pl3 439  PSD439     -0.1439
     18  C4        31.1990   80.5870   18.0820 C.2   439  PSD439      0.3518
     19  N3        30.4180   80.9500   17.0190 N.2   439  PSD439     -0.0055
     20  C2        29.5360   81.9710   17.1300 C.3   439  PSD439      0.5254
     21  N1        29.3920   82.6600   18.2790 N.2   439  PSD439      0.0021
     22  C6        30.1470   82.3300   19.3620 C.2   439  PSD439      0.4393
     23  N6        29.9860   83.0330   20.4980 N.pl3 439  PSD439      0.2180
     24  C5        31.0740   81.2740   19.2940 C.2   439  PSD439      0.2526
     25  N7        31.9560   80.7130   20.1680 N.2   439  PSD439     -0.2095
     26  C8        32.6070   79.7180   19.5070 C.3   439  PSD439      0.3377
     27  C2'       33.8120   79.1830   16.4230 C.3   439  PSD439      0.2570
     28  O2'       33.6130   79.1690   15.0030 O.3   439  PSD439     -0.2130
     29  C3'       34.8830   78.1810   16.8090 C.3   439  PSD439      0.2184
     30  O3'       35.8200   77.9530   15.7500 O.3   439  PSD439     -0.2174
@<TRIPOS>BOND
     1    28    27    1
     2    30    29    1
     3    27    29    1
     4    27    16    1
     5    29    14    1
     6    19    20    1
     7    19    18    2
     8    20    21    1
     9    16    15    1
    10    16    17    1
    11    14    15    1
    12    14    13    1
    13    18    17    1
    14    18    24    1
    15    17    26    1
    16    13    12    1
    17    21    22    2
    18    24    22    1
    19    24    25    2
    20    22    23    1
    21    12     9    1
    22    26    25    1
    23    11     9    2
    24     2     1    1
    25     2     6    1
    26     9     8    1
    27     9    10    1
    28     1     7    1
    29     8     3   am
    30     6     5    1
    31     3     7    1
    32     3     4    2
    33     7     5    1
