@<TRIPOS>MOLECULE
2i4n_5CA_A_1.pdb
 29 31 0 0 0
SMALL
GASTEIGER

@<TRIPOS>ATOM
      1  N         78.6290   -2.6030   23.2450 N.3   439  5CA439     -0.1220
      2  CA        77.3870   -3.1250   22.7390 C.3   439  5CA439      0.1825
      3  CB        77.4960   -2.5660   21.3600 C.3   439  5CA439      0.0971
      4  SG        76.4530   -1.1460   21.4340 S.3   439  5CA439     -0.0800
      5  C         77.3550   -4.6070   22.5270 C.2   439  5CA439      0.2807
      6  O         78.3640   -5.1770   22.1200 O.2   439  5CA439     -0.2701
      7  N3S       76.1790   -5.2260   22.7570 N.am  439  5CA439     -0.0576
      8  S         75.9350   -6.7450   22.5230 S.3   439  5CA439      0.0852
      9  O1S       77.1850   -7.5400   22.6990 O.3   439  5CA439     -0.0508
     10  O2S       74.7890   -7.1830   23.3760 O.3   439  5CA439     -0.0508
     11  O5'       75.5430   -7.0600   20.9670 O.3   439  5CA439     -0.2230
     12  C5'       74.5140   -6.3090   20.3530 C.3   439  5CA439      0.2064
     13  C4'       73.7420   -7.2370   19.4430 C.3   439  5CA439      0.1842
     14  O4'       74.6130   -7.8470   18.5080 O.3   439  5CA439     -0.3135
     15  C3'       73.1470   -8.3910   20.2000 C.3   439  5CA439      0.2185
     16  O3'       71.9050   -8.0090   20.8030 O.3   439  5CA439     -0.2174
     17  C2'       73.0580   -9.4680   19.1320 C.3   439  5CA439      0.2570
     18  O2'       71.7890   -9.5380   18.4780 O.3   439  5CA439     -0.2130
     19  C1'       74.1150   -9.1080   18.1200 C.3   439  5CA439      0.3186
     20  N9        75.1880  -10.0930   18.2940 N.pl3 439  5CA439     -0.1439
     21  C8        75.9440  -10.2530   19.3900 C.3   439  5CA439      0.3377
     22  N7        76.8120  -11.2730   19.1840 N.2   439  5CA439     -0.2095
     23  C5        76.5820  -11.7560   17.9470 C.2   439  5CA439      0.2526
     24  C6        77.1680  -12.8460   17.1190 C.2   439  5CA439      0.4393
     25  N6        78.1780  -13.6140   17.6000 N.pl3 439  5CA439      0.2180
     26  N1        76.6820  -13.0460   15.8670 N.2   439  5CA439      0.0021
     27  C2        75.6870  -12.2860   15.3950 C.3   439  5CA439      0.5254
     28  N3        75.1380  -11.3020   16.1250 N.2   439  5CA439     -0.0055
     29  C4        75.5580  -11.0080   17.3880 C.2   439  5CA439      0.3518
@<TRIPOS>BOND
     1    27    26    1
     2    27    28    1
     3    26    24    2
     4    28    29    2
     5    24    25    1
     6    24    23    1
     7    29    23    1
     8    29    20    1
     9    23    22    2
    10    19    20    1
    11    19    14    1
    12    19    17    1
    13    20    21    1
    14    18    17    1
    15    14    13    1
    16    17    15    1
    17    22    21    1
    18    13    15    1
    19    13    12    1
    20    15    16    1
    21    12    11    1
    22    11     8    1
    23     3     4    1
    24     3     2    1
    25     6     5    2
    26     8     9    1
    27     8     7    1
    28     8    10    1
    29     5     2    1
    30     5     7   am
    31     2     1    1
