@<TRIPOS>MOLECULE
2i4o_ATP_A_1.pdb
 31 33 0 0 0
SMALL
GASTEIGER

@<TRIPOS>ATOM
      1  PG        -0.9310  -37.6620  -27.8000 P.3   442  ATP442      0.5373
      2  O1G       -1.6590  -38.9010  -27.2740 O.3   442  ATP442     -0.1143
      3  O2G       -1.7730  -36.7920  -28.7160 O.2   442  ATP442     -0.2221
      4  O3G        0.4800  -37.8030  -28.3020 O.3   442  ATP442     -0.1143
      5  PB        -0.7290  -35.3080  -26.1720 P.3   442  ATP442      0.2277
      6  O1B       -1.6550  -34.6250  -27.1660 O.2   442  ATP442     -0.5168
      7  O2B        0.7120  -34.8640  -26.0520 O.3   442  ATP442     -0.4368
      8  O3B       -0.7170  -36.8970  -26.3920 O.3   442  ATP442     -0.2258
      9  PA        -1.5090  -33.9730  -23.7550 P.3   442  ATP442      0.2189
     10  O1A       -2.0430  -32.7520  -24.4460 O.2   442  ATP442     -0.5170
     11  O2A       -0.2280  -33.8850  -22.9810 O.3   442  ATP442     -0.4371
     12  O3A       -1.5100  -35.2300  -24.7640 O.3   442  ATP442     -0.2700
     13  O5'       -2.7210  -34.4600  -22.8150 O.3   442  ATP442     -0.3112
     14  C5'       -2.4630  -35.1510  -21.6110 C.3   442  ATP442      0.1813
     15  C4'       -3.1540  -36.5030  -21.6290 C.3   442  ATP442      0.1821
     16  O4'       -4.4440  -36.4830  -22.2340 O.3   442  ATP442     -0.3135
     17  C3'       -2.3470  -37.4830  -22.4460 C.3   442  ATP442      0.2184
     18  O3'       -1.3210  -38.0490  -21.6400 O.3   442  ATP442     -0.2174
     19  C2'       -3.3680  -38.5190  -22.8630 C.3   442  ATP442      0.2570
     20  O2'       -3.3890  -39.5200  -21.8340 O.3   442  ATP442     -0.2130
     21  C1'       -4.6880  -37.7410  -22.9200 C.3   442  ATP442      0.3186
     22  N9        -5.0650  -37.5650  -24.3540 N.pl3 442  ATP442     -0.1439
     23  C8        -4.5200  -36.6720  -25.2000 C.3   442  ATP442      0.3377
     24  N7        -5.0420  -36.7890  -26.4470 N.2   442  ATP442     -0.2095
     25  C5        -5.9580  -37.7850  -26.4070 C.2   442  ATP442      0.2526
     26  C6        -6.9040  -38.3940  -27.3720 C.2   442  ATP442      0.4393
     27  N6        -6.9580  -37.9560  -28.6470 N.pl3 442  ATP442      0.2180
     28  N1        -7.7090  -39.3880  -26.9460 N.2   442  ATP442      0.0021
     29  C2        -7.6730  -39.8260  -25.6690 C.3   442  ATP442      0.5254
     30  N3        -6.8530  -39.3060  -24.7190 N.2   442  ATP442     -0.0055
     31  C4        -5.9640  -38.3000  -25.0310 C.2   442  ATP442      0.3518
@<TRIPOS>BOND
     1     3     1    2
     2    27    26    1
     3     4     1    1
     4     1     2    1
     5     1     8    1
     6    26    28    2
     7    26    25    1
     8     6     5    2
     9    28    29    1
    10    24    25    2
    11    24    23    1
    12    25    31    1
    13     8     5    1
    14     5     7    1
    15     5    12    1
    16    29    30    1
    17    23    22    1
    18    31    30    2
    19    31    22    1
    20    12     9    1
    21    10     9    2
    22    22    21    1
    23     9    11    1
    24     9    13    1
    25    21    19    1
    26    21    16    1
    27    19    17    1
    28    19    20    1
    29    13    14    1
    30    17    18    1
    31    17    15    1
    32    16    15    1
    33    15    14    1
