@<TRIPOS>MOLECULE
2i4p_DRH_A_1.pdb
 33 35 0 0 0
SMALL
GASTEIGER

@<TRIPOS>ATOM
      1  CAB       19.9570   20.9670   17.2010 C.3   999  DRH999      0.0043
      2  CAO       19.0550   19.9690   17.9360 C.3   999  DRH999      0.0513
      3  CBG       19.8090   18.7160   18.3920 C.3   999  DRH999      0.2252
      4  CAZ       18.9360   17.9330   19.3800 C.2   999  DRH999      0.4000
      5  OAE       19.4040   17.6920   20.5030 O.co2 999  DRH999     -0.2418
      6  OAD       17.7790   17.6120   18.9950 O.co2 999  DRH999     -0.2418
      7  CAC       21.0940   19.1130   19.1230 C.3   999  DRH999      0.0554
      8  OAX       20.2170   17.9380   17.2560 O.3   999  DRH999     -0.4718
      9  CBB       19.3900   17.1840   16.4650 C.ar  999  DRH999      0.1390
     10  CAK       18.3430   16.4410   16.9850 C.ar  999  DRH999      0.0366
     11  CAI       17.5640   15.6260   16.1510 C.ar  999  DRH999     -0.0011
     12  CAJ       19.6490   17.1360   15.1040 C.ar  999  DRH999      0.0366
     13  CAH       18.8730   16.3230   14.2660 C.ar  999  DRH999     -0.0011
     14  CBA       17.8350   15.5780   14.7930 C.ar  999  DRH999     -0.0203
     15  CAT       17.0370   14.6420   13.8650 C.3   999  DRH999      0.0479
     16  CAV       15.5210   14.7040   14.0440 C.3   999  DRH999      0.1008
     17  NBF       14.8500   15.8340   13.3700 N.pl3 999  DRH999     -0.2528
     18  CAU       13.3900   15.7750   13.2080 C.3   999  DRH999      0.0961
     19  CAS       12.7020   15.1560   14.4280 C.3   999  DRH999      0.0216
     20  CAR       11.2420   14.8350   14.1190 C.3   999  DRH999      0.0018
     21  CAQ       10.5970   14.3020   15.4000 C.3   999  DRH999      0.0001
     22  CAP        9.1610   13.8240   15.1880 C.3   999  DRH999      0.0000
     23  CAN        8.5480   13.4210   16.5270 C.3   999  DRH999      0.0000
     24  CAA        9.4180   12.3890   17.2580 C.3   999  DRH999      0.0000
     25  CBC       15.4700   16.7130   12.5870 C.2   999  DRH999      0.3479
     26  OAY       16.7540   16.6140   12.1140 O.2   999  DRH999     -0.4141
     27  CBE       16.8900   17.6190   11.1970 C.2   999  DRH999      0.1750
     28  CAM       17.9280   17.9980   10.3620 C.2   999  DRH999      0.0188
     29  CAG       17.7640   19.0650    9.4830 C.3   999  DRH999      0.0554
     30  CAF       16.5510   19.7590    9.4430 C.2   999  DRH999     -0.0186
     31  CAL       15.5130   19.3780   10.2800 C.2   999  DRH999      0.0311
     32  CBD       15.6760   18.3100   11.1550 C.2   999  DRH999      0.1700
     33  NAW       14.8440   17.7310   12.0150 N.2   999  DRH999     -0.3515
@<TRIPOS>BOND
     1    30    29    1
     2    30    31    2
     3    29    28    1
     4    31    32    1
     5    28    27    2
     6    32    27    1
     7    32    33    2
     8    27    26    1
     9    33    25    2
    10    26    25    1
    11    25    17    1
    12    18    17    1
    13    18    19    1
    14    17    16    1
    15    15    16    1
    16    15    14    1
    17    20    19    1
    18    20    21    1
    19    13    14   ar
    20    13    12   ar
    21    14    11   ar
    22    12     9   ar
    23    22    21    1
    24    22    23    1
    25    11    10   ar
    26     9    10   ar
    27     9     8    1
    28    23    24    1
    29     1     2    1
    30     8     3    1
    31     2     3    1
    32     3     7    1
    33     3     4    1
    34     6     4   ar
    35     4     5   ar
