@<TRIPOS>MOLECULE
2i4q_UA4_A_1.pdb
 35 38 0 0 0
SMALL
GASTEIGER

@<TRIPOS>ATOM
      1  C5        27.9560  108.9830  132.0880 C.1   336  UA4336      0.2419
      2  C10       24.1540  109.6800  129.8020 C.3   336  UA4336      0.0075
      3  C13       25.4060  105.6210  127.3840 C.ar  336  UA4336      0.0379
      4  C15       23.8990  105.2360  129.0620 C.ar  336  UA4336      0.0878
      5  C22       22.3360  104.8460  130.9370 C.3   336  UA4336      0.1010
      6  C24       21.4500  106.5700  132.4920 C.3   336  UA4336      0.1440
      7  C26       20.3830  108.0910  133.9740 C.3   336  UA4336      0.1741
      8  C28       22.3290  100.8810  127.7930 C.ar  336  UA4336      0.0293
      9  F34       26.2610  100.2030  128.4540 F     336  UA4336     -0.2041
     10  C31       24.9940  100.4610  128.2280 C.ar  336  UA4336      0.1422
     11  C32       24.5540  101.7010  127.9760 C.ar  336  UA4336      0.0293
     12  C30       24.0060   99.3750  128.2520 C.ar  336  UA4336      0.0592
     13  C29       22.7140   99.6730  128.0280 C.ar  336  UA4336      0.1422
     14  F33       21.8620   98.6630  128.0700 F     336  UA4336     -0.2041
     15  C27       23.1090  101.8980  127.7360 C.ar  336  UA4336      0.0264
     16  C18       22.5650  103.3020  127.4680 C.3   336  UA4336      0.2199
     17  C35       21.4140  103.2870  126.4620 C.3   336  UA4336      0.0579
     18  C19       22.0730  103.7830  128.8190 C.2   336  UA4336      0.2697
     19  O21       21.0430  103.2880  129.2750 O.2   336  UA4336     -0.2704
     20  N20       22.7600  104.6800  129.5440 N.am  336  UA4336     -0.2529
     21  C23       21.5500  106.1470  131.0340 C.3   336  UA4336      0.0539
     22  O25       20.3330  107.4330  132.7040 O.3   336  UA4336     -0.3510
     23  C16       24.6460  106.0280  129.8360 C.ar  336  UA4336      0.0146
     24  C14       24.3280  105.0620  127.8040 C.ar  336  UA4336      0.1529
     25  O17       23.5420  104.2050  126.9280 O.3   336  UA4336     -0.4686
     26  C12       26.1250  106.3440  128.0420 C.ar  336  UA4336     -0.0002
     27  C11       25.8500  106.6110  129.2500 C.ar  336  UA4336     -0.0066
     28  C2        26.6100  107.4760  130.2090 C.3   336  UA4336      0.1421
     29  C1        26.4620  108.8590  130.2460 C.2   336  UA4336      0.1122
     30  C9        25.5720  109.6000  129.2740 C.3   336  UA4336      0.0563
     31  C3        27.4970  106.8500  131.2370 C.2   336  UA4336      0.2201
     32  N7        27.6970  105.5100  131.3000 N.pl3 336  UA4336     -0.0962
     33  N4        28.1340  107.6450  132.1200 N.2   336  UA4336     -0.3112
     34  N6        27.1460  109.5750  131.1710 N.2   336  UA4336     -0.3339
     35  N8        28.6180  109.7350  132.9950 N.pl3 336  UA4336     -0.0232
@<TRIPOS>BOND
     1    17    16    1
     2    25    16    1
     3    25    24    1
     4     3    24   ar
     5     3    26   ar
     6    16    15    1
     7    16    18    1
     8    15     8   ar
     9    15    11   ar
    10     8    13   ar
    11    24     4   ar
    12    11    10   ar
    13    13    14    1
    14    13    12   ar
    15    26    27   ar
    16    10    12   ar
    17    10     9    1
    18    18    19    2
    19    18    20   am
    20     4    20    1
    21     4    23   ar
    22    27    23   ar
    23    27    28    1
    24    30     2    1
    25    30    29    1
    26    20     5    1
    27    28    29    1
    28    28    31    1
    29    29    34    2
    30     5    21    1
    31    21     6    1
    32    34     1    2
    33    31    32    1
    34    31    33    2
    35     1    33    2
    36     1    35    1
    37     6    22    1
    38    22     7    1
