@<TRIPOS>MOLECULE
2i4t_UA2_A_1.pdb
 19 21 0 0 0
SMALL
GASTEIGER

@<TRIPOS>ATOM
      1  C2       -65.8720   20.6060    5.5770 C.3   243  UA2243      0.3922
      2  C4       -66.1400   22.9030    5.7330 C.2   243  UA2243      0.1045
      3  C5       -64.7600   23.0650    5.4440 C.2   243  UA2243      0.1884
      4  C6       -63.9650   21.9060    5.2320 C.2   243  UA2243      0.4315
      5  O5'      -66.3160   24.0050    9.2780 O.3   243  UA2243     -0.2188
      6  C5'      -67.6940   23.6570    9.3810 C.3   243  UA2243      0.2020
      7  C4'      -68.6200   24.6390    8.6860 C.3   243  UA2243      0.1389
      8  N4'      -67.9400   25.3130    7.5890 N.3   243  UA2243     -0.2083
      9  C3'      -69.7080   23.8690    8.0050 C.3   243  UA2243      0.2023
     10  O3'      -70.9130   24.6480    8.1700 O.3   243  UA2243     -0.2188
     11  C2'      -69.2150   23.7150    6.5430 C.3   243  UA2243      0.2036
     12  O2'      -70.2680   24.1160    5.6560 O.3   243  UA2243     -0.2185
     13  C1'      -68.0560   24.6720    6.2770 C.3   243  UA2243      0.1309
     14  C9       -66.6740   24.1920    5.9020 C.2   243  UA2243      0.0343
     15  N3       -66.6980   21.6730    5.7940 N.2   243  UA2243     -0.2171
     16  N1       -64.5470   20.6730    5.2970 N.2   243  UA2243     -0.0278
     17  C8       -65.6300   25.1320    5.7340 C.2   243  UA2243      0.0978
     18  N7       -64.4760   24.4240    5.4510 N.2   243  UA2243     -0.2350
     19  N6       -62.6320   22.0240    4.9510 N.pl3 243  UA2243      0.2177
@<TRIPOS>BOND
     1    19     4    1
     2     4    16    2
     3     4     3    1
     4    16     1    1
     5     3    18    2
     6     3     2    1
     7    18    17    1
     8     1    15    1
     9    12    11    1
    10     2    15    2
    11     2    14    1
    12    17    14    2
    13    14    13    1
    14    13    11    1
    15    13     8    1
    16    11     9    1
    17     8     7    1
    18     9    10    1
    19     9     7    1
    20     7     6    1
    21     5     6    1
