@<TRIPOS>MOLECULE
2i4u_DJR_A_1.pdb
 39 42 0 0 0
SMALL
GASTEIGER

@<TRIPOS>ATOM
      1  C         11.9330   18.1930   18.5300 C.3   300  DJR300      0.1016
      2  O         10.9750   18.6370   20.5710 O.3   300  DJR300     -0.3265
      3  C27       10.6190   18.1520   19.2640 C.3   300  DJR300      0.2388
      4  O9         9.8740   19.0730   18.4550 O.3   300  DJR300     -0.3304
      5  C2        10.2060   18.7610   17.1050 C.3   300  DJR300      0.1451
      6  C1        11.7330   18.5690   17.0690 C.3   300  DJR300      0.0409
      7  C3        12.4130   18.7120   20.6440 C.3   300  DJR300      0.1884
      8  C5        13.0000   18.9550   19.2470 C.3   300  DJR300      0.2048
      9  O4        12.8330   20.3150   18.8840 O.3   300  DJR300     -0.4345
     10  C4        13.8740   20.8880   18.2650 C.2   300  DJR300      0.4211
     11  O5        14.9440   20.3500   18.0060 O.2   300  DJR300     -0.2246
     12  N1        13.5430   22.1490   17.9530 N.am  300  DJR300     -0.1675
     13  C6        14.4850   22.9790   17.2570 C.3   300  DJR300      0.1347
     14  C8        13.8460   23.5490   15.9640 C.3   300  DJR300      0.0508
     15  C9        13.3520   22.4150   15.0700 C.ar  300  DJR300     -0.0204
     16  C11       14.2680   21.6910   14.2920 C.ar  300  DJR300     -0.0042
     17  C13       13.8100   20.6370   13.4680 C.ar  300  DJR300     -0.0003
     18  C14       12.4360   20.3110   13.4270 C.ar  300  DJR300     -0.0000
     19  C12       11.5200   21.0450   14.2100 C.ar  300  DJR300     -0.0003
     20  C10       11.9770   22.0960   15.0310 C.ar  300  DJR300     -0.0042
     21  C7        14.9140   24.1050   18.2130 C.3   300  DJR300      0.1898
     22  O6        13.7690   24.7830   18.7080 O.3   300  DJR300     -0.2197
     23  C15       15.7830   25.0870   17.4730 C.3   300  DJR300      0.1304
     24  N2        17.1960   24.7110   17.5250 N.3   300  DJR300     -0.1529
     25  S         17.9350   24.2800   16.0680 S.O2  300  DJR300      0.0634
     26  O8        18.6140   22.9370   16.1780 O.2   300  DJR300     -0.1528
     27  O7        16.8430   24.0530   15.0510 O.2   300  DJR300     -0.1528
     28  C18       18.9290   25.6440   15.5970 C.ar  300  DJR300      0.1224
     29  C23       20.2960   25.7120   15.9050 C.ar  300  DJR300      0.0230
     30  C22       21.0400   26.8490   15.5280 C.ar  300  DJR300      0.0383
     31  C21       20.4160   27.9180   14.8440 C.ar  300  DJR300      0.1388
     32  O1        21.1330   29.0680   14.4650 O.3   300  DJR300     -0.4714
     33  C26       22.5280   29.0970   14.8130 C.3   300  DJR300      0.2525
     34  C20       19.0520   27.8320   14.5430 C.ar  300  DJR300      0.0383
     35  C19       18.3120   26.7050   14.9160 C.ar  300  DJR300      0.0230
     36  C16       18.0430   25.0470   18.6850 C.3   300  DJR300      0.0958
     37  C17       17.8500   24.0480   19.8530 C.3   300  DJR300      0.0178
     38  C25       18.8680   24.3740   20.9590 C.3   300  DJR300      0.0015
     39  C24       18.0740   22.6010   19.3740 C.3   300  DJR300      0.0015
@<TRIPOS>BOND
     1    18    17   ar
     2    18    19   ar
     3    17    16   ar
     4    19    20   ar
     5    16    15   ar
     6    32    33    1
     7    32    31    1
     8    34    31   ar
     9    34    35   ar
    10    31    30   ar
    11    35    28   ar
    12    20    15   ar
    13    27    25    2
    14    15    14    1
    15    30    29   ar
    16    28    29   ar
    17    28    25    1
    18    14    13    1
    19    25    26    2
    20    25    24    1
    21     6     5    1
    22     6     1    1
    23     5     4    1
    24    13    12    1
    25    13    21    1
    26    23    24    1
    27    23    21    1
    28    24    36    1
    29    12    10   am
    30    11    10    2
    31    21    22    1
    32    10     9    1
    33     4     3    1
    34     1     8    1
    35     1     3    1
    36    36    37    1
    37     9     8    1
    38     8     7    1
    39     3     2    1
    40    39    37    1
    41    37    38    1
    42     2     7    1
