@<TRIPOS>MOLECULE
2i4v_DJR_B_1.pdb
 39 42 0 0 0
SMALL
GASTEIGER

@<TRIPOS>ATOM
      1  C         11.6980   18.2150   18.3740 C.3   300  DJR300      0.1016
      2  O         10.8280   18.7930   20.4120 O.3   300  DJR300     -0.3265
      3  C27       10.4160   18.2310   19.1570 C.3   300  DJR300      0.2388
      4  O9         9.6540   19.1130   18.3340 O.3   300  DJR300     -0.3304
      5  C2         9.9510   18.7710   16.9880 C.3   300  DJR300      0.1451
      6  C1        11.4620   18.5440   16.9100 C.3   300  DJR300      0.0409
      7  C3        12.2640   18.8000   20.4370 C.3   300  DJR300      0.1884
      8  C5        12.8020   18.9740   19.0180 C.3   300  DJR300      0.2048
      9  O4        12.6580   20.3310   18.6270 O.3   300  DJR300     -0.4345
     10  C4        13.7060   20.8650   18.0010 C.2   300  DJR300      0.4211
     11  O5        14.7650   20.2900   17.7550 O.2   300  DJR300     -0.2246
     12  N1        13.4110   22.1310   17.6710 N.am  300  DJR300     -0.1675
     13  C6        14.3780   22.9360   16.9740 C.3   300  DJR300      0.1347
     14  C8        13.7730   23.4800   15.6540 C.3   300  DJR300      0.0508
     15  C9        13.2820   22.3100   14.8050 C.ar  300  DJR300     -0.0204
     16  C11       14.1770   21.6480   13.9460 C.ar  300  DJR300     -0.0042
     17  C13       13.7270   20.5610   13.1720 C.ar  300  DJR300     -0.0003
     18  C14       12.3820   20.1390   13.2570 C.ar  300  DJR300     -0.0000
     19  C12       11.4850   20.8040   14.1130 C.ar  300  DJR300     -0.0003
     20  C10       11.9340   21.8890   14.8910 C.ar  300  DJR300     -0.0042
     21  C7        14.8040   24.0680   17.9200 C.3   300  DJR300      0.1898
     22  O6        13.6470   24.7650   18.3620 O.3   300  DJR300     -0.2197
     23  C15       15.7030   25.0420   17.1980 C.3   300  DJR300      0.1304
     24  N2        17.1240   24.6670   17.2320 N.3   300  DJR300     -0.1529
     25  S         17.8410   24.3110   15.7560 S.O2  300  DJR300      0.0634
     26  O8        18.5350   22.9740   15.8120 O.2   300  DJR300     -0.1528
     27  O7        16.7250   24.1020   14.7600 O.2   300  DJR300     -0.1528
     28  C18       18.7820   25.7020   15.2950 C.ar  300  DJR300      0.1224
     29  C23       20.1500   25.7970   15.5720 C.ar  300  DJR300      0.0230
     30  C22       20.8560   26.9620   15.2050 C.ar  300  DJR300      0.0383
     31  C21       20.1880   28.0360   14.5650 C.ar  300  DJR300      0.1388
     32  O1        20.8700   29.2130   14.2040 O.3   300  DJR300     -0.4714
     33  C26       22.2700   29.2720   14.5230 C.3   300  DJR300      0.2525
     34  C20       18.8190   27.9220   14.2950 C.ar  300  DJR300      0.0383
     35  C19       18.1210   26.7660   14.6560 C.ar  300  DJR300      0.0230
     36  C16       18.0040   24.9860   18.3820 C.3   300  DJR300      0.0958
     37  C17       17.7070   24.1090   19.6260 C.3   300  DJR300      0.0178
     38  C25       18.7510   24.4240   20.7130 C.3   300  DJR300      0.0015
     39  C24       17.7900   22.6080   19.2820 C.3   300  DJR300      0.0015
@<TRIPOS>BOND
     1    17    18   ar
     2    17    16   ar
     3    18    19   ar
     4    16    15   ar
     5    19    20   ar
     6    32    33    1
     7    32    31    1
     8    34    31   ar
     9    34    35   ar
    10    31    30   ar
    11    35    28   ar
    12    27    25    2
    13    15    20   ar
    14    15    14    1
    15    30    29   ar
    16    28    29   ar
    17    28    25    1
    18    14    13    1
    19    25    26    2
    20    25    24    1
    21     6     5    1
    22     6     1    1
    23    13    12    1
    24    13    21    1
    25     5     4    1
    26    23    24    1
    27    23    21    1
    28    24    36    1
    29    12    10   am
    30    11    10    2
    31    21    22    1
    32    10     9    1
    33     4     3    1
    34     1     8    1
    35     1     3    1
    36    36    37    1
    37     9     8    1
    38     8     7    1
    39     3     2    1
    40    39    37    1
    41    37    38    1
    42     2     7    1
