@<TRIPOS>MOLECULE
2i4w_KGQ_B_1.pdb
 49 52 0 0 0
SMALL
GASTEIGER

@<TRIPOS>ATOM
      1  N         13.5400   22.0940   17.9760 N.am  300  KGQ300     -0.1675
      2  C         11.9370   17.9440   18.4890 C.3   300  KGQ300      0.1016
      3  O         12.1090   19.1130   12.6550 O.3   300  KGQ300     -0.4630
      4  C6        14.5510   22.9180   17.3510 C.3   300  KGQ300      0.1347
      5  C8        13.8900   23.4620   16.0180 C.3   300  KGQ300      0.0508
      6  C9        13.4240   22.3280   15.1360 C.ar  300  KGQ300     -0.0202
      7  C11       14.3200   21.6190   14.3290 C.ar  300  KGQ300     -0.0011
      8  C13       13.8990   20.5570   13.5070 C.ar  300  KGQ300      0.0366
      9  C14       12.5280   20.1630   13.4670 C.ar  300  KGQ300      0.1394
     10  C15       11.9180   17.8280   13.2720 C.3   300  KGQ300      0.3201
     11  P         11.4020   16.6160   12.0950 P.3   300  KGQ300      0.3870
     12  O3        12.5330   15.5270   11.9960 O.3   300  KGQ300     -0.2917
     13  C18       13.8020   16.1400   11.7590 C.3   300  KGQ300      0.1515
     14  C19       14.9000   15.0580   11.6560 C.3   300  KGQ300      0.0352
     15  O2        10.2080   15.8110   12.7000 O.2   300  KGQ300     -0.2539
     16  O1        10.8120   17.1080   10.8230 O.3   300  KGQ300     -0.2917
     17  C16       10.2550   16.0390   10.0480 C.3   300  KGQ300      0.1515
     18  C17        9.5640   16.6250    8.7980 C.3   300  KGQ300      0.0352
     19  C12       11.6130   20.8840   14.2860 C.ar  300  KGQ300      0.0366
     20  C10       12.0690   21.9440   15.0970 C.ar  300  KGQ300     -0.0011
     21  C7        14.9970   24.0710   18.2830 C.3   300  KGQ300      0.1898
     22  O8        13.9040   24.9200   18.6040 O.3   300  KGQ300     -0.2197
     23  C20       16.1220   24.9090   17.6430 C.3   300  KGQ300      0.1304
     24  N1        17.3970   24.1830   17.6460 N.3   300  KGQ300     -0.1529
     25  C21       18.3040   25.0060   18.4720 C.3   300  KGQ300      0.0958
     26  C22       18.4310   24.6260   19.9720 C.3   300  KGQ300      0.0178
     27  C30       19.8470   24.7710   20.5550 C.3   300  KGQ300      0.0015
     28  C29       17.8490   23.2470   20.3040 C.3   300  KGQ300      0.0015
     29  S         17.9450   24.1860   16.0680 S.O2  300  KGQ300      0.0634
     30  O10       18.8290   22.9500   15.8410 O.2   300  KGQ300     -0.1528
     31  O9        16.7720   24.0010   15.0850 O.2   300  KGQ300     -0.1528
     32  C23       18.8580   25.6100   15.6160 C.ar  300  KGQ300      0.1224
     33  C28       20.2020   25.7460   15.8180 C.ar  300  KGQ300      0.0230
     34  C27       20.9390   26.8780   15.4660 C.ar  300  KGQ300      0.0383
     35  C26       20.3340   27.9020   14.9010 C.ar  300  KGQ300      0.1388
     36  O5        21.1560   29.1910   14.5000 O.3   300  KGQ300     -0.4714
     37  C31       22.2700   29.2850   15.1070 C.3   300  KGQ300      0.2525
     38  C25       19.0440   27.8590   14.6660 C.ar  300  KGQ300      0.0383
     39  C24       18.3110   26.7130   15.0240 C.ar  300  KGQ300      0.0230
     40  C4        13.9150   20.7900   18.3160 C.2   300  KGQ300      0.4211
     41  O7        15.0200   20.2890   18.1250 O.2   300  KGQ300     -0.2246
     42  O6        12.8520   20.1890   18.8680 O.3   300  KGQ300     -0.4345
     43  C5        12.9480   18.8260   19.2860 C.3   300  KGQ300      0.2048
     44  C3        12.3310   18.6890   20.6890 C.3   300  KGQ300      0.1884
     45  O4        10.9350   18.8900   20.5200 O.3   300  KGQ300     -0.3265
     46  C32       10.6630   18.0690   19.3880 C.3   300  KGQ300      0.2388
     47  O11        9.5670   18.6060   18.6220 O.3   300  KGQ300     -0.3304
     48  C2        10.1970   19.3400   17.5770 C.3   300  KGQ300      0.1451
     49  C1        11.3800   18.4670   17.1290 C.3   300  KGQ300      0.0409
@<TRIPOS>BOND
     1    18    17    1
     2    17    16    1
     3    16    11    1
     4    14    13    1
     5    13    12    1
     6    12    11    1
     7    11    15    2
     8    11    10    1
     9     3    10    1
    10     3     9    1
    11     9     8   ar
    12     9    19   ar
    13     8     7   ar
    14    19    20   ar
    15     7     6   ar
    16    36    35    1
    17    36    37    1
    18    38    35   ar
    19    38    39   ar
    20    35    34   ar
    21    39    32   ar
    22    31    29    2
    23    20     6   ar
    24     6     5    1
    25    34    33   ar
    26    32    33   ar
    27    32    29    1
    28    30    29    2
    29     5     4    1
    30    29    24    1
    31    49    48    1
    32    49     2    1
    33     4     1    1
    34     4    21    1
    35    48    47    1
    36    23    24    1
    37    23    21    1
    38    24    25    1
    39     1    40   am
    40    41    40    2
    41    21    22    1
    42    40    42    1
    43    25    26    1
    44     2    43    1
    45     2    46    1
    46    47    46    1
    47    42    43    1
    48    43    44    1
    49    46    45    1
    50    26    28    1
    51    26    27    1
    52    45    44    1
