@<TRIPOS>MOLECULE
2i4x_KGQ_B_1.pdb
 49 52 0 0 0
SMALL
GASTEIGER

@<TRIPOS>ATOM
      1  N         13.4730   22.1090   17.8170 N.am  300  KGQ300     -0.1675
      2  C         11.7410   17.9830   18.3630 C.3   300  KGQ300      0.1016
      3  O         12.3050   18.9340   12.4460 O.3   300  KGQ300     -0.4630
      4  C6        14.4130   22.9560   17.1040 C.3   300  KGQ300      0.1347
      5  C8        13.7300   23.4230   15.7780 C.3   300  KGQ300      0.0508
      6  C9        13.3440   22.2380   14.8870 C.ar  300  KGQ300     -0.0202
      7  C11       14.3060   21.6160   14.0710 C.ar  300  KGQ300     -0.0011
      8  C13       13.9610   20.5220   13.2620 C.ar  300  KGQ300      0.0366
      9  C14       12.6410   20.0320   13.2540 C.ar  300  KGQ300      0.1394
     10  C15       11.4110   17.9640   13.0050 C.3   300  KGQ300      0.3201
     11  P         11.4860   16.4440   11.9980 P.3   300  KGQ300      0.3870
     12  O3        12.9740   15.8600   11.9930 O.3   300  KGQ300     -0.2917
     13  C18       13.5850   15.1940   10.8740 C.3   300  KGQ300      0.1515
     14  C19       15.0260   14.7800   11.2600 C.3   300  KGQ300      0.0352
     15  O2        10.5540   15.4320   12.5810 O.2   300  KGQ300     -0.2539
     16  O1        11.0670   16.7420   10.4880 O.3   300  KGQ300     -0.2917
     17  C16        9.8080   17.2670   10.0700 C.3   300  KGQ300      0.1515
     18  C17        9.8220   17.3870    8.5290 C.3   300  KGQ300      0.0352
     19  C12       11.6670   20.6530   14.0660 C.ar  300  KGQ300      0.0366
     20  C10       12.0190   21.7510   14.8760 C.ar  300  KGQ300     -0.0011
     21  C7        14.7880   24.1500   18.0260 C.3   300  KGQ300      0.1898
     22  O8        13.6400   24.9830   18.1640 O.3   300  KGQ300     -0.2197
     23  C20       15.9240   25.0660   17.4750 C.3   300  KGQ300      0.1304
     24  N1        17.2230   24.3480   17.3230 N.3   300  KGQ300     -0.1529
     25  C21       18.2800   24.6180   18.3460 C.3   300  KGQ300      0.0958
     26  C22       18.1980   23.7680   19.6570 C.3   300  KGQ300      0.0178
     27  C30       19.5130   22.9770   19.8340 C.3   300  KGQ300      0.0015
     28  C29       17.0320   22.7470   19.6110 C.3   300  KGQ300      0.0015
     29  S         17.8120   24.1050   15.7620 S.O2  300  KGQ300      0.0634
     30  O10       18.7750   23.0300   15.8190 O.2   300  KGQ300     -0.1528
     31  O9        16.7170   23.9160   14.8380 O.2   300  KGQ300     -0.1528
     32  C23       18.6990   25.6000   15.3270 C.ar  300  KGQ300      0.1224
     33  C28       20.0820   25.7000   15.5790 C.ar  300  KGQ300      0.0230
     34  C27       20.7880   26.8630   15.2490 C.ar  300  KGQ300      0.0383
     35  C26       20.1240   27.9520   14.6530 C.ar  300  KGQ300      0.1388
     36  O5        20.8210   29.1170   14.3210 O.3   300  KGQ300     -0.4714
     37  C31       22.1840   29.3210   14.7220 C.3   300  KGQ300      0.2525
     38  C25       18.7440   27.8520   14.3990 C.ar  300  KGQ300      0.0383
     39  C24       18.0360   26.6850   14.7300 C.ar  300  KGQ300      0.0230
     40  C4        13.7280   20.8210   18.1030 C.2   300  KGQ300      0.4211
     41  O7        14.7640   20.2300   17.8020 O.2   300  KGQ300     -0.2246
     42  O6        12.6760   20.2780   18.7520 O.3   300  KGQ300     -0.4345
     43  C5        12.7420   18.8820   19.1220 C.3   300  KGQ300      0.2048
     44  C3        12.2090   18.7940   20.5650 C.3   300  KGQ300      0.1884
     45  O4        10.8060   18.9500   20.3330 O.3   300  KGQ300     -0.3265
     46  C32       10.4620   18.0910   19.2430 C.3   300  KGQ300      0.2388
     47  O11        9.4410   18.6750   18.4080 O.3   300  KGQ300     -0.3304
     48  C2        10.0750   19.4490   17.3840 C.3   300  KGQ300      0.1451
     49  C1        11.2380   18.5220   16.9960 C.3   300  KGQ300      0.0409
@<TRIPOS>BOND
     1    18    17    1
     2    17    16    1
     3    16    11    1
     4    13    14    1
     5    13    12    1
     6    12    11    1
     7    11    15    2
     8    11    10    1
     9     3    10    1
    10     3     9    1
    11     9     8   ar
    12     9    19   ar
    13     8     7   ar
    14    19    20   ar
    15     7     6   ar
    16    36    35    1
    17    36    37    1
    18    38    35   ar
    19    38    39   ar
    20    35    34   ar
    21    39    32   ar
    22    31    29    2
    23    20     6   ar
    24     6     5    1
    25    34    33   ar
    26    32    33   ar
    27    32    29    1
    28    29    30    2
    29    29    24    1
    30     5     4    1
    31    49    48    1
    32    49     2    1
    33     4     1    1
    34     4    21    1
    35    24    23    1
    36    24    25    1
    37    48    47    1
    38    23    21    1
    39    41    40    2
    40     1    40   am
    41    21    22    1
    42    40    42    1
    43    25    26    1
    44     2    43    1
    45     2    46    1
    46    47    46    1
    47    42    43    1
    48    43    44    1
    49    46    45    1
    50    28    26    1
    51    26    27    1
    52    45    44    1
