@<TRIPOS>MOLECULE
2i4z_DRH_A_1.pdb
 33 35 0 0 0
SMALL
GASTEIGER

@<TRIPOS>ATOM
      1  CAB       20.3000   20.6650   17.3190 C.3   999  DRH999      0.0043
      2  CAO       19.4260   19.9370   18.3420 C.3   999  DRH999      0.0513
      3  CBG       20.2080   18.8450   19.0780 C.3   999  DRH999      0.2252
      4  CAZ       19.3130   18.1370   20.1000 C.2   999  DRH999      0.4000
      5  OAE       19.8810   17.5570   21.0510 O.co2 999  DRH999     -0.2418
      6  OAD       18.0780   18.1780   19.9110 O.co2 999  DRH999     -0.2418
      7  CAC       21.3870   19.4650   19.8330 C.3   999  DRH999      0.0554
      8  OAX       20.7490   17.9110   18.1350 O.3   999  DRH999     -0.4718
      9  CBB       19.9920   17.1370   17.3030 C.ar  999  DRH999      0.1390
     10  CAK       18.7520   16.6200   17.6720 C.ar  999  DRH999      0.0366
     11  CAI       18.0570   15.7740   16.8100 C.ar  999  DRH999     -0.0011
     12  CAJ       20.5230   16.8090   16.0590 C.ar  999  DRH999      0.0366
     13  CAH       19.8300   15.9640   15.1970 C.ar  999  DRH999     -0.0011
     14  CBA       18.5960   15.4410   15.5700 C.ar  999  DRH999     -0.0203
     15  CAT       17.8990   14.4570   14.6240 C.3   999  DRH999      0.0479
     16  CAV       16.3690   14.5010   14.6760 C.3   999  DRH999      0.1008
     17  NBF       15.7340   15.2790   13.5980 N.pl3 999  DRH999     -0.2528
     18  CAU       14.2710   15.2320   13.4370 C.3   999  DRH999      0.0961
     19  CAS       13.5840   14.5440   14.6180 C.3   999  DRH999      0.0216
     20  CAR       12.0750   14.4180   14.4020 C.3   999  DRH999      0.0018
     21  CAQ       11.4290   13.8830   15.6810 C.3   999  DRH999      0.0001
     22  CAP        9.9140   13.7210   15.5420 C.3   999  DRH999      0.0000
     23  CAN        9.2820   13.3410   16.8830 C.3   999  DRH999      0.0000
     24  CAA        9.8490   12.0280   17.4290 C.3   999  DRH999      0.0000
     25  CBC       16.4220   15.8790   12.6270 C.2   999  DRH999      0.3479
     26  OAY       17.7700   15.7870   12.4210 O.2   999  DRH999     -0.4141
     27  CBE       18.0220   16.4680   11.2650 C.2   999  DRH999      0.1750
     28  CAM       19.1880   16.6990   10.5420 C.2   999  DRH999      0.0188
     29  CAG       19.1370   17.4280    9.3570 C.3   999  DRH999      0.0554
     30  CAF       17.9210   17.9260    8.8990 C.2   999  DRH999     -0.0186
     31  CAL       16.7540   17.6960    9.6210 C.2   999  DRH999      0.0311
     32  CBD       16.8070   16.9640   10.8030 C.2   999  DRH999      0.1700
     33  NAW       15.8580   16.5890   11.6550 N.2   999  DRH999     -0.3515
@<TRIPOS>BOND
     1    30    29    1
     2    30    31    2
     3    29    28    1
     4    31    32    1
     5    28    27    2
     6    32    27    1
     7    32    33    2
     8    27    26    1
     9    33    25    2
    10    26    25    1
    11    25    17    1
    12    18    17    1
    13    18    19    1
    14    17    16    1
    15    20    19    1
    16    20    21    1
    17    15    16    1
    18    15    14    1
    19    13    14   ar
    20    13    12   ar
    21    22    21    1
    22    22    23    1
    23    14    11   ar
    24    12     9   ar
    25    11    10   ar
    26    23    24    1
    27     9    10   ar
    28     9     8    1
    29     1     2    1
    30     8     3    1
    31     2     3    1
    32     3     7    1
    33     3     4    1
    34     6     4   ar
    35     4     5   ar
