@<TRIPOS>MOLECULE
2i51_FMN_A_1.pdb
 31 33 0 0 0
SMALL
GASTEIGER

@<TRIPOS>ATOM
      1  N1        39.3510   60.8870    7.7560 N.2   300  FMN300     -0.2887
      2  C2        39.6460   60.8120    6.4460 C.1   300  FMN300      0.3669
      3  O2        39.0890   61.5270    5.6070 O.2   300  FMN300     -0.1744
      4  N3        40.6390   59.9510    6.0220 N.2   300  FMN300     -0.2300
      5  C4        41.3230   59.1380    6.8760 C.1   300  FMN300      0.2513
      6  O4        42.3400   58.4490    6.4930 O.2   300  FMN300     -0.2057
      7  C4A       41.0290   59.2050    8.2290 C.2   300  FMN300      0.2706
      8  N5        41.6720   58.3850    9.1410 N.2   300  FMN300     -0.3841
      9  C5A       41.4690   58.6470   10.5220 C.2   300  FMN300      0.1452
     10  C6        42.1890   57.9240   11.4480 C.2   300  FMN300      0.0252
     11  C7        42.0220   58.1070   12.8310 C.2   300  FMN300     -0.0375
     12  C7M       42.9980   57.4920   13.8000 C.3   300  FMN300      0.0268
     13  C8        41.0470   59.0180   13.2340 C.3   300  FMN300      0.0417
     14  C8M       41.0000   59.4480   14.7060 C.3   300  FMN300      0.0091
     15  C9        40.3010   59.7370   12.2980 C.2   300  FMN300     -0.0049
     16  C9A       40.4800   59.5220   10.9390 C.2   300  FMN300      0.0795
     17  N10       39.7430   60.2000    9.9950 N.pl3 300  FMN300     -0.2545
     18  C10       40.0340   60.1040    8.6690 C.2   300  FMN300      0.2449
     19  C1'       38.5500   61.0610   10.3950 C.3   300  FMN300      0.1336
     20  C2'       39.0200   62.5210   10.4210 C.3   300  FMN300      0.2048
     21  O2'       39.9370   62.7440   11.5220 O.3   300  FMN300     -0.2185
     22  C3'       37.8650   63.5410   10.4550 C.3   300  FMN300      0.2165
     23  O3'       37.0230   63.1990   11.5380 O.3   300  FMN300     -0.2175
     24  C4'       37.0800   63.4070    9.1330 C.3   300  FMN300      0.2147
     25  O4'       37.9020   63.2390    7.9740 O.3   300  FMN300     -0.2176
     26  C5'       36.2940   64.7030    8.9440 C.3   300  FMN300      0.1892
     27  O5'       37.2080   65.7910    8.8840 O.3   300  FMN300     -0.2674
     28  P         36.8070   67.1230    8.1490 P.3   300  FMN300      0.5327
     29  O1P       36.7240   66.9240    6.6780 O.2   300  FMN300     -0.2224
     30  O2P       35.4140   67.5230    8.7300 O.3   300  FMN300     -0.1145
     31  O3P       37.7810   68.1730    8.5750 O.3   300  FMN300     -0.1145
@<TRIPOS>BOND
     1     3     2    2
     2     4     2    2
     3     4     5    2
     4     2     1    2
     5     6     5    2
     6    29    28    2
     7     5     7    1
     8     1    18    2
     9    25    24    1
    10    28    31    1
    11    28    30    1
    12    28    27    1
    13     7    18    1
    14     7     8    2
    15    18    17    1
    16    27    26    1
    17    26    24    1
    18    24    22    1
    19     8     9    2
    20    17    19    1
    21    17    16    1
    22    19    20    1
    23    20    22    1
    24    20    21    1
    25    22    23    1
    26     9    16    1
    27     9    10    1
    28    16    15    2
    29    10    11    2
    30    15    13    1
    31    11    13    1
    32    11    12    1
    33    13    14    1
