@<TRIPOS>MOLECULE
2i55_B16_B_1.pdb
 20 20 0 0 0
SMALL
GASTEIGER

@<TRIPOS>ATOM
      1  P         47.5520   10.2010   -7.2590 P.3   249  B16249      0.5327
      2  P'        40.8560   13.3680   -3.5250 P.3   249  B16249      0.5346
      3  C1        42.9080   11.6100   -4.0440 C.3   249  B16249      0.2781
      4  O1        41.5860   12.0870   -4.2350 O.3   249  B16249     -0.2416
      5  C2        43.0000   10.0880   -4.0330 C.3   249  B16249      0.2410
      6  O2        41.8490    9.4610   -3.4910 O.3   249  B16249     -0.2149
      7  C3        44.2700    9.7900   -3.2450 C.3   249  B16249      0.2198
      8  O3        44.3970    8.4330   -2.8300 O.3   249  B16249     -0.2174
      9  C4        45.4220   10.2150   -4.1400 C.3   249  B16249      0.2143
     10  O4        46.5450   10.2400   -3.2740 O.3   249  B16249     -0.2176
     11  C5        45.1780   11.6210   -4.7470 C.3   249  B16249      0.1807
     12  O5        43.7980   11.8590   -5.1310 O.3   249  B16249     -0.3254
     13  C6        46.1170   12.0190   -5.9000 C.3   249  B16249      0.1859
     14  O6        46.2030   11.0390   -6.9250 O.3   249  B16249     -0.2675
     15  O1P       48.4720   10.3410   -6.0630 O.3   249  B16249     -0.1145
     16  O2P       47.0080    8.7880   -7.3670 O.3   249  B16249     -0.1145
     17  O3P       48.0090   10.7900   -8.5900 O.2   249  B16249     -0.2224
     18  O1X       39.4140   12.9670   -3.7830 O.3   249  B16249     -0.1145
     19  O2X       41.2290   14.6120   -4.3070 O.2   249  B16249     -0.2223
     20  O3X       41.1940   13.4870   -2.0450 O.3   249  B16249     -0.1145
@<TRIPOS>BOND
     1    17     1    2
     2    16     1    1
     3     1    14    1
     4     1    15    1
     5    14    13    1
     6    13    11    1
     7    12    11    1
     8    12     3    1
     9    11     9    1
    10    19     2    2
    11     4     3    1
    12     4     2    1
    13     9    10    1
    14     9     7    1
    15     3     5    1
    16     5     6    1
    17     5     7    1
    18    18     2    1
    19     2    20    1
    20     7     8    1
