@<TRIPOS>MOLECULE
2i56_RNS_A_1.pdb
 11 10 0 0 0
SMALL
GASTEIGER

@<TRIPOS>ATOM
      1  C1        15.2460   32.8170   67.6850 C.2   2001  RNS2001     0.2427
      2  C2        14.8570   31.5160   66.9950 C.3   2001  RNS2001     0.2486
      3  C3        13.7800   31.7630   65.9400 C.3   2001  RNS2001     0.2224
      4  C4        14.1080   32.9800   65.0670 C.3   2001  RNS2001     0.2152
      5  C5        13.1830   33.0320   63.8550 C.3   2001  RNS2001     0.1849
      6  C6        13.4620   34.3020   63.0650 C.3   2001  RNS2001     0.0383
      7  O1        16.2920   32.8750   68.3370 O.2   2001  RNS2001    -0.2854
      8  O2        15.9970   30.9300   66.3890 O.3   2001  RNS2001    -0.2118
      9  O3        13.6530   30.6030   65.1260 O.3   2001  RNS2001    -0.2171
     10  O4        15.4580   32.9160   64.6300 O.3   2001  RNS2001    -0.2176
     11  O5        11.8270   33.0210   64.2770 O.3   2001  RNS2001    -0.2203
@<TRIPOS>BOND
     1     6     5    1
     2     5    11    1
     3     5     4    1
     4    10     4    1
     5     4     3    1
     6     9     3    1
     7     3     2    1
     8     8     2    1
     9     2     1    1
    10     1     7    2
