@<TRIPOS>MOLECULE
2i57_AOS_A_1.pdb
 12 11 0 0 0
SMALL
GASTEIGER

@<TRIPOS>ATOM
      1  C1        15.1650   32.8390   67.6500 C.2   3001  AOS3001     0.2427
      2  O1        16.2360   33.0040   68.2470 O.2   3001  AOS3001    -0.2854
      3  C2        14.8710   31.5050   66.9730 C.3   3001  AOS3001     0.2486
      4  O2        15.9870   31.0940   66.2010 O.3   3001  AOS3001    -0.2118
      5  C3        13.6110   31.5900   66.0920 C.3   3001  AOS3001     0.2225
      6  O3        13.5690   30.4750   65.2120 O.3   3001  AOS3001    -0.2171
      7  C4        13.4920   32.8920   65.2860 C.3   3001  AOS3001     0.2179
      8  O4        12.2030   32.9660   64.6880 O.3   3001  AOS3001    -0.2175
      9  C5        14.5610   32.9960   64.1990 C.3   3001  AOS3001     0.2175
     10  O5        15.8310   33.2050   64.7930 O.3   3001  AOS3001    -0.2175
     11  C6        14.2350   34.1630   63.2800 C.3   3001  AOS3001     0.2175
     12  O6        14.1690   35.3590   64.0370 O.3   3001  AOS3001    -0.2175
@<TRIPOS>BOND
     1    11    12    1
     2    11     9    1
     3     9    10    1
     4     9     7    1
     5     8     7    1
     6     6     5    1
     7     7     5    1
     8     5     3    1
     9     4     3    1
    10     3     1    1
    11     1     2    2
