@<TRIPOS>MOLECULE
2i5b_ADP_A_1.pdb
 27 29 0 0 0
SMALL
GASTEIGER

@<TRIPOS>ATOM
      1  PB        30.2000   -7.0810   -5.7440 P.3   301  ADP301      0.5373
      2  O1B       30.5460   -8.0520   -6.8540 O.2   301  ADP301     -0.2221
      3  O2B       31.0590   -7.2410   -4.5050 O.3   301  ADP301     -0.1143
      4  O3B       28.7380   -6.9350   -5.3800 O.3   301  ADP301     -0.1143
      5  PA        31.7490   -5.2040   -7.2750 P.3   301  ADP301      0.2231
      6  O1A       32.9400   -6.0500   -6.9250 O.3   301  ADP301     -0.4370
      7  O2A       31.2810   -5.1640   -8.7160 O.2   301  ADP301     -0.5169
      8  O3A       30.5300   -5.5930   -6.2910 O.3   301  ADP301     -0.2261
      9  O5'       32.0060   -3.6910   -6.8150 O.3   301  ADP301     -0.3111
     10  C5'       32.5390   -3.3780   -5.5380 C.3   301  ADP301      0.1813
     11  C4'       33.5070   -2.2120   -5.6670 C.3   301  ADP301      0.1821
     12  O4'       34.8330   -2.7240   -5.6380 O.3   301  ADP301     -0.3135
     13  C3'       33.3640   -1.4720   -6.9860 C.3   301  ADP301      0.2184
     14  O3'       33.5220   -0.0700   -6.7700 O.3   301  ADP301     -0.2174
     15  C2'       34.5150   -1.9630   -7.8370 C.3   301  ADP301      0.2570
     16  O2'       34.9220   -0.9490   -8.7650 O.3   301  ADP301     -0.2130
     17  C1'       35.5580   -2.2880   -6.7850 C.3   301  ADP301      0.3186
     18  N9        36.4670   -3.3950   -7.1350 N.pl3 301  ADP301     -0.1439
     19  C8        36.1520   -4.6960   -7.3210 C.3   301  ADP301      0.3377
     20  N7        37.2680   -5.4240   -7.6060 N.2   301  ADP301     -0.2095
     21  C5        38.3160   -4.5810   -7.5890 C.2   301  ADP301      0.2526
     22  C6        39.7800   -4.6760   -7.7940 C.2   301  ADP301      0.4393
     23  N6        40.3810   -5.8580   -8.0900 N.pl3 301  ADP301      0.2180
     24  N1        40.5120   -3.5350   -7.6720 N.2   301  ADP301      0.0021
     25  C2        39.9600   -2.3380   -7.3680 C.3   301  ADP301      0.5254
     26  N3        38.6350   -2.1820   -7.1770 N.2   301  ADP301     -0.0055
     27  C4        37.7860   -3.2470   -7.2700 C.2   301  ADP301      0.3518
@<TRIPOS>BOND
     1    16    15    1
     2     7     5    2
     3    23    22    1
     4    15    13    1
     5    15    17    1
     6    22    24    2
     7    22    21    1
     8    24    25    1
     9    20    21    2
    10    20    19    1
    11    21    27    1
    12    25    26    1
    13    19    18    1
    14     5     6    1
    15     5     9    1
    16     5     8    1
    17    27    26    2
    18    27    18    1
    19    18    17    1
    20    13    14    1
    21    13    11    1
    22     2     1    2
    23     9    10    1
    24    17    12    1
    25     8     1    1
    26     1     4    1
    27     1     3    1
    28    11    12    1
    29    11    10    1
