@<TRIPOS>MOLECULE
2i5c_IP5_A_1.pdb
 32 32 0 0 0
SMALL
GASTEIGER

@<TRIPOS>ATOM
      1  O16      -14.5160  -20.1930  -27.0030 O.3   550  IP5550     -0.2177
      2  C6       -15.7920  -20.7810  -26.6990 C.3   550  IP5550      0.2119
      3  C1       -16.6100  -19.8150  -25.8450 C.3   550  IP5550      0.1890
      4  O11      -15.8620  -19.6360  -24.6460 O.3   550  IP5550     -0.2674
      5  P1       -15.9300  -18.3220  -23.7440 P.3   550  IP5550      0.5327
      6  O41      -17.3230  -18.4580  -23.1390 O.3   550  IP5550     -0.1145
      7  O31      -14.7410  -18.5260  -22.8250 O.3   550  IP5550     -0.1145
      8  O21      -15.8630  -17.1110  -24.6630 O.2   550  IP5550     -0.2224
      9  C5       -16.5430  -21.0840  -28.0160 C.3   550  IP5550      0.1890
     10  O15      -15.8070  -22.0500  -28.7930 O.3   550  IP5550     -0.2674
     11  P5       -15.3060  -21.8550  -30.3310 P.3   550  IP5550      0.5327
     12  O45      -13.9980  -22.5820  -30.5360 O.3   550  IP5550     -0.1145
     13  O35      -15.3540  -20.3770  -30.5350 O.3   550  IP5550     -0.1145
     14  O25      -16.4830  -22.5020  -31.0440 O.2   550  IP5550     -0.2224
     15  C4       -18.0180  -21.5700  -27.8240 C.3   550  IP5550      0.1864
     16  O14      -18.7520  -21.4830  -29.0430 O.3   550  IP5550     -0.2675
     17  P4       -19.5170  -22.7630  -29.6830 P.3   550  IP5550      0.5327
     18  O44      -18.4280  -23.5920  -30.1760 O.3   550  IP5550     -0.1145
     19  O34      -20.2900  -23.5420  -28.6440 O.3   550  IP5550     -0.1145
     20  O24      -20.4740  -22.1530  -30.6880 O.2   550  IP5550     -0.2224
     21  C3       -18.7640  -20.6000  -26.8870 C.3   550  IP5550      0.1863
     22  O13      -20.0890  -21.1120  -26.7010 O.3   550  IP5550     -0.2675
     23  P3       -21.3590  -20.1410  -26.4790 P.3   550  IP5550      0.5327
     24  O43      -21.0690  -19.3830  -25.1900 O.3   550  IP5550     -0.1145
     25  O33      -21.4710  -19.3020  -27.7200 O.2   550  IP5550     -0.2224
     26  O23      -22.5450  -21.0600  -26.3770 O.3   550  IP5550     -0.1145
     27  C2       -18.0090  -20.4060  -25.5650 C.3   550  IP5550      0.1864
     28  O12      -17.8940  -21.7100  -24.9400 O.3   550  IP5550     -0.2675
     29  P2       -18.1540  -21.9790  -23.3920 P.3   550  IP5550      0.5327
     30  O22      -18.1280  -20.7310  -22.5120 O.3   550  IP5550     -0.1145
     31  O32      -19.4690  -22.6550  -23.2280 O.2   550  IP5550     -0.2224
     32  O42      -16.9130  -22.7200  -23.0330 O.3   550  IP5550     -0.1145
@<TRIPOS>BOND
     1    14    11    2
     2    20    17    2
     3    12    11    1
     4    13    11    1
     5    11    10    1
     6    18    17    1
     7    17    16    1
     8    17    19    1
     9    16    15    1
    10    10     9    1
    11     9    15    1
    12     9     2    1
    13    15    21    1
    14    25    23    2
    15     1     2    1
    16    21    22    1
    17    21    27    1
    18    22    23    1
    19     2     3    1
    20    23    26    1
    21    23    24    1
    22     3    27    1
    23     3     4    1
    24    27    28    1
    25    28    29    1
    26     8     5    2
    27     4     5    1
    28     5     6    1
    29     5     7    1
    30    29    31    2
    31    29    32    1
    32    29    30    1
