@<TRIPOS>MOLECULE
2i5f_5IP_A_1.pdb
 32 32 0 0 0
SMALL
GASTEIGER

@<TRIPOS>ATOM
      1  O46        8.2380  -12.1180   -1.1220 O.3   550  5IP550     -0.1145
      2  P6         6.7460  -11.9940   -1.5930 P.3   550  5IP550      0.5327
      3  O26        6.0610  -11.9810   -0.2150 O.3   550  5IP550     -0.1145
      4  O36        6.5320  -10.8890   -2.7230 O.2   550  5IP550     -0.2224
      5  O16        6.4800  -13.3750   -2.4520 O.3   550  5IP550     -0.2675
      6  C6         5.5470  -13.1170   -3.5690 C.3   550  5IP550      0.1864
      7  C1         6.3110  -13.4070   -4.8190 C.3   550  5IP550      0.1863
      8  O11        7.6520  -13.6940   -4.3980 O.3   550  5IP550     -0.2675
      9  P1         9.1930  -13.6790   -4.9380 P.3   550  5IP550      0.5327
     10  O41        9.1830  -14.8520   -5.9030 O.2   550  5IP550     -0.2224
     11  O31        9.5240  -12.3360   -5.5690 O.3   550  5IP550     -0.1145
     12  O21        9.8530  -13.8860   -3.5820 O.3   550  5IP550     -0.1145
     13  C5         4.3270  -13.9740   -3.4360 C.3   550  5IP550      0.1890
     14  O15        3.5100  -13.6330   -2.4900 O.3   550  5IP550     -0.2674
     15  P5         3.1210  -14.3000   -1.0760 P.3   550  5IP550      0.5327
     16  O45        2.5210  -15.6970   -1.0350 O.2   550  5IP550     -0.2224
     17  O35        2.3250  -13.0160   -0.9970 O.3   550  5IP550     -0.1145
     18  O25        4.7410  -14.1120   -0.1150 O.3   550  5IP550     -0.1145
     19  C4         3.4240  -14.5710   -4.6550 C.3   550  5IP550      0.2119
     20  O14        2.5270  -15.6900   -4.2220 O.3   550  5IP550     -0.2177
     21  C3         4.3190  -15.2390   -5.6470 C.3   550  5IP550      0.1890
     22  O13        3.4120  -15.3670   -6.7740 O.3   550  5IP550     -0.2674
     23  P3         3.7230  -16.3320   -8.0050 P.3   550  5IP550      0.5327
     24  O43        3.6860  -15.5280   -9.2890 O.2   550  5IP550     -0.2224
     25  O33        5.0450  -17.0370   -7.6940 O.3   550  5IP550     -0.1145
     26  O23        2.4670  -17.1930   -7.8360 O.3   550  5IP550     -0.1145
     27  C2         5.5910  -14.3390   -5.8600 C.3   550  5IP550      0.1864
     28  O12        5.1660  -13.1550   -6.4360 O.3   550  5IP550     -0.2675
     29  P2         5.7630  -12.8790   -7.8900 P.3   550  5IP550      0.5327
     30  O22        7.1810  -12.3030   -7.9580 O.3   550  5IP550     -0.1145
     31  O32        5.8820  -14.2270   -8.6340 O.2   550  5IP550     -0.2224
     32  O42        4.6830  -11.9190   -8.4710 O.3   550  5IP550     -0.1145
@<TRIPOS>BOND
     1    24    23    2
     2    31    29    2
     3    32    29    1
     4    23    26    1
     5    23    25    1
     6    23    22    1
     7    30    29    1
     8    29    28    1
     9    22    21    1
    10    28    27    1
    11    10     9    2
    12    27    21    1
    13    27     7    1
    14    21    19    1
    15    11     9    1
    16     9     8    1
    17     9    12    1
    18     7     8    1
    19     7     6    1
    20    19    20    1
    21    19    13    1
    22     6    13    1
    23     6     5    1
    24    13    14    1
    25     4     2    2
    26    14    15    1
    27     5     2    1
    28     2     1    1
    29     2     3    1
    30    15    16    2
    31    15    17    1
    32    15    18    1
