@<TRIPOS>MOLECULE
2i5j_K05_A_1.pdb
 25 27 0 0 0
SMALL
GASTEIGER

@<TRIPOS>ATOM
      1  N1        46.4000  -25.4720   18.1360 N.3   4001  K054001    -0.1032
      2  N2        46.9780  -24.7940   19.0680 N.am  4001  K054001    -0.1074
      3  C3        46.4110  -24.7610   20.4470 C.2   4001  K054001     0.2811
      4  O3        45.1570  -25.5280   20.7720 O.2   4001  K054001    -0.2669
      5  C1'       47.0860  -23.9690   21.4750 C.ar  4001  K054001     0.0598
      6  C2'       48.1380  -22.9600   21.1870 C.ar  4001  K054001     0.0500
      7  C3'       48.7470  -22.2160   22.3270 C.ar  4001  K054001     0.2344
      8  C4'       48.3410  -22.4580   23.6900 C.ar  4001  K054001     0.2343
      9  C5'       47.3010  -23.4510   23.9860 C.ar  4001  K054001     0.0455
     10  C6'       46.7040  -24.1780   22.8930 C.ar  4001  K054001     0.0081
     11  OH3       48.9550  -21.7310   24.6730 O.3   4001  K054001    -0.2831
     12  OH4       49.7120  -21.2790   22.1550 O.3   4001  K054001    -0.2831
     13  C11       46.6730  -25.0380   16.8660 C.3   4001  K054001     0.1428
     14  C12       46.1190  -25.6240   15.6510 C.ar  4001  K054001     0.0311
     15  C13       45.2320  -24.6940   14.8470 C.ar  4001  K054001     0.1361
     16  O13       45.0500  -23.4240   15.3730 O.3   4001  K054001    -0.4717
     17  C14       44.5880  -25.1980   13.5680 C.ar  4001  K054001     0.0366
     18  C15       44.8190  -26.5270   13.0790 C.ar  4001  K054001     0.0031
     19  C25       45.6580  -27.4400   13.8260 C.ar  4001  K054001    -0.0001
     20  C16       45.8810  -28.8030   13.3010 C.ar  4001  K054001    -0.0000
     21  C17       46.7310  -29.7340   14.0410 C.ar  4001  K054001    -0.0000
     22  C18       47.3710  -29.2830   15.2840 C.ar  4001  K054001    -0.0000
     23  C19       47.1960  -27.9520   15.8580 C.ar  4001  K054001    -0.0002
     24  C29       46.3660  -26.9910   15.1590 C.ar  4001  K054001     0.0004
     25  C10       44.2540  -22.4200   14.7700 C.3   4001  K054001     0.2525
@<TRIPOS>BOND
     1    18    17   ar
     2    18    19   ar
     3    20    19   ar
     4    20    21   ar
     5    17    15   ar
     6    19    24   ar
     7    21    22   ar
     8    25    16    1
     9    15    16    1
    10    15    14   ar
    11    24    14   ar
    12    24    23   ar
    13    22    23   ar
    14    14    13    1
    15    13     1    1
    16     1     2    1
    17     2     3   am
    18     3     4    2
    19     3     5    1
    20     6     5   ar
    21     6     7   ar
    22     5    10   ar
    23    12     7    1
    24     7     8   ar
    25    10     9   ar
    26     8     9   ar
    27     8    11    1
