@<TRIPOS>MOLECULE
2i5j_GLC_A_1.pdb
 12 12 0 0 0
SMALL
GASTEIGER

@<TRIPOS>ATOM
      1  C1        36.6030  -13.3390   14.3490 C.3   2001  GLC2001     0.3024
      2  C2        36.1170  -14.3820   15.3460 C.3   2001  GLC2001     0.2434
      3  C3        37.2010  -14.8230   16.3490 C.3   2001  GLC2001     0.2199
      4  C4        38.6760  -14.7180   15.8640 C.3   2001  GLC2001     0.2144
      5  C5        38.9230  -13.7020   14.7330 C.3   2001  GLC2001     0.1836
      6  C6        40.2050  -13.9770   13.9490 C.3   2001  GLC2001     0.2142
      7  O1        36.7670  -12.1120   14.9580 O.3   2001  GLC2001    -0.1869
      8  O2        34.9960  -13.8760   16.0590 O.3   2001  GLC2001    -0.2148
      9  O3        36.9500  -16.1770   16.7080 O.3   2001  GLC2001    -0.2174
     10  O4        39.4990  -14.3620   16.9710 O.3   2001  GLC2001    -0.2176
     11  O5        37.8470  -13.7370   13.7790 O.3   2001  GLC2001    -0.3236
     12  O6        41.3660  -13.7390   14.7350 O.3   2001  GLC2001    -0.2176
@<TRIPOS>BOND
     1    11     1    1
     2    11     5    1
     3     6     5    1
     4     6    12    1
     5     1     7    1
     6     1     2    1
     7     5     4    1
     8     2     8    1
     9     2     3    1
    10     4     3    1
    11     4    10    1
    12     3     9    1
