@<TRIPOS>MOLECULE
2i5n_HEC_C_1.pdb
 43 50 0 0 0
SMALL
GASTEIGER

@<TRIPOS>ATOM
      1 FE         77.3070   10.8320   16.8130 Fe    401  HEC401      0.0000
      2  CHA       77.6840    8.8900   19.6740 C.2   401  HEC401      0.0000
      3  CHB       74.0820    9.7830   16.5100 C.2   401  HEC401      0.0000
      4  CHC       76.9690   12.6800   13.8960 C.2   401  HEC401      0.0000
      5  CHD       80.6300   11.6640   16.9510 C.2   401  HEC401      0.0000
      6  NA        76.1000    9.6060   17.9260 N.ar  401  HEC401      0.0000
      7  C1A       76.4790    8.8050   18.9930 C.ar  401  HEC401      0.0000
      8  C2A       75.3790    7.8890   19.2750 C.ar  401  HEC401      0.0000
      9  C3A       74.3880    8.1510   18.4060 C.ar  401  HEC401      0.0000
     10  C4A       74.8220    9.2290   17.5360 C.ar  401  HEC401      0.0000
     11  CMA       73.0270    7.4420   18.3230 C.3   401  HEC401      0.0000
     12  CAA       75.3600    6.8260   20.3770 C.3   401  HEC401      0.0000
     13  CBA       75.8030    5.4870   19.7890 C.3   401  HEC401      0.0000
     14  CGA       75.7850    4.4150   20.8770 C.2   401  HEC401      0.0000
     15  O1A       76.7520    4.3470   21.6720 O.co2 401  HEC401      0.0000
     16  O2A       74.8000    3.6420   20.9480 O.co2 401  HEC401      0.0000
     17  NB        75.7990   11.1520   15.4160 N.2   401  HEC401      0.0000
     18  C1B       74.5110   10.6920   15.5610 C.2   401  HEC401      0.0000
     19  C2B       73.6820   11.3460   14.5590 C.2   401  HEC401      0.0000
     20  C3B       74.4830   12.1440   13.8200 C.2   401  HEC401      0.0000
     21  C4B       75.8360   12.0320   14.3560 C.2   401  HEC401      0.0000
     22  CMB       72.1810   11.0920   14.3640 C.3   401  HEC401      0.0000
     23  CAB       74.0770   13.0380   12.6390 C.3   401  HEC401      0.0000
     24  CBB       73.0560   14.0950   13.0780 C.3   401  HEC401      0.0000
     25  NC        78.5690   11.9640   15.6300 N.ar  401  HEC401      0.0000
     26  C1C       78.2380   12.6260   14.4630 C.ar  401  HEC401      0.0000
     27  C2C       79.4340   13.2800   13.9590 C.ar  401  HEC401      0.0000
     28  C3C       80.4600   12.9900   14.8000 C.ar  401  HEC401      0.0000
     29  C4C       79.9200   12.1630   15.8690 C.ar  401  HEC401      0.0000
     30  CMC       79.4870   14.0850   12.6560 C.3   401  HEC401      0.0000
     31  CAC       81.9610   13.3900   14.6670 C.3   401  HEC401      0.0000
     32  CBC       82.1820   14.8980   14.4960 C.3   401  HEC401      0.0000
     33  ND        78.8940   10.3080   18.0680 N.2   401  HEC401      0.0000
     34  C1D       80.1370   10.9180   18.0080 C.2   401  HEC401      0.0000
     35  C2D       80.8370   10.6260   19.2550 C.2   401  HEC401      0.0000
     36  C3D       80.0190    9.8520   20.0240 C.2   401  HEC401      0.0000
     37  C4D       78.7830    9.6380   19.2760 C.2   401  HEC401      0.0000
     38  CMD       82.2460   11.1170   19.6180 C.3   401  HEC401      0.0000
     39  CAD       80.3210    9.3210   21.4320 C.3   401  HEC401      0.0000
     40  CBD       79.9000   10.4070   22.4430 C.3   401  HEC401      0.0000
     41  CGD       80.3580   10.0700   23.8720 C.2   401  HEC401      0.0000
     42  O1D       79.8220   10.6870   24.8250 O.co2 401  HEC401      0.0000
     43  O2D       81.2430    9.1970   24.0580 O.co2 401  HEC401      0.0000
@<TRIPOS>BOND
     1    23    24    1
     2    23    20    1
     3    30    27    1
     4    20    21    1
     5    20    19    2
     6     4    21    2
     7     4    26    1
     8    27    26   ar
     9    27    28   ar
    10    21    17    1
    11    22    19    1
    12    26    25   ar
    13    32    31    1
    14    19    18    1
    15    31    28    1
    16    28    29   ar
    17    17    18    2
    18    17     1    1
    19    18     3    1
    20    25    29   ar
    21    25     1    1
    22    29     5    1
    23     3    10    2
    24     1     6    1
    25     1    33    1
    26     5    34    2
    27    10     6   ar
    28    10     9   ar
    29     6     7   ar
    30    34    33    1
    31    34    35    1
    32    33    37    2
    33    11     9    1
    34     9     8   ar
    35     7     8   ar
    36     7     2    2
    37    35    38    1
    38    35    36    2
    39     8    12    1
    40    37     2    1
    41    37    36    1
    42    13    12    1
    43    13    14    1
    44    36    39    1
    45    14    16   ar
    46    14    15   ar
    47    39    40    1
    48    40    41    1
    49    41    43   ar
    50    41    42   ar
