@<TRIPOS>MOLECULE
2i5n_UQ1_L_1.pdb
 18 18 0 0 0
SMALL
GASTEIGER

@<TRIPOS>ATOM
      1  C1       130.6770   69.7810   -3.9150 C.2   502  UQ1502      0.2285
      2  O1       130.8180   69.2720   -5.0450 O.2   502  UQ1502     -0.2835
      3  C2       130.8340   71.2470   -3.7400 C.2   502  UQ1502      0.2140
      4  O2       131.1410   72.0280   -4.8200 O.2   502  UQ1502     -0.4652
      5  CM2      132.4420   72.6200   -4.9330 C.3   502  UQ1502      0.2528
      6  C3       130.6680   71.8610   -2.3980 C.2   502  UQ1502      0.2140
      7  O3       130.7920   73.2280   -2.2400 O.2   502  UQ1502     -0.4652
      8  CM3      131.8460   73.8190   -1.4820 C.3   502  UQ1502      0.2528
      9  C4       130.3300   70.9930   -1.2390 C.2   502  UQ1502      0.2282
     10  O4       130.1980   71.4970   -0.1210 O.2   502  UQ1502     -0.2836
     11  C5       130.1670   69.5210   -1.4080 C.2   502  UQ1502      0.0198
     12  CM5      129.8300   68.6640   -0.2080 C.3   502  UQ1502      0.0343
     13  C6       130.3420   68.9130   -2.7550 C.2   502  UQ1502      0.0235
     14  C7       130.1850   67.4220   -2.9720 C.3   502  UQ1502      0.0548
     15  C8       128.7320   67.0930   -3.2260 C.2   502  UQ1502     -0.0298
     16  C9       128.3440   66.2350   -4.1870 C.2   502  UQ1502     -0.0475
     17  C10      129.3480   65.5510   -5.0710 C.3   502  UQ1502      0.0260
     18  C11      126.8790   65.9490   -4.3700 C.3   502  UQ1502      0.0260
@<TRIPOS>BOND
     1    17    16    1
     2     2     1    2
     3     5     4    1
     4     4     3    1
     5    18    16    1
     6    16    15    2
     7     1     3    1
     8     1    13    1
     9     3     6    2
    10    15    14    1
    11    14    13    1
    12    13    11    2
    13     6     7    1
    14     6     9    1
    15     7     8    1
    16    11     9    1
    17    11    12    1
    18     9    10    2
