@<TRIPOS>MOLECULE
2i5n_NS5_M_1.pdb
 40 39 0 0 0
SMALL
GASTEIGER

@<TRIPOS>ATOM
      1  C1       123.1560   49.2340    0.7270 C.3   600  NS5600      0.0000
      2  CM1      123.2640   50.6530    0.1740 C.3   600  NS5600      0.0000
      3  CM2      122.0320   48.4580    0.0440 C.3   600  NS5600      0.0000
      4  C2       124.4980   48.4910    0.6630 C.3   600  NS5600      0.0003
      5  C3       124.8620   48.0380   -0.7540 C.3   600  NS5600      0.0043
      6  C4       125.4200   46.6130   -0.7550 C.3   600  NS5600      0.0217
      7  C5       124.7370   45.7610   -1.8330 C.2   600  NS5600     -0.0482
      8  C6       124.5230   46.3290   -3.2360 C.3   600  NS5600      0.0260
      9  C7       124.3230   44.5000   -1.5750 C.2   600  NS5600     -0.0343
     10  C8       124.4910   43.8560   -0.2700 C.3   600  NS5600      0.0297
     11  C9       123.1800   43.2150    0.1660 C.3   600  NS5600      0.0267
     12  C10      122.4130   44.2210    1.0180 C.2   600  NS5600     -0.0436
     13  C11      121.0990   44.7940    0.4940 C.3   600  NS5600      0.0264
     14  C12      122.9270   44.5760    2.2080 C.2   600  NS5600     -0.0085
     15  C13      122.3300   45.5500    3.1300 C.2   600  NS5600     -0.0010
     16  C14      123.0130   45.7510    4.2670 C.2   600  NS5600     -0.0043
     17  C15      122.6470   46.6910    5.3240 C.2   600  NS5600     -0.0218
     18  C16      121.4920   47.6480    5.1370 C.3   600  NS5600      0.0310
     19  C17      123.4220   46.6620    6.4440 C.2   600  NS5600     -0.0043
     20  C18      123.2460   47.5560    7.5640 C.2   600  NS5600     -0.0003
     21  C19      123.9620   47.4890    8.7010 C.2   600  NS5600     -0.0003
     22  C20      124.9600   46.4690    9.0660 C.2   600  NS5600     -0.0043
     23  C21      125.8560   46.7340   10.0630 C.2   600  NS5600     -0.0218
     24  C22      125.8300   48.0740   10.7600 C.3   600  NS5600      0.0310
     25  C23      126.8540   45.7030   10.4860 C.2   600  NS5600     -0.0043
     26  C24      127.9790   46.0090   11.1560 C.2   600  NS5600     -0.0006
     27  C25      128.9110   44.9240   11.5430 C.2   600  NS5600     -0.0043
     28  C26      130.1940   45.1330   11.9570 C.2   600  NS5600     -0.0218
     29  C27      130.7790   46.5170   12.0170 C.3   600  NS5600      0.0310
     30  C28      131.0370   43.9450   12.2870 C.2   600  NS5600     -0.0043
     31  C29      132.3610   44.0290   12.5870 C.2   600  NS5600     -0.0010
     32  C30      133.1170   42.7860   12.8160 C.2   600  NS5600     -0.0085
     33  C31      134.4620   42.7590   12.9960 C.2   600  NS5600     -0.0439
     34  C32      135.2820   44.0230   13.0220 C.3   600  NS5600      0.0264
     35  C33      135.1530   41.4170   13.1440 C.3   600  NS5600      0.0220
     36  C34      135.6160   41.1520   14.5690 C.3   600  NS5600      0.0043
     37  C35      136.9380   40.3850   14.5670 C.3   600  NS5600      0.0003
     38  C36      137.8880   40.9100   15.6400 C.3   600  NS5600      0.0000
     39  CM3      139.2090   41.3630   15.0270 C.3   600  NS5600      0.0000
     40  CM4      138.1170   39.8660   16.7280 C.3   600  NS5600      0.0000
@<TRIPOS>BOND
     1     8     7    1
     2     7     9    2
     3     7     6    1
     4     9    10    1
     5     6     5    1
     6     5     4    1
     7    10    11    1
     8     3     1    1
     9    11    12    1
    10     2     1    1
    11    13    12    1
    12     4     1    1
    13    12    14    2
    14    14    15    1
    15    15    16    2
    16    16    17    1
    17    18    17    1
    18    17    19    2
    19    19    20    1
    20    20    21    2
    21    21    22    1
    22    22    23    2
    23    23    25    1
    24    23    24    1
    25    25    26    2
    26    26    27    1
    27    27    28    2
    28    28    29    1
    29    28    30    1
    30    30    31    2
    31    31    32    1
    32    32    33    2
    33    33    34    1
    34    33    35    1
    35    35    36    1
    36    37    36    1
    37    37    38    1
    38    39    38    1
    39    38    40    1
