@<TRIPOS>MOLECULE
2i5p_GLC_O_1.pdb
 11 11 0 0 0
SMALL
GASTEIGER

@<TRIPOS>ATOM
      1  C1        48.0340   35.8930  133.3280 C.3   1952  GLC1952     0.1777
      2  C2        47.1280   35.5120  134.5140 C.3   1952  GLC1952     0.2141
      3  C3        46.6540   36.7870  135.2080 C.3   1952  GLC1952     0.2173
      4  C4        47.8750   37.6250  135.6790 C.3   1952  GLC1952     0.2142
      5  C5        48.7310   37.9490  134.4200 C.3   1952  GLC1952     0.1810
      6  C6        49.9690   38.7650  134.6340 C.3   1952  GLC1952     0.2141
      7  O2        46.0430   34.7680  133.9900 O.3   1952  GLC1952    -0.2176
      8  O3        45.8040   36.4220  136.3240 O.3   1952  GLC1952    -0.2175
      9  O4        47.4410   38.8450  136.3090 O.3   1952  GLC1952    -0.2176
     10  O5        49.1490   36.6790  133.7960 O.3   1952  GLC1952    -0.3481
     11  O6        51.0310   37.9970  135.1550 O.3   1952  GLC1952    -0.2176
@<TRIPOS>BOND
     1     1    10    1
     2     1     2    1
     3    10     5    1
     4     7     2    1
     5     5     6    1
     6     5     4    1
     7     2     3    1
     8     6    11    1
     9     3     4    1
    10     3     8    1
    11     4     9    1
