@<TRIPOS>MOLECULE
2i5s_NUC_A_1.pdb
 41 45 0 0 0
SMALL
GASTEIGER

@<TRIPOS>ATOM
      1  C5'       22.9810   -1.8680    6.0150 C.3     2  DU2         0.0347
      2  C4'       21.9950   -0.8240    6.5080 C.3     2  DU2         0.1447
      3  O4'       20.7590   -1.4740    6.8850 O.3     2  DU2        -0.3366
      4  C3'       22.4430   -0.0200    7.7350 C.3     2  DU2         0.1530
      5  O3'       22.0800    1.3220    7.4640 O.3     2  DU2        -0.3139
      6  C2'       21.5880   -0.5670    8.8630 C.3     2  DU2         0.0844
      7  C1'       20.3320   -1.0060    8.1550 C.3     2  DU2         0.2088
      8  N1        19.6730   -2.1580    8.8780 N.am    2  DU2        -0.1790
      9  C2        18.4680   -1.9650    9.5130 C.1     2  DU2         0.2844
     10  O2        17.8990   -0.8960    9.5430 O.2     2  DU2        -0.1918
     11  N3        17.9600   -3.0910   10.1390 N.2     2  DU2        -0.2452
     12  C4        18.5430   -4.3560   10.1870 C.1     2  DU2         0.2182
     13  O4        17.9850   -5.2670   10.7830 O.2     2  DU2        -0.2085
     14  C5        19.8070   -4.4840    9.4920 C.2     2  DU2         0.1242
     15  C6        20.3090   -3.4000    8.8790 C.2     2  DU2         0.0928
     16  P         22.6050    2.5780    8.2710 P.3     3  DG3         0.2141
     17  OP1       22.3080    2.4490    9.7220 O.3     3  DG3        -0.4373
     18  OP2       22.1440    3.7310    7.4580 O.2     3  DG3        -0.5172
     19  O5'       24.1740    2.4010    8.1300 O.3     3  DG3        -0.3114
     20  C5'       24.8730    2.7070    6.9270 C.3     3  DG3         0.1811
     21  C4'       25.7130    3.9450    7.1390 C.3     3  DG3         0.1746
     22  O4'       26.5710    3.7820    8.3170 O.3     3  DG3        -0.3348
     23  C3'       26.6420    4.2440    5.9710 C.3     3  DG3         0.1600
     24  O3'       26.6270    5.6360    5.7530 O.3     3  DG3        -0.2700
     25  C2'       28.0070    3.7610    6.4620 C.3     3  DG3         0.0837
     26  C1'       27.9090    4.0490    7.9510 C.3     3  DG3         0.1980
     27  N9        28.7750    3.2170    8.7820 N.pl3   3  DG3        -0.2374
     28  C8        28.9280    1.8580    8.7120 C.3     3  DG3         0.2245
     29  N7        29.7900    1.4030    9.5760 N.2     3  DG3        -0.2322
     30  C5        30.2250    2.5310   10.2680 C.2     3  DG3         0.2182
     31  C6        31.1490    2.6630   11.3330 C.1     3  DG3         0.2372
     32  O6        31.8160    1.7620   11.9080 O.2     3  DG3        -0.2069
     33  N1        31.2900    4.0020   11.7190 N.2     3  DG3        -0.2485
     34  C2        30.6310    5.0770   11.1590 C.1     3  DG3         0.2531
     35  N2        30.8930    6.3100   11.6750 N.pl3   3  DG3        -0.0226
     36  N3        29.7620    4.9410   10.1610 N.2     3  DG3        -0.3074
     37  C4        29.6030    3.6600    9.7720 C.2     3  DG3         0.2299
     38  P         26.1940    6.2390    4.3370 P.3     4  DA4         0.5326
     39  OP1       25.7340    7.6320    4.5530 O.3     4  DA4        -0.1145
     40  OP2       25.3250    5.2750    3.6450 O.3     4  DA4        -0.1145
     41  O5'       27.5670    6.2220    3.5210 O.2     4  DA4        -0.2224
@<TRIPOS>BOND
     1    41    38    2
     2    40    38    1
     3    38    39    1
     4    38    24    1
     5    24    23    1
     6    23    25    1
     7    23    21    1
     8     1     2    1
     9    25    26    1
    10     2     3    1
    11     2     4    1
    12     3     7    1
    13    20    21    1
    14    20    19    1
    15    21    22    1
    16    18    16    2
    17     5     4    1
    18     5    16    1
    19     4     6    1
    20    26    22    1
    21    26    27    1
    22    19    16    1
    23     7     6    1
    24     7     8    1
    25    16    17    1
    26    28    27    1
    27    28    29    1
    28    27    37    1
    29     8    15    1
    30     8     9   am
    31    15    14    2
    32    14    12    1
    33     9    10    2
    34     9    11    2
    35    29    30    2
    36    37    36    2
    37    37    30    1
    38    11    12    2
    39    36    34    2
    40    12    13    2
    41    30    31    1
    42    34    35    1
    43    34    33    2
    44    31    33    2
    45    31    32    2
