@<TRIPOS>MOLECULE
2i5x_UA5_A_1.pdb
 13 13 0 0 0
SMALL
GASTEIGER

@<TRIPOS>ATOM
      1  O3        18.0510   -7.1440   29.1890 O.3   701  UA5701     -0.2891
      2  S1        19.5270   -7.1390   29.2680 S.3   701  UA5701     -0.1124
      3  O1        20.0840   -8.3470   28.6330 O.3   701  UA5701     -0.2891
      4  O2        19.9970   -6.9760   30.6680 O.3   701  UA5701     -0.2891
      5  N1        19.9940   -5.8450   28.4310 N.pl3 701  UA5701     -0.1365
      6  C3        21.2920   -5.4400   28.4490 C.ar  701  UA5701      0.0874
      7  C6        21.7320   -4.5010   29.3780 C.ar  701  UA5701      0.0176
      8  C2        23.0620   -4.0770   29.3720 C.ar  701  UA5701     -0.0029
      9  C5        23.9570   -4.5910   28.4390 C.ar  701  UA5701     -0.0221
     10  C7        25.4090   -4.1410   28.4450 C.3   701  UA5701      0.0264
     11  C8        25.6000   -2.9660   27.5120 C.3   701  UA5701      0.0050
     12  C4        23.5170   -5.5260   27.5060 C.ar  701  UA5701     -0.0029
     13  C1        22.1860   -5.9450   27.5090 C.ar  701  UA5701      0.0176
@<TRIPOS>BOND
     1    12    13   ar
     2    12     9   ar
     3    13     6   ar
     4    11    10    1
     5     5     6    1
     6     5     2    1
     7     9    10    1
     8     9     8   ar
     9     6     7   ar
    10     3     2    1
    11     1     2    1
    12     2     4    1
    13     8     7   ar
