@<TRIPOS>MOLECULE
2i62_SAH_A_1.pdb
 26 28 0 0 0
SMALL
GASTEIGER

@<TRIPOS>ATOM
      1  N         18.0420   14.8910    7.1700 N.3   4001  SAH4001    -0.1208
      2  CA        19.4000   15.4190    7.5350 C.3   4001  SAH4001     0.1952
      3  CB        19.4200   16.3320    8.7980 C.3   4001  SAH4001     0.0422
      4  CG        19.2950   15.7120   10.2020 C.3   4001  SAH4001     0.0597
      5  SD        19.8920   16.7880   11.5750 S.3   4001  SAH4001    -0.1375
      6  C         20.4490   14.3020    7.5080 C.2   4001  SAH4001     0.3819
      7  O         20.1880   13.1580    7.1100 O.co2 4001  SAH4001    -0.2441
      8  OXT       21.6120   14.5200    7.8390 O.co2 4001  SAH4001    -0.2441
      9  C5'       18.2960   17.0340   12.4090 C.3   4001  SAH4001     0.0899
     10  C4'       17.3320   17.9220   11.6200 C.3   4001  SAH4001     0.1630
     11  O4'       16.0510   17.8720   12.2150 O.3   4001  SAH4001    -0.3153
     12  C3'       17.7400   19.3910   11.5660 C.3   4001  SAH4001     0.2168
     13  O3'       17.8970   19.7960   10.2200 O.3   4001  SAH4001    -0.2175
     14  C2'       16.5770   20.1040   12.2340 C.3   4001  SAH4001     0.2569
     15  O2'       16.2560   21.3670   11.7030 O.3   4001  SAH4001    -0.2130
     16  C1'       15.4320   19.1340   12.0380 C.3   4001  SAH4001     0.3185
     17  N9        14.3550   19.3310   13.0390 N.pl3 4001  SAH4001    -0.1439
     18  C8        14.4950   19.5460   14.4020 C.3   4001  SAH4001     0.3377
     19  N7        13.2680   19.6680   14.9580 N.2   4001  SAH4001    -0.2095
     20  C5        12.3450   19.5300   13.9710 C.2   4001  SAH4001     0.2526
     21  C6        10.9560   19.5930   13.9750 C.2   4001  SAH4001     0.4393
     22  N6        10.2940   19.7930   15.1200 N.pl3 4001  SAH4001     0.2180
     23  N1        10.2610   19.4350   12.7940 N.2   4001  SAH4001     0.0021
     24  C2        10.9320   19.2290   11.5890 C.3   4001  SAH4001     0.5254
     25  N3        12.3110   19.1790   11.5900 N.2   4001  SAH4001    -0.0055
     26  C4        13.0130   19.3350   12.7550 C.2   4001  SAH4001     0.3518
@<TRIPOS>BOND
     1     7     6   ar
     2     1     2    1
     3     6     2    1
     4     6     8   ar
     5     2     3    1
     6     3     4    1
     7     4     5    1
     8    13    12    1
     9    12    10    1
    10    12    14    1
    11     5     9    1
    12    24    25    1
    13    24    23    1
    14    25    26    2
    15    10    11    1
    16    10     9    1
    17    15    14    1
    18    16    11    1
    19    16    14    1
    20    16    17    1
    21    26    17    1
    22    26    20    1
    23    23    21    2
    24    17    18    1
    25    20    21    1
    26    20    19    2
    27    21    22    1
    28    18    19    1
