@<TRIPOS>MOLECULE
2i65_NAD_A_1.pdb
 44 48 0 0 0
SMALL
GASTEIGER

@<TRIPOS>ATOM
      1  PA         4.4550    3.1350    6.2530 P.3   301  NAD301      0.2189
      2  O1A        3.6240    3.0910    7.4720 O.3   301  NAD301     -0.4371
      3  O2A        5.8110    3.6850    6.4880 O.2   301  NAD301     -0.5170
      4  O5B        4.5440    1.6500    5.6120 O.3   301  NAD301     -0.3112
      5  C5B        3.5210    0.6860    5.7450 C.3   301  NAD301      0.1813
      6  C4B        4.1100   -0.7010    6.0140 C.3   301  NAD301      0.1821
      7  O4B        4.9540   -1.0960    4.9510 O.3   301  NAD301     -0.3135
      8  C3B        4.9720   -0.7450    7.2680 C.3   301  NAD301      0.2184
      9  O3B        4.8000   -1.9950    7.8930 O.3   301  NAD301     -0.2174
     10  C2B        6.3990   -0.6190    6.7680 C.3   301  NAD301      0.2570
     11  O2B        7.3170   -1.2450    7.6560 O.3   301  NAD301     -0.2130
     12  C1B        6.3010   -1.2480    5.3760 C.3   301  NAD301      0.3186
     13  N9A        7.1350   -0.5740    4.3690 N.pl3 301  NAD301     -0.1439
     14  C8A        7.1330    0.7590    4.0210 C.3   301  NAD301      0.3377
     15  N7A        8.0420    0.9460    3.0310 N.2   301  NAD301     -0.2095
     16  C5A        8.6110   -0.2580    2.7380 C.2   301  NAD301      0.2526
     17  C6A        9.5960   -0.6630    1.8340 C.2   301  NAD301      0.4393
     18  N6A       10.1490    0.2000    0.9780 N.pl3 301  NAD301      0.2180
     19  N1A        9.9640   -1.9940    1.7860 N.2   301  NAD301      0.0021
     20  C2A        9.3820   -2.9280    2.6170 C.3   301  NAD301      0.5254
     21  N3A        8.4170   -2.5260    3.5090 N.2   301  NAD301     -0.0055
     22  C4A        8.0420   -1.2170    3.5740 C.2   301  NAD301      0.3518
     23  O3         3.6500    3.9760    5.1590 O.3   301  NAD301     -0.2703
     24  PN         4.1420    4.1020    3.6210 P.3   301  NAD301      0.2189
     25  O1N        3.7240    5.4740    3.1950 O.2   301  NAD301     -0.5170
     26  O2N        5.5550    3.6290    3.5360 O.3   301  NAD301     -0.4371
     27  O5D        3.1360    3.0900    2.8850 O.3   301  NAD301     -0.3112
     28  C5D        1.7380    3.3170    2.9470 C.3   301  NAD301      0.1813
     29  C4D        1.1350    3.6740    1.5780 C.3   301  NAD301      0.1799
     30  O4D        1.6980    2.8810    0.5470 O.3   301  NAD301     -0.3327
     31  C3D       -0.3290    3.3020    1.5820 C.3   301  NAD301      0.2158
     32  O3D       -1.0500    4.0760    0.6400 O.3   301  NAD301     -0.2175
     33  C2D       -0.2810    1.8260    1.2430 C.3   301  NAD301      0.2309
     34  O2D       -1.4260    1.4100    0.5440 O.3   301  NAD301     -0.2158
     35  C1D        1.0000    1.6490    0.4380 C.3   301  NAD301      0.2263
     36  N1N        1.8470    0.6110    1.0560 N.pl3 301  NAD301     -0.2787
     37  C2N        1.2960   -0.4040    1.7810 C.3   301  NAD301      0.1244
     38  C3N        2.1080   -1.3640    2.3770 C.2   301  NAD301      0.0544
     39  C7N        1.5250   -2.3200    3.3770 C.2   301  NAD301      0.2818
     40  O7N        2.3880   -2.9130    4.3050 O.2   301  NAD301     -0.2670
     41  N7N        0.2200   -2.5980    3.3700 N.am  301  NAD301     -0.0839
     42  C4N        3.4950   -1.2880    2.2290 C.2   301  NAD301      0.0033
     43  C5N        4.0620   -0.2540    1.4880 C.2   301  NAD301      0.0157
     44  C6N        3.2180    0.6850    0.9100 C.2   301  NAD301      0.0633
@<TRIPOS>BOND
     1    35    30    1
     2    35    36    1
     3    35    33    1
     4    34    33    1
     5    30    29    1
     6    32    31    1
     7    44    36    1
     8    44    43    2
     9    18    17    1
    10    36    37    1
    11    33    31    1
    12    43    42    1
    13    29    31    1
    14    29    28    1
    15    37    38    1
    16    19    17    2
    17    19    20    1
    18    17    16    1
    19    42    38    2
    20    38    39    1
    21    20    21    1
    22    16    15    2
    23    16    22    1
    24    27    28    1
    25    27    24    1
    26    15    14    1
    27    25    24    2
    28    41    39   am
    29    39    40    2
    30    21    22    2
    31    26    24    1
    32    22    13    1
    33    24    23    1
    34    14    13    1
    35    13    12    1
    36     7    12    1
    37     7     6    1
    38    23     1    1
    39    12    10    1
    40     4     5    1
    41     4     1    1
    42     5     6    1
    43     6     8    1
    44     1     3    2
    45     1     2    1
    46    10     8    1
    47    10    11    1
    48     8     9    1
