@<TRIPOS>MOLECULE
2i66_G2R_B_1.pdb
 36 39 0 0 0
SMALL
GASTEIGER

@<TRIPOS>ATOM
      1  O6        13.1140    5.3550  -20.1730 O.2   302  G2R302     -0.2069
      2  C6        14.2540    4.8940  -20.0930 C.1   302  G2R302      0.2372
      3  N1        15.2850    5.6470  -19.5280 N.2   302  G2R302     -0.2485
      4  C2        16.5680    5.1060  -19.4510 C.1   302  G2R302      0.2531
      5  N2        17.5270    5.8430  -18.9050 N.pl3 302  G2R302     -0.0226
      6  N3        16.8080    3.8600  -19.9210 N.2   302  G2R302     -0.3074
      7  C4        15.8240    3.1110  -20.4780 C.2   302  G2R302      0.2300
      8  C5        14.5330    3.6210  -20.5710 C.2   302  G2R302      0.2182
      9  N7        13.7670    2.7040  -21.1500 N.2   302  G2R302     -0.2322
     10  C8        14.5310    1.6530  -21.4120 C.3   302  G2R302      0.2246
     11  N9        15.7800    1.8840  -21.0130 N.pl3 302  G2R302     -0.2354
     12  C1'       16.9170    0.9030  -21.1420 C.3   302  G2R302      0.2293
     13  O4'       17.5820    1.0270  -22.3940 O.3   302  G2R302     -0.3326
     14  C2'       16.5150   -0.5910  -21.1660 C.3   302  G2R302      0.2310
     15  O2'       16.2980   -1.0760  -19.8350 O.3   302  G2R302     -0.2158
     16  C3'       17.7670   -1.2520  -21.7560 C.3   302  G2R302      0.2158
     17  O3'       17.4200   -2.1740  -22.7860 O.3   302  G2R302     -0.2175
     18  C4'       18.5440   -0.0500  -22.3320 C.3   302  G2R302      0.1799
     19  C5'       19.1870   -0.0890  -23.7240 C.3   302  G2R302      0.1813
     20  O5'       19.6670    1.2420  -23.9530 O.3   302  G2R302     -0.3112
     21  PA        20.6860    1.6870  -25.1020 P.3   302  G2R302      0.2189
     22  O1A       21.7660    0.6890  -25.2470 O.2   302  G2R302     -0.5170
     23  O2A       21.0320    3.1090  -24.8240 O.3   302  G2R302     -0.4371
     24  O3A       19.7930    1.5630  -26.4370 O.3   302  G2R302     -0.2703
     25  PB        18.2530    2.0580  -26.4850 P.3   302  G2R302      0.2189
     26  O2B       17.5490    1.2440  -27.5150 O.2   302  G2R302     -0.5170
     27  O1B       17.7030    2.1540  -25.1010 O.3   302  G2R302     -0.4371
     28  O5X       18.4050    3.5670  -27.0750 O.3   302  G2R302     -0.3112
     29  C5X       19.0590    3.8130  -28.3570 C.3   302  G2R302      0.1812
     30  C4X       18.0880    4.1680  -29.5020 C.3   302  G2R302      0.1780
     31  O4X       17.0570    5.0430  -29.0460 O.3   302  G2R302     -0.3482
     32  C1X       17.3550    6.3990  -29.4440 C.3   302  G2R302      0.1777
     33  C2X       18.4580    6.3600  -30.4900 C.3   302  G2R302      0.2140
     34  O2X       17.9110    6.9310  -31.6840 O.3   302  G2R302     -0.2176
     35  C3X       18.7280    4.8820  -30.7080 C.3   302  G2R302      0.2140
     36  O3X       18.0660    4.4710  -31.9180 O.3   302  G2R302     -0.2176
@<TRIPOS>BOND
     1    36    35    1
     2    34    33    1
     3    35    33    1
     4    35    30    1
     5    33    32    1
     6    30    31    1
     7    30    29    1
     8    32    31    1
     9    29    28    1
    10    26    25    2
    11    28    25    1
    12    25    24    1
    13    25    27    1
    14    24    21    1
    15    22    21    2
    16    21    23    1
    17    21    20    1
    18    20    19    1
    19    19    18    1
    20    17    16    1
    21    13    18    1
    22    13    12    1
    23    18    16    1
    24    16    14    1
    25    10     9    1
    26    10    11    1
    27    14    12    1
    28    14    15    1
    29     9     8    2
    30    12    11    1
    31    11     7    1
    32     8     7    1
    33     8     2    1
    34     7     6    2
    35     1     2    2
    36     2     3    2
    37     6     4    2
    38     3     4    2
    39     4     5    1
