@<TRIPOS>MOLECULE
2i66_G1R_A_1.pdb
 36 39 0 0 0
SMALL
GASTEIGER

@<TRIPOS>ATOM
      1  O6         7.0130   -5.5990   10.1140 O.2   301  G1R301     -0.2069
      2  C6         7.5490   -4.4880   10.0700 C.1   301  G1R301      0.2372
      3  N1         8.4360   -4.0620   11.0810 N.2   301  G1R301     -0.2485
      4  C2         9.0250   -2.7830   10.9790 C.1   301  G1R301      0.2531
      5  N2         9.8690   -2.3670   11.9310 N.pl3 301  G1R301     -0.0226
      6  N3         8.7380   -1.9810    9.9270 N.2   301  G1R301     -0.3074
      7  C4         7.8890   -2.3650    8.9460 C.2   301  G1R301      0.2300
      8  C5         7.2840   -3.6260    9.0080 C.2   301  G1R301      0.2182
      9  N7         6.5060   -3.7550    7.9400 N.2   301  G1R301     -0.2322
     10  C8         6.6000   -2.6320    7.2330 C.3   301  G1R301      0.2246
     11  N9         7.4370   -1.7820    7.8210 N.pl3 301  G1R301     -0.2354
     12  C1'        7.7690   -0.5670    7.3620 C.3   301  G1R301      0.2293
     13  O4'        6.8840    0.3060    6.7920 O.3   301  G1R301     -0.3326
     14  C2'        9.1900    0.0010    7.3300 C.3   301  G1R301      0.2310
     15  O2'        9.6670    0.1620    8.6650 O.3   301  G1R301     -0.2158
     16  C3'        8.9800    1.3730    6.7030 C.3   301  G1R301      0.2158
     17  O3'        9.7660    2.3590    7.3980 O.3   301  G1R301     -0.2175
     18  C4'        7.4840    1.6260    6.9260 C.3   301  G1R301      0.1799
     19  C5'        7.0220    2.6530    5.8550 C.3   301  G1R301      0.1813
     20  O5'        5.8670    3.4470    6.2520 O.3   301  G1R301     -0.3112
     21  PA         4.3150    2.9550    6.0310 P.3   301  G1R301      0.2189
     22  O1A        3.5580    3.0970    7.2930 O.3   301  G1R301     -0.4371
     23  O2A        4.2960    1.6380    5.2830 O.2   301  G1R301     -0.5170
     24  O3A        3.7360    4.0790    5.0540 O.3   301  G1R301     -0.2703
     25  PB         4.1240    4.0320    3.4650 P.3   301  G1R301      0.2189
     26  O2B        3.5910    5.3770    2.9030 O.2   301  G1R301     -0.5170
     27  O1B        5.5660    3.5320    3.3380 O.3   301  G1R301     -0.4371
     28  O5X        3.1250    2.8380    2.8890 O.3   301  G1R301     -0.3112
     29  C5X        1.6470    3.0460    2.8760 C.3   301  G1R301      0.1812
     30  C4X        1.0370    3.5560    1.5380 C.3   301  G1R301      0.1780
     31  O4X        1.5620    2.8300    0.4250 O.3   301  G1R301     -0.3482
     32  C1X        0.7410    1.6300    0.2550 C.3   301  G1R301      0.1777
     33  C2X       -0.6570    1.9930    0.7020 C.3   301  G1R301      0.2140
     34  O2X       -1.3380    2.3190   -0.5140 O.3   301  G1R301     -0.2176
     35  C3X       -0.4810    3.3300    1.4170 C.3   301  G1R301      0.2140
     36  O3X       -1.0260    4.3860    0.6130 O.3   301  G1R301     -0.2176
@<TRIPOS>BOND
     1    34    33    1
     2    32    31    1
     3    32    33    1
     4    31    30    1
     5    36    35    1
     6    33    35    1
     7    35    30    1
     8    30    29    1
     9    29    28    1
    10    28    25    1
    11    26    25    2
    12    27    25    1
    13    25    24    1
    14    24    21    1
    15    23    21    2
    16    19    20    1
    17    19    18    1
    18    21    20    1
    19    21    22    1
    20    16    18    1
    21    16    14    1
    22    16    17    1
    23    13    18    1
    24    13    12    1
    25    10    11    1
    26    10     9    1
    27    14    12    1
    28    14    15    1
    29    12    11    1
    30    11     7    1
    31     9     8    2
    32     7     8    1
    33     7     6    2
    34     8     2    1
    35     6     4    2
    36     2     1    2
    37     2     3    2
    38     4     3    2
    39     4     5    1
