@<TRIPOS>MOLECULE
2i67_APR_A_1.pdb
 36 39 0 0 0
SMALL
GASTEIGER

@<TRIPOS>ATOM
      1  N1         8.5640   -2.2990    0.9340 N.2   301  APR301      0.0021
      2  C2         8.2570   -1.2240    0.1930 C.3   301  APR301      0.5254
      3  N3         6.9950   -0.7700    0.0090 N.2   301  APR301     -0.0055
      4  C4         5.9430   -1.4150    0.5590 C.2   301  APR301      0.3518
      5  C5         6.1930   -2.6090    1.3910 C.2   301  APR301      0.2526
      6  C6         7.6120   -3.0280    1.5650 C.2   301  APR301      0.4393
      7  N6         7.9330   -4.1040    2.3150 N.pl3 301  APR301      0.2180
      8  N7         4.9950   -3.0520    1.8000 N.2   301  APR301     -0.2095
      9  C8         4.0430   -2.2150    1.2900 C.3   301  APR301      0.3377
     10  N9         4.6180   -1.2560    0.5210 N.pl3 301  APR301     -0.1439
     11  C1'        3.9690   -0.1480   -0.1940 C.3   301  APR301      0.3186
     12  C2'        2.4790   -0.3010   -0.4950 C.3   301  APR301      0.2570
     13  O2'        2.2620    0.3710   -1.7160 O.3   301  APR301     -0.2130
     14  C3'        1.7800    0.8590    0.1440 C.3   301  APR301      0.2184
     15  O3'        0.5400    0.4900    0.7160 O.3   301  APR301     -0.2174
     16  O4'        4.1110    0.9940    0.6590 O.3   301  APR301     -0.3135
     17  C4'        2.8670    1.6860    0.8240 C.3   301  APR301      0.1821
     18  C5'        2.7400    2.1990    2.2410 C.3   301  APR301      0.1813
     19  O5'        3.4450    3.4170    2.0350 O.3   301  APR301     -0.3112
     20  PA         4.5930    4.0090    3.0300 P.3   301  APR301      0.2189
     21  O1A        4.1080    3.7900    4.4400 O.3   301  APR301     -0.4371
     22  O2A        4.7430    5.3390    2.3230 O.2   301  APR301     -0.5170
     23  O3A        5.8140    2.9900    2.7850 O.3   301  APR301     -0.2703
     24  PB         7.1440    2.8130    3.7070 P.3   301  APR301      0.2189
     25  O1B        6.9510    3.2410    5.1400 O.3   301  APR301     -0.4371
     26  O2B        8.2870    3.3570    2.8890 O.2   301  APR301     -0.5170
     27  O5D        7.2750    1.1910    3.7380 O.3   301  APR301     -0.3112
     28  C5D        8.4620    0.5090    3.3420 C.3   301  APR301      0.1813
     29  O4D        9.9740   -1.2340    4.0350 O.3   301  APR301     -0.3237
     30  O1D       10.6410   -2.9250    5.4610 O.3   301  APR301     -0.1869
     31  C1D       10.3820   -1.5180    5.3740 C.3   301  APR301      0.3023
     32  O2D        9.0490   -2.0970    7.3320 O.3   301  APR301     -0.2148
     33  C2D        9.2250   -1.1320    6.2860 C.3   301  APR301      0.2433
     34  O3D        7.2330   -2.2510    5.4440 O.3   301  APR301     -0.2175
     35  C3D        8.0130   -1.0460    5.3730 C.3   301  APR301      0.2168
     36  C4D        8.5830   -0.8900    3.9670 C.3   301  APR301      0.1807
@<TRIPOS>BOND
     1    13    12    1
     2    12    11    1
     3    12    14    1
     4    11    10    1
     5    11    16    1
     6     3     2    1
     7     3     4    2
     8    14    15    1
     9    14    17    1
    10     2     1    1
    11    10     4    1
    12    10     9    1
    13     4     5    1
    14    16    17    1
    15    17    18    1
    16     1     6    2
    17     9     8    1
    18     5     6    1
    19     5     8    2
    20     6     7    1
    21    19    18    1
    22    19    20    1
    23    22    20    2
    24    23    20    1
    25    23    24    1
    26    26    24    2
    27    20    21    1
    28    28    27    1
    29    28    36    1
    30    24    27    1
    31    24    25    1
    32    36    29    1
    33    36    35    1
    34    29    31    1
    35    35    34    1
    36    35    33    1
    37    31    30    1
    38    31    33    1
    39    33    32    1
