@<TRIPOS>MOLECULE
2i6a_5I5_A_1.pdb
 19 21 0 0 0
SMALL
GASTEIGER

@<TRIPOS>ATOM
      1  N1         9.2040  -23.2940   19.1150 N.2   500  5I5500     -0.0027
      2  C1         8.7190  -23.4210   20.3710 C.2   500  5I5500      0.4069
      3  C2         8.5670  -22.3240   21.2160 C.3   500  5I5500      0.2499
      4  C3         8.9590  -21.0670   20.6700 C.2   500  5I5500      0.3220
      5  N2         9.4360  -20.9480   19.4080 N.2   500  5I5500     -0.0106
      6  C4         9.5560  -22.0680   18.6690 C.3   500  5I5500      0.5248
      7  C5         8.1130  -22.0690   22.5680 C.2   500  5I5500      0.0715
      8  C6         8.2590  -20.6790   22.7740 C.2   500  5I5500      0.1800
      9  N3         8.7520  -20.0790   21.6460 N.pl3 500  5I5500     -0.1464
     10  I          7.4000  -23.3900   23.9530 I     500  5I5500     -0.0424
     11  N4         8.4410  -24.6810   20.7050 N.pl3 500  5I5500      0.2117
     12  C7         8.0150  -16.4550   21.7470 C.3   500  5I5500      0.2159
     13  C8         7.6100  -17.9290   21.5380 C.3   500  5I5500      0.2572
     14  C9         8.9670  -18.6270   21.4660 C.3   500  5I5500      0.3212
     15  O3         9.6500  -17.9920   22.5080 O.3   500  5I5500     -0.3159
     16  C10        9.4020  -16.6020   22.4110 C.3   500  5I5500      0.1524
     17  O2         8.1030  -15.8420   20.4740 O.3   500  5I5500     -0.2175
     18  O1         6.7620  -18.0930   20.3650 O.3   500  5I5500     -0.2130
     19  C11        9.4530  -15.9540   23.7960 C.3   500  5I5500      0.0350
@<TRIPOS>BOND
     1     6     1    1
     2     6     5    1
     3     1     2    2
     4     5     4    2
     5    18    13    1
     6     2    11    1
     7     2     3    1
     8    17    12    1
     9     4     3    1
    10     4     9    1
    11     3     7    1
    12    14    13    1
    13    14     9    1
    14    14    15    1
    15    13    12    1
    16     9     8    1
    17    12    16    1
    18    16    15    1
    19    16    19    1
    20     7     8    2
    21     7    10    1
