@<TRIPOS>MOLECULE
2i6b_89I_A_1.pdb
 30 33 0 0 0
SMALL
GASTEIGER

@<TRIPOS>ATOM
      1  C1         5.4310   -2.7960   30.0430 C.3   500  89I500      0.3920
      2  N2         4.4190   -3.0710   29.2520 N.2   500  89I500     -0.2138
      3  C3         4.7550   -3.0830   27.9580 C.2   500  89I500      0.1152
      4  C4         5.9930   -2.8350   27.4290 C.3   500  89I500      0.1837
      5  C5         6.9530   -2.5590   28.3860 C.2   500  89I500      0.3987
      6  N6         6.6810   -2.5210   29.6860 N.2   500  89I500     -0.0325
      7  C8         6.2730   -2.9550   26.0070 C.ar  500  89I500     -0.0044
      8  C9         6.2180   -4.2190   25.5030 C.ar  500  89I500     -0.0020
      9  C10        6.4990   -4.4980   24.1820 C.ar  500  89I500      0.0142
     10  C11        6.8320   -3.5190   23.2900 C.ar  500  89I500      0.0479
     11  C12        6.8550   -2.2340   23.7990 C.ar  500  89I500      0.0142
     12  C13        6.5930   -1.9570   25.1290 C.ar  500  89I500     -0.0020
     13  C18        0.7700   -3.2230   25.0930 C.ar  500  89I500      0.1085
     14  N19       -0.0470   -3.0390   24.0520 N.ar  500  89I500     -0.2285
     15  C20        0.5830   -2.9290   22.8590 C.ar  500  89I500      0.1319
     16  C21        1.9640   -2.9820   22.7140 C.ar  500  89I500      0.0350
     17  C22        2.7630   -3.1410   23.8310 C.ar  500  89I500      0.0127
     18  C23        2.1300   -3.2900   25.0350 C.ar  500  89I500      0.0612
     19  C27        0.6130   -2.5050   20.4470 C.3   500  89I500      0.1242
     20  C28       -0.2360   -2.9250   19.2490 C.3   500  89I500      0.1636
     21  O29       -1.5580   -2.4180   19.4650 O.3   500  89I500     -0.3501
     22  C30       -2.1700   -3.0110   20.5860 C.3   500  89I500      0.1636
     23  C31       -1.5180   -2.4170   21.8120 C.3   500  89I500      0.1242
     24  N32       -0.1540   -2.7770   21.6690 N.pl3 500  89I500     -0.2881
     25  C41        3.7200   -3.3910   27.0540 C.1   500  89I500     -0.0442
     26  C42        2.8540   -3.4130   26.1980 C.1   500  89I500     -0.0570
     27  N43        7.1100   -3.9290   21.9500 N.pl3 500  89I500     -0.3041
     28  C44        7.6530   -2.9050   21.0350 C.3   500  89I500      0.1122
     29  C48        8.0330   -5.0450   22.1150 C.3   500  89I500      0.1122
     30  N52        8.2440   -2.2920   27.9870 N.pl3 500  89I500      0.2114
@<TRIPOS>BOND
     1    20    21    1
     2    20    19    1
     3    21    22    1
     4    19    24    1
     5    22    23    1
     6    28    27    1
     7    24    23    1
     8    24    15    1
     9    27    29    1
    10    27    10    1
    11    16    15   ar
    12    16    17   ar
    13    15    14   ar
    14    10    11   ar
    15    10     9   ar
    16    11    12   ar
    17    17    18   ar
    18    14    13   ar
    19     9     8   ar
    20    18    13   ar
    21    18    26    1
    22    12     7   ar
    23     8     7   ar
    24     7     4    1
    25    26    25    3
    26    25     3    1
    27     4     3    1
    28     4     5    1
    29     3     2    2
    30    30     5    1
    31     5     6    2
    32     2     1    1
    33     6     1    1
