@<TRIPOS>MOLECULE
2i6k_EA2_A_1.pdb
 12 11 0 0 0
SMALL
GASTEIGER

@<TRIPOS>ATOM
      1  O1P        0.2570    7.2490   -5.2840 O.2   401  EA2401     -0.2221
      2  O2P        1.3790    7.1360   -3.0760 O.3   401  EA2401     -0.1143
      3  P1         0.0830    7.4890   -3.8620 P.3   401  EA2401      0.5373
      4  O4P       -1.1130    6.6040   -3.2600 O.3   401  EA2401     -0.2261
      5  O5P       -0.1220    6.6590   -0.9390 O.3   401  EA2401     -0.4370
      6  O6P       -2.5970    7.2300   -1.2450 O.2   401  EA2401     -0.5169
      7  P2        -1.4790    6.4300   -1.7150 P.3   401  EA2401      0.2230
      8  O7P       -1.7740    4.8870   -1.5470 O.3   401  EA2401     -0.3122
      9  C1        -2.8560    4.2680   -2.1930 C.3   401  EA2401      0.1696
     10  C2        -3.8300    3.7310   -1.1540 C.3   401  EA2401      0.1417
     11  N3        -3.6090    2.3000   -0.9440 N.3   401  EA2401     -0.1286
     12  O3P       -0.2690    8.9670   -3.5010 O.3   401  EA2401     -0.1143
@<TRIPOS>BOND
     1     1     3    2
     2     3    12    1
     3     3     4    1
     4     3     2    1
     5     4     7    1
     6     9     8    1
     7     9    10    1
     8     7     8    1
     9     7     6    2
    10     7     5    1
    11    10    11    1
