@<TRIPOS>MOLECULE
2i6o_III_B_1.pdb
 46 46 0 0 0
SMALL
GASTEIGER

@<TRIPOS>ATOM
      1  N         14.9330    9.3730   -4.5000 N.3   171  ASN171     -0.1225
      2  CA        15.4350    8.7330   -5.7470 C.3   171  ASN171      0.1785
      3  C         16.7680    9.3530   -6.1730 C.2   171  ASN171      0.2597
      4  O         17.3790   10.1080   -5.4120 O.2   171  ASN171     -0.2718
      5  CB        14.3970    8.8920   -6.8630 C.3   171  ASN171      0.1169
      6  CG        14.0460   10.3430   -7.1390 C.2   171  ASN171      0.2627
      7  OD1       13.9540   10.7480   -8.2980 O.2   171  ASN171     -0.2716
      8  ND2       13.8330   11.1270   -6.0840 N.am  171  ASN171     -0.0877
      9  N         17.2210    9.0200   -7.3790 N.am  172  LYS172     -0.1966
     10  CA        18.4720    9.5580   -7.9160 C.3   172  LYS172      0.1728
     11  C         19.6470    9.3210   -6.9700 C.2   172  LYS172      0.2616
     12  O         20.2920   10.2700   -6.5210 O.2   172  LYS172     -0.2715
     13  CB        18.3230   11.0650   -8.1630 C.3   172  LYS172      0.0311
     14  CG        19.3570   11.6750   -9.1060 C.3   172  LYS172      0.0038
     15  CD        19.1060   11.2910  -10.5630 C.3   172  LYS172      0.0206
     16  CE        20.0660   12.0360  -11.4930 C.3   172  LYS172      0.1093
     17  NZ        19.8130   11.7750  -12.9400 N.3   172  LYS172     -0.1314
     18  N         19.9380    8.0620   -6.6680 N.am  173  TYR173     -0.1960
     19  CA        21.0390    7.7680   -5.7590 C.3   173  TYR173      0.1771
     20  C         22.3330    7.3860   -6.4610 C.2   173  TYR173      0.2620
     21  O         22.3320    7.0390   -7.6430 O.2   173  TYR173     -0.2715
     22  CB        20.6380    6.6620   -4.7840 C.3   173  TYR173      0.0574
     23  CG        19.3930    6.9930   -3.9910 C.ar  173  TYR173     -0.0198
     24  CD1       18.2070    6.2870   -4.1980 C.ar  173  TYR173     -0.0011
     25  CD2       19.3930    8.0290   -3.0540 C.ar  173  TYR173     -0.0011
     26  CE1       17.0490    6.6000   -3.4970 C.ar  173  TYR173      0.0371
     27  CE2       18.2400    8.3540   -2.3400 C.ar  173  TYR173      0.0371
     28  CZ        17.0730    7.6360   -2.5700 C.ar  173  TYR173      0.1490
     29  OH        15.9340    7.9790   -1.8890 O.3   173  TYR173     -0.3998
     30  P         15.4440    7.1560   -0.6890 P.3   173  TYR173      0.5887
     31  O1P       14.0810    7.6060   -0.3220 O.3   173  TYR173     -0.1039
     32  O2P       15.4130    5.7170   -1.0500 O.2   173  TYR173     -0.2114
     33  O3P       16.3630    7.3580    0.4580 O.3   173  TYR173     -0.1039
     34  N         23.4400    7.4660   -5.7280 N.am  174  GLY174     -0.1940
     35  CA        24.7260    7.1100   -6.3020 C.3   174  GLY174      0.2014
     36  C         25.8280    8.1560   -6.2150 C.2   174  GLY174      0.2640
     37  O         26.7810    8.1030   -6.9950 O.2   174  GLY174     -0.2714
     38  N         25.7200    9.1040   -5.2840 N.am  175  ASN175     -0.1936
     39  CA        26.7530   10.1270   -5.1450 C.3   175  ASN175      0.2069
     40  C         28.1230    9.4910   -4.8840 C.2   175  ASN175      0.3847
     41  O         28.1590    8.2970   -4.5080 O.co2 175  ASN175     -0.2437
     42  CB        26.4020   11.0910   -4.0040 C.3   175  ASN175      0.1217
     43  CG        27.5340   11.2430   -2.9960 C.2   175  ASN175      0.2631
     44  OD1       27.5800   10.5420   -1.9820 O.2   175  ASN175     -0.2716
     45  ND2       28.4650   12.1450   -3.2830 N.am  175  ASN175     -0.0877
     46  OXT       29.1460   10.1990   -5.0440 O.co2 175  ASN175     -0.2437
@<TRIPOS>BOND
     1    17    16    1
     2    16    15    1
     3    15    14    1
     4    14    13    1
     5     7     6    2
     6    13    10    1
     7    10     9    1
     8    10    11    1
     9    21    20    2
    10     9     3   am
    11     6     5    1
    12     6     8   am
    13    37    36    2
    14    11    18   am
    15    11    12    2
    16     5     2    1
    17    18    19    1
    18    20    19    1
    19    20    34   am
    20    35    36    1
    21    35    34    1
    22    36    38   am
    23     3     2    1
    24     3     4    2
    25    19    22    1
    26     2     1    1
    27    38    39    1
    28    39    40    1
    29    39    42    1
    30    46    40   ar
    31    40    41   ar
    32    22    23    1
    33    24    23   ar
    34    24    26   ar
    35    42    43    1
    36    23    25   ar
    37    26    28   ar
    38    45    43   am
    39    25    27   ar
    40    43    44    2
    41    28    27   ar
    42    28    29    1
    43    29    30    1
    44    32    30    2
    45    30    31    1
    46    30    33    1
