@<TRIPOS>MOLECULE
2i6p_4NP_A_1.pdb
 14 14 0 0 0
SMALL
GASTEIGER

@<TRIPOS>ATOM
      1  P         18.0910    3.2400   16.8410 P.3   401  4NP401      0.5887
      2  O1        19.7350    3.2150   17.1960 O.3   401  4NP401     -0.3998
      3  O2        17.5300    4.1620   17.9000 O.3   401  4NP401     -0.1039
      4  O3        17.6060    1.7930   16.9200 O.3   401  4NP401     -0.1039
      5  O4        18.0390    3.7830   15.4460 O.2   401  4NP401     -0.2114
      6  C1        20.3640    2.7090   18.3110 C.ar  401  4NP401      0.1491
      7  C2        21.5290    1.8760   18.1680 C.ar  401  4NP401      0.0391
      8  C3        22.1920    1.3500   19.3160 C.ar  401  4NP401      0.0272
      9  C4        21.6920    1.6500   20.6200 C.ar  401  4NP401      0.1431
     10  C5        20.5360    2.4730   20.7960 C.ar  401  4NP401      0.0272
     11  C6        19.8700    3.0050   19.6500 C.ar  401  4NP401      0.0391
     12  N         22.3880    1.0910   21.8360 N.pl3 401  4NP401      0.0577
     13  O5        21.9320    1.3770   22.9430 O.2   401  4NP401     -0.1261
     14  O6        23.3820    0.3700   21.6720 O.2   401  4NP401     -0.1261
@<TRIPOS>BOND
     1     5     1    2
     2     1     4    1
     3     1     2    1
     4     1     3    1
     5     2     6    1
     6     7     6   ar
     7     7     8   ar
     8     6    11   ar
     9     8     9   ar
    10    11    10   ar
    11     9    10   ar
    12     9    12    1
    13    14    12    2
    14    12    13    2
