@<TRIPOS>MOLECULE
2i72_VA1_A_1.pdb
 18 19 0 0 0
SMALL
GASTEIGER

@<TRIPOS>ATOM
      1  O24       -5.7190    9.8390   51.3750 O.2   964  VA1964      0.0000
      2  C23       -6.8250    9.2880   51.4780 C.2   964  VA1964      0.0000
      3  N22       -6.9880    8.1230   51.9970 N.am  964  VA1964      0.0000
      4  C17       -8.1510    7.6340   52.2240 C.2   964  VA1964      0.0000
      5  O18       -9.1950    8.2680   52.0380 O.2   964  VA1964      0.0000
      6  C12       -5.8300    7.2950   52.3390 C.3   964  VA1964      0.0000
      7  C14       -5.3530    7.3740   53.7820 C.ar  964  VA1964      0.0000
      8  C13       -4.8830    6.1980   54.3670 C.ar  964  VA1964      0.0000
      9  C10       -4.4050    6.1840   55.6770 C.ar  964  VA1964      0.0000
     10  C9        -3.8900    5.0230   56.3860 C.ar  964  VA1964      0.0000
     11  C15       -5.3300    8.5790   54.5190 C.ar  964  VA1964      0.0000
     12  C16       -4.8750    8.5870   55.8490 C.ar  964  VA1964      0.0000
     13  C11       -4.4140    7.3730   56.3860 C.ar  964  VA1964      0.0000
     14  S19       -3.7840    7.1590   57.9320 S.2   964  VA1964      0.0000
     15  C8        -3.5090    5.4740   57.6460 C.ar  964  VA1964      0.0000
     16  B7        -2.9810    4.5280   58.7420 B     964  VA1964      0.0000
     17  O20       -3.8110    3.2510   58.8410 O.3   964  VA1964      0.0000
     18  O21       -2.7030    5.0980   60.1320 O.3   964  VA1964      0.0000
@<TRIPOS>BOND
     1     1     2    2
     2     2     3   am
     3     3     4   am
     4     3     6    1
     5     5     4    2
     6     6     7    1
     7     7     8   ar
     8     7    11   ar
     9     8     9   ar
    10    11    12   ar
    11     9    10   ar
    12     9    13   ar
    13    12    13   ar
    14    10    15   ar
    15    13    14   ar
    16    15    14   ar
    17    15    16    1
    18    16    17    1
    19    16    18    1
