@<TRIPOS>MOLECULE
2i76_NDP_A_1.pdb
 48 52 0 0 0
SMALL
GASTEIGER

@<TRIPOS>ATOM
      1  PA         3.5140   43.1350    3.4150 P.3   301  NDP301      0.2189
      2  O1A        4.8160   43.1780    4.0430 O.3   301  NDP301     -0.4371
      3  O2A        2.4970   44.2440    3.5530 O.2   301  NDP301     -0.5170
      4  O5B        3.7590   42.8470    1.8490 O.3   301  NDP301     -0.3112
      5  C5B        4.4400   43.8440    1.1150 C.3   301  NDP301      0.1813
      6  C4B        4.4950   43.3110   -0.2940 C.3   301  NDP301      0.1820
      7  O4B        3.0970   43.2480   -0.7620 O.3   301  NDP301     -0.3136
      8  C3B        5.2110   44.2070   -1.2160 C.3   301  NDP301      0.2157
      9  O3B        5.9360   43.4260   -2.1570 O.3   301  NDP301     -0.2175
     10  C2B        4.1910   45.0360   -1.8550 C.3   301  NDP301      0.2314
     11  O2B        4.4640   45.7780   -3.0510 O.3   301  NDP301     -0.2630
     12  C1B        3.0330   44.1000   -1.9140 C.3   301  NDP301      0.3158
     13  N9A        1.7720   44.9150   -1.9610 N.pl3 301  NDP301     -0.1439
     14  C8A        1.1790   45.6970   -0.9290 C.3   301  NDP301      0.3377
     15  N7A        0.0750   46.2820   -1.3510 N.2   301  NDP301     -0.2095
     16  C5A       -0.0920   45.9240   -2.6550 C.2   301  NDP301      0.2526
     17  C6A       -1.0780   46.2120   -3.6650 C.2   301  NDP301      0.4393
     18  N6A       -2.1120   47.0250   -3.3840 N.pl3 301  NDP301      0.2180
     19  N1A       -0.9460   45.6640   -4.9300 N.2   301  NDP301      0.0021
     20  C2A        0.1130   44.8320   -5.2190 C.3   301  NDP301      0.5254
     21  N3A        1.0920   44.4960   -4.3330 N.2   301  NDP301     -0.0055
     22  C4A        0.9290   45.0720   -3.0540 C.2   301  NDP301      0.3518
     23  O3         2.8110   41.7870    3.7360 O.3   301  NDP301     -0.2703
     24  PN         2.0830   40.7370    4.7790 P.3   301  NDP301      0.2189
     25  O1N        1.0520   41.7180    5.1340 O.2   301  NDP301     -0.5170
     26  O2N        3.2620   40.4690    5.6690 O.3   301  NDP301     -0.4371
     27  O5D        1.5140   39.3370    4.3050 O.3   301  NDP301     -0.3112
     28  C5D        1.5570   38.9000    2.9180 C.3   301  NDP301      0.1813
     29  C4D        0.9200   37.4780    2.8920 C.3   301  NDP301      0.1799
     30  O4D        1.6200   36.6460    3.8250 O.3   301  NDP301     -0.3327
     31  C3D       -0.5510   37.4440    3.3160 C.3   301  NDP301      0.2158
     32  O3D       -1.2450   36.5400    2.4520 O.3   301  NDP301     -0.2175
     33  C2D       -0.5230   37.0340    4.7800 C.3   301  NDP301      0.2309
     34  O2D       -1.7640   36.4750    5.1820 O.3   301  NDP301     -0.2158
     35  C1D        0.7180   36.0670    4.7840 C.3   301  NDP301      0.2263
     36  N1N        1.4120   35.9490    6.1290 N.pl3 301  NDP301     -0.2787
     37  C2N        2.0120   37.1170    6.7440 C.3   301  NDP301      0.1244
     38  C3N        2.6630   36.9040    8.0530 C.2   301  NDP301      0.0544
     39  C7N        3.3010   38.0270    8.7610 C.2   301  NDP301      0.2818
     40  O7N        3.8470   37.9110    9.8940 O.2   301  NDP301     -0.2670
     41  N7N        3.3210   39.2720    8.2030 N.am  301  NDP301     -0.0839
     42  C4N        2.6550   35.5950    8.6160 C.2   301  NDP301      0.0033
     43  C5N        2.0740   34.4990    8.0090 C.2   301  NDP301      0.0157
     44  C6N        1.4500   34.6690    6.7670 C.2   301  NDP301      0.0633
     45  P2B        5.8000   45.8170   -3.8220 P.3   301  NDP301      0.5328
     46  O1X        5.4760   46.7500   -4.9060 O.2   301  NDP301     -0.2224
     47  O2X        6.1210   44.4620   -4.3340 O.3   301  NDP301     -0.1145
     48  O3X        6.9210   46.3430   -2.9340 O.3   301  NDP301     -0.1145
@<TRIPOS>BOND
     1    20    19    1
     2    20    21    1
     3    19    17    2
     4    46    45    2
     5    47    45    1
     6    21    22    2
     7    45    11    1
     8    45    48    1
     9    17    18    1
    10    17    16    1
    11    22    16    1
    12    22    13    1
    13    11    10    1
    14    16    15    2
    15     9     8    1
    16    13    12    1
    17    13    14    1
    18    12    10    1
    19    12     7    1
    20    10     8    1
    21    15    14    1
    22     8     6    1
    23     7     6    1
    24     6     5    1
    25     5     4    1
    26     4     1    1
    27    32    31    1
    28    29    28    1
    29    29    31    1
    30    29    30    1
    31    28    27    1
    32    31    33    1
    33     1     3    2
    34     1    23    1
    35     1     2    1
    36    23    24    1
    37    30    35    1
    38    27    24    1
    39    24    25    2
    40    24    26    1
    41    33    35    1
    42    33    34    1
    43    35    36    1
    44    36    37    1
    45    36    44    1
    46    37    38    1
    47    44    43    2
    48    43    42    1
    49    38    42    2
    50    38    39    1
    51    41    39   am
    52    39    40    2
