@<TRIPOS>MOLECULE
2i78_KIQ_B_1.pdb
 31 34 0 0 0
SMALL
GASTEIGER

@<TRIPOS>ATOM
      1  C4       -18.1330   -6.4410   61.0340 C.2   901  KIQ901      0.0286
      2  C5       -19.3750   -6.7940   61.7260 C.2   901  KIQ901      0.2451
      3  C8       -20.3200   -4.5200   61.3530 C.3   901  KIQ901      0.1186
      4  C15      -24.0170   -4.4850   60.6140 C.ar  901  KIQ901      0.2383
      5  C20      -18.1340   -5.9920   59.7540 C.2   901  KIQ901     -0.0255
      6  C21      -16.8650   -5.7630   58.9570 C.3   901  KIQ901      0.0317
      7  C22      -15.6410   -5.7070   59.8670 C.3   901  KIQ901      0.0469
      8  C24      -14.2170   -6.5360   57.9740 C.ar  901  KIQ901      0.0300
      9  F31      -13.5090   -4.0080   60.4530 F     901  KIQ901     -0.2044
     10  C30      -13.3710   -4.8180   59.4060 C.ar  901  KIQ901      0.1386
     11  C29      -12.1940   -4.7730   58.6730 C.ar  901  KIQ901      0.0612
     12  C27      -12.0170   -5.6250   57.5840 C.ar  901  KIQ901      0.1696
     13  F28      -10.8680   -5.6140   56.8660 F     901  KIQ901     -0.2017
     14  C25      -13.0330   -6.4970   57.2420 C.ar  901  KIQ901      0.1672
     15  F26      -12.8630   -7.3060   56.1900 F     901  KIQ901     -0.2018
     16  C23      -14.3920   -5.6880   59.0670 C.ar  901  KIQ901      0.0091
     17  C        -15.6920   -6.8860   60.8410 C.3   901  KIQ901      0.1007
     18  N        -14.4730   -7.0730   61.5970 N.3   901  KIQ901     -0.1322
     19  C3       -16.8440   -6.6380   61.8040 C.3   901  KIQ901      0.0500
     20  O        -19.4220   -7.9040   62.2380 O.2   901  KIQ901     -0.2703
     21  N7       -20.3920   -5.9180   61.8220 N.am  901  KIQ901     -0.2673
     22  C12      -21.6180   -6.3260   62.5190 C.3   901  KIQ901      0.1599
     23  C11      -22.8210   -5.7130   61.8680 C.ar  901  KIQ901      0.1636
     24  N13      -24.1220   -6.0360   62.1010 N.ar  901  KIQ901     -0.1316
     25  N14      -24.9170   -5.2260   61.2760 N.ar  901  KIQ901     -0.1249
     26  C16      -24.4780   -3.4630   59.6160 C.3   901  KIQ901      0.4524
     27  F19      -24.4150   -3.9670   58.3890 F     901  KIQ901     -0.1632
     28  F18      -23.7790   -2.3390   59.7030 F     901  KIQ901     -0.1632
     29  F        -25.7320   -3.1950   59.9180 F     901  KIQ901     -0.1632
     30  N10      -22.7440   -4.7440   60.9390 N.ar  901  KIQ901     -0.2924
     31  C9       -21.4930   -4.1640   60.4370 C.3   901  KIQ901      0.1301
@<TRIPOS>BOND
     1    15    14    1
     2    13    12    1
     3    14    12   ar
     4    14     8   ar
     5    12    11   ar
     6     8    16   ar
     7    27    26    1
     8    11    10   ar
     9     6     5    1
    10     6     7    1
    11    16    10   ar
    12    16     7    1
    13    10     9    1
    14    26    28    1
    15    26    29    1
    16    26     4    1
    17     5     1    2
    18     7    17    1
    19    31    30    1
    20    31     3    1
    21     4    30   ar
    22     4    25   ar
    23    17    18    1
    24    17    19    1
    25    30    23   ar
    26     1     2    1
    27     1    19    1
    28    25    24   ar
    29     3    21    1
    30     2    21   am
    31     2    20    2
    32    21    22    1
    33    23    24   ar
    34    23    22    1
