@<TRIPOS>MOLECULE
2i7c_AAT_A_1.pdb
 29 31 0 0 0
SMALL
GASTEIGER

@<TRIPOS>ATOM
      1  N         12.9340  113.1580   32.2670 N.3   801  AAT801     -0.1262
      2  CA        12.2760  114.1620   31.4080 C.3   801  AAT801      0.1355
      3  CB        13.3360  114.6800   30.6750 C.2   801  AAT801     -0.0039
      4  CG        13.6450  114.6990   29.3220 C.2   801  AAT801      0.0003
      5  SD        15.1650  115.4200   28.7920 S.3   801  AAT801     -0.1156
      6  C5'       16.3750  115.0470   30.1310 C.3   801  AAT801      0.0942
      7  C4'       17.8070  115.6890   29.9140 C.3   801  AAT801      0.1633
      8  O4'       18.5280  115.4350   28.6660 O.3   801  AAT801     -0.3152
      9  C3'       17.8270  117.2380   30.0410 C.3   801  AAT801      0.2168
     10  O3'       18.1270  117.5520   31.3990 O.3   801  AAT801     -0.2175
     11  C2'       18.9330  117.6690   29.0690 C.3   801  AAT801      0.2569
     12  O2'       19.8660  118.6580   29.5850 O.3   801  AAT801     -0.2130
     13  C1'       19.6660  116.3420   28.8060 C.3   801  AAT801      0.3185
     14  N9        20.5290  116.3540   27.5840 N.pl3 801  AAT801     -0.1439
     15  C8        20.2660  116.9640   26.4260 C.3   801  AAT801      0.3377
     16  N7        21.2580  116.7570   25.5680 N.2   801  AAT801     -0.2095
     17  C5        22.1680  115.9900   26.1770 C.2   801  AAT801      0.2526
     18  C6        23.3920  115.4500   25.7820 C.2   801  AAT801      0.4393
     19  N6        23.8770  115.6710   24.5530 N.pl3 801  AAT801      0.2180
     20  N1        24.0840  114.7090   26.6740 N.2   801  AAT801      0.0021
     21  C2        23.6040  114.4860   27.8940 C.3   801  AAT801      0.5254
     22  N3        22.4370  114.9870   28.2990 N.2   801  AAT801     -0.0055
     23  C4        21.7010  115.7430   27.4560 C.2   801  AAT801      0.3518
     24  C11       12.6710  114.2370   28.2430 C.3   801  AAT801      0.0323
     25  C12       12.0470  115.5070   27.6060 C.3   801  AAT801      0.0052
     26  C13       11.3600  115.2180   26.2590 C.3   801  AAT801      0.0019
     27  C14       10.7960  116.4950   25.5860 C.3   801  AAT801      0.0205
     28  C15        9.6920  116.1550   24.5620 C.3   801  AAT801      0.1093
     29  N16        9.3640  117.3490   23.7650 N.3   801  AAT801     -0.1314
@<TRIPOS>BOND
     1    29    28    1
     2    19    18    1
     3    28    27    1
     4    16    17    2
     5    16    15    1
     6    27    26    1
     7    18    17    1
     8    18    20    2
     9    17    23    1
    10    26    25    1
    11    15    14    1
    12    20    21    1
    13    23    14    1
    14    23    22    2
    15    14    13    1
    16    25    24    1
    17    21    22    1
    18    24     4    1
    19     8    13    1
    20     8     7    1
    21     5     4    1
    22     5     6    1
    23    13    11    1
    24    11    12    1
    25    11     9    1
    26     4     3    2
    27     7     9    1
    28     7     6    1
    29     9    10    1
    30     3     2    1
    31     2     1    1
