@<TRIPOS>MOLECULE
2i7d_DUR_A_1.pdb
 16 17 0 0 0
SMALL
GASTEIGER

@<TRIPOS>ATOM
      1  N1        43.1550  -29.2640   13.0420 N.am  300  DUR300     -0.1790
      2  C2        43.0360  -29.2800   11.6360 C.1   300  DUR300      0.2844
      3  N3        41.8680  -29.6890   11.0780 N.2   300  DUR300     -0.2452
      4  C4        40.7880  -30.1090   11.7910 C.1   300  DUR300      0.2182
      5  C5        40.9040  -30.1040   13.1900 C.2   300  DUR300      0.1242
      6  C6        42.0980  -29.6700   13.8000 C.2   300  DUR300      0.0928
      7  O2        44.0120  -28.9230   10.9260 O.2   300  DUR300     -0.1918
      8  O4        39.7300  -30.5140   11.1920 O.2   300  DUR300     -0.2085
      9  C1'       44.4250  -28.8020   13.6300 C.3   300  DUR300      0.2090
     10  C2'       44.5190  -27.2810   13.6740 C.3   300  DUR300      0.0874
     11  C3'       45.3520  -27.0090   14.9160 C.3   300  DUR300      0.1858
     12  C4'       45.0510  -28.2160   15.8170 C.3   300  DUR300      0.1802
     13  O3'       46.7600  -26.8880   14.6200 O.3   300  DUR300     -0.2203
     14  O4'       44.5390  -29.2770   14.9720 O.3   300  DUR300     -0.3338
     15  C5'       44.0300  -27.9010   16.9200 C.3   300  DUR300      0.2141
     16  O5'       42.8190  -27.3570   16.3770 O.3   300  DUR300     -0.2176
@<TRIPOS>BOND
     1     7     2    2
     2     3     2    2
     3     3     4    2
     4     8     4    2
     5     2     1   am
     6     4     5    1
     7     1     9    1
     8     1     6    1
     9     5     6    2
    10     9    10    1
    11     9    14    1
    12    10    11    1
    13    13    11    1
    14    11    12    1
    15    14    12    1
    16    12    15    1
    17    16    15    1
