@<TRIPOS>MOLECULE
2i7h_FMN_A_1.pdb
 31 33 0 0 0
SMALL
GASTEIGER

@<TRIPOS>ATOM
      1  N1        65.2570   46.9090   50.6280 N.2   1001  FMN1001    -0.2890
      2  C2        65.6060   45.9900   51.6140 C.1   1001  FMN1001     0.3669
      3  O2        65.6090   44.7890   51.3540 O.2   1001  FMN1001    -0.1744
      4  N3        65.9540   46.4300   52.8800 N.2   1001  FMN1001    -0.2300
      5  C4        65.9400   47.7960   53.1360 C.1   1001  FMN1001     0.2513
      6  O4        65.9830   48.2090   54.2830 O.2   1001  FMN1001    -0.2057
      7  C4A       65.5920   48.7030   52.1470 C.2   1001  FMN1001     0.2700
      8  N5        65.5910   50.0550   52.4460 N.2   1001  FMN1001    -0.3878
      9  C5A       65.2270   50.9760   51.4680 C.2   1001  FMN1001     0.1320
     10  C6        65.2470   52.3100   51.8250 C.2   1001  FMN1001     0.0250
     11  C7        64.9240   53.3170   50.9410 C.2   1001  FMN1001    -0.0238
     12  C7M       65.2490   54.7230   51.3500 C.3   1001  FMN1001     0.0308
     13  C8        64.5550   52.9660   49.6450 C.2   1001  FMN1001    -0.0280
     14  C8M       64.3090   54.0750   48.6570 C.3   1001  FMN1001     0.0304
     15  C9        64.5320   51.5990   49.2670 C.2   1001  FMN1001    -0.0041
     16  C9A       64.8630   50.5750   50.1750 C.3   1001  FMN1001     0.1497
     17  N10       64.8600   49.1800   49.8700 N.pl3 1001  FMN1001    -0.2691
     18  C10       65.2420   48.2660   50.8670 C.2   1001  FMN1001     0.2416
     19  C1'       64.1890   48.6150   48.6330 C.3   1001  FMN1001     0.1294
     20  C2'       62.6980   48.3610   48.8830 C.3   1001  FMN1001     0.2044
     21  O2'       62.5460   47.3780   49.8670 O.3   1001  FMN1001    -0.2185
     22  C3'       61.7810   48.0270   47.6770 C.3   1001  FMN1001     0.2164
     23  O3'       61.3990   46.6690   47.5730 O.3   1001  FMN1001    -0.2175
     24  C4'       62.3200   48.3780   46.3140 C.3   1001  FMN1001     0.2147
     25  O4'       62.9490   49.6350   46.3110 O.3   1001  FMN1001    -0.2176
     26  C5'       61.1590   48.3540   45.3250 C.3   1001  FMN1001     0.1892
     27  O5'       61.5700   47.4640   44.3040 O.3   1001  FMN1001    -0.2674
     28  P         62.7740   47.8920   43.3000 P.3   1001  FMN1001     0.5327
     29  O1P       63.3880   46.6370   42.7090 O.3   1001  FMN1001    -0.1145
     30  O2P       62.1290   48.7030   42.2050 O.2   1001  FMN1001    -0.2224
     31  O3P       63.8450   48.7520   43.9610 O.3   1001  FMN1001    -0.1145
@<TRIPOS>BOND
     1    30    28    2
     2    29    28    1
     3    28    31    1
     4    28    27    1
     5    27    26    1
     6    26    24    1
     7    25    24    1
     8    24    22    1
     9    23    22    1
    10    22    20    1
    11    19    20    1
    12    19    17    1
    13    14    13    1
    14    20    21    1
    15    15    13    2
    16    15    16    1
    17    13    11    1
    18    17    16    1
    19    17    18    1
    20    16     9    1
    21     1    18    2
    22     1     2    2
    23    18     7    1
    24    11    12    1
    25    11    10    2
    26     3     2    2
    27     9    10    1
    28     9     8    2
    29     2     4    2
    30     7     8    2
    31     7     5    1
    32     4     5    2
    33     5     6    2
