@<TRIPOS>MOLECULE
2i7n_ACO_A_1.pdb
 29 28 0 0 0
SMALL
GASTEIGER

@<TRIPOS>ATOM
      1  O5B       -2.5440   26.2900   17.2640 O.3   796  ACO796     -0.1143
      2  P1A       -1.2330   27.1720   17.2680 P.3   796  ACO796      0.5373
      3  O1A       -0.1210   26.2780   16.9330 O.2   796  ACO796     -0.2221
      4  O2A       -1.1770   27.9350   18.5930 O.3   796  ACO796     -0.1143
      5  O3A       -1.5210   28.0770   15.9430 O.3   796  ACO796     -0.2261
      6  P2A       -0.6070   29.2000   15.3320 P.3   796  ACO796      0.2230
      7  O4A       -0.3630   28.6790   13.9960 O.2   796  ACO796     -0.5169
      8  O5A        0.5790   29.3890   16.1970 O.3   796  ACO796     -0.4370
      9  O6A       -1.4620   30.5130   15.2790 O.3   796  ACO796     -0.3137
     10  CBP       -2.6000   31.4710   13.2920 C.3   796  ACO796      0.0645
     11  CCP       -2.7080   30.5550   14.4840 C.3   796  ACO796      0.1519
     12  CDP       -3.9800   31.3910   12.5390 C.3   796  ACO796      0.0056
     13  CEP       -2.3650   32.9270   13.7600 C.3   796  ACO796      0.0056
     14  CAP       -1.4110   30.9640   12.3480 C.3   796  ACO796      0.2312
     15  OAP       -1.6110   29.6180   11.9550 O.3   796  ACO796     -0.2131
     16  C9P       -1.2320   31.8080   11.0550 C.2   796  ACO796      0.2719
     17  O9P       -0.8990   32.9930   11.0530 O.2   796  ACO796     -0.2706
     18  N8P       -1.5030   31.1270    9.8980 N.am  796  ACO796     -0.2028
     19  C7P       -1.4450   31.7140    8.5530 C.3   796  ACO796      0.1248
     20  C6P       -2.7670   32.4440    8.2290 C.3   796  ACO796      0.1102
     21  C5P       -2.7530   33.1100    6.8950 C.2   796  ACO796      0.2432
     22  O5P       -2.1220   34.1960    6.7060 O.2   796  ACO796     -0.2733
     23  N4P       -3.4120   32.5460    5.9100 N.am  796  ACO796     -0.2044
     24  C3P       -3.6180   32.9130    4.5100 C.3   796  ACO796      0.1272
     25  C2P       -3.3050   31.6530    3.6820 C.3   796  ACO796      0.0883
     26  S1P       -3.6380   32.1240    1.9010 S.3   796  ACO796     -0.0753
     27  C         -5.1650   31.9160    1.8270 C.2   796  ACO796      0.1992
     28  O         -6.0280   31.5020    2.7580 O.2   796  ACO796     -0.2845
     29  CH3       -6.1680   32.1630    0.5360 C.3   796  ACO796      0.0845
@<TRIPOS>BOND
     1    29    27    1
     2    27    26    1
     3    27    28    2
     4    26    25    1
     5    25    24    1
     6    24    23    1
     7    23    21   am
     8    22    21    2
     9    21    20    1
    10    20    19    1
    11    19    18    1
    12    18    16   am
    13    17    16    2
    14    16    14    1
    15    15    14    1
    16    14    10    1
    17    12    10    1
    18    10    13    1
    19    10    11    1
    20     7     6    2
    21    11     9    1
    22     9     6    1
    23     6     5    1
    24     6     8    1
    25     5     2    1
    26     3     2    2
    27     1     2    1
    28     2     4    1
