@<TRIPOS>MOLECULE
2i7o_REQ_A_1.pdb
 23 26 0 0 0
SMALL
GASTEIGER

@<TRIPOS>ATOM
      1 RE         18.4960   -1.2790    2.8850 Re    801  REQ801      0.0000
      2  N1        20.2050   -0.1820    2.1480 N.pl3 801  REQ801      0.0000
      3  N2        20.1590   -2.4760    3.6060 N.pl3 801  REQ801      0.0000
      4  O1        18.1140   -3.1020    0.3870 O.3   801  REQ801      0.0000
      5  O2        16.2430   -2.7560    4.3650 O.3   801  REQ801      0.0000
      6  O3        16.3030    0.4640    1.7030 O.3   801  REQ801      0.0000
      7  C1        18.2530   -2.4280    1.3270 C.3   801  REQ801      0.0000
      8  C2        17.0910   -2.2290    3.8110 C.3   801  REQ801      0.0000
      9  C3        17.0970   -0.1740    2.1440 C.3   801  REQ801      0.0000
     10  C7        20.1900    0.9700    1.4300 C.2   801  REQ801      0.0000
     11  C8        21.3750    1.6430    1.0320 C.2   801  REQ801      0.0000
     12  C9        22.5900    1.1220    1.3740 C.2   801  REQ801      0.0000
     13  C10       22.6820   -0.1080    2.1340 C.ar  801  REQ801      0.0000
     14  C11       21.4280   -0.7240    2.5060 C.ar  801  REQ801      0.0000
     15  C12       21.4110   -1.9540    3.2770 C.ar  801  REQ801      0.0000
     16  C13       22.6430   -2.5760    3.6780 C.ar  801  REQ801      0.0000
     17  C14       22.5320   -3.7790    4.4370 C.2   801  REQ801      0.0000
     18  C15       21.2870   -4.3040    4.7640 C.2   801  REQ801      0.0000
     19  C16       20.1200   -3.6210    4.3310 C.2   801  REQ801      0.0000
     20  C17       23.9230   -0.7750    2.5610 C.ar  801  REQ801      0.0000
     21  C18       23.9020   -1.9340    3.2840 C.ar  801  REQ801      0.0000
     22  C19       23.7900    1.8600    0.9730 C.3   801  REQ801      0.0000
     23  C20       23.7200   -4.5060    4.9030 C.3   801  REQ801      0.0000
@<TRIPOS>BOND
     1     4     7    1
     2    22    12    1
     3    11    12    1
     4    11    10    2
     5     7     1    1
     6    12    13    2
     7    10     2    1
     8     6     9    1
     9    13    14   ar
    10    13    20   ar
    11     9     1    1
    12     2    14    1
    13     2     1    1
    14    14    15   ar
    15    20    21   ar
    16     1     3    1
    17     1     8    1
    18    15     3    1
    19    15    16   ar
    20    21    16   ar
    21     3    19    1
    22    16    17    2
    23     8     5    1
    24    19    18    2
    25    17    18    1
    26    17    23    1
