@<TRIPOS>MOLECULE
2i7p_ACO_A_1.pdb
 29 28 0 0 0
SMALL
GASTEIGER

@<TRIPOS>ATOM
      1  O5B      -22.7620   -1.4150   -4.9300 O.2   1604  ACO1604    -0.2221
      2  P1A      -21.6320   -1.6670   -3.8540 P.3   1604  ACO1604     0.5373
      3  O1A      -22.2630   -2.3220   -2.7090 O.3   1604  ACO1604    -0.1143
      4  O2A      -20.9160   -0.3460   -3.6030 O.3   1604  ACO1604    -0.1143
      5  O3A      -20.7930   -2.8370   -4.6200 O.3   1604  ACO1604    -0.2261
      6  P2A      -19.4990   -3.5660   -4.1160 P.3   1604  ACO1604     0.2230
      7  O4A      -19.9470   -4.9470   -4.0880 O.2   1604  ACO1604    -0.5169
      8  O5A      -19.1060   -2.9370   -2.8280 O.3   1604  ACO1604    -0.4370
      9  O6A      -18.3880   -3.3590   -5.1860 O.3   1604  ACO1604    -0.3137
     10  CBP      -17.4730   -4.9700   -6.7890 C.3   1604  ACO1604     0.0645
     11  CCP      -18.5400   -3.9270   -6.5360 C.3   1604  ACO1604     0.1519
     12  CDP      -17.7180   -5.5790   -8.2220 C.3   1604  ACO1604     0.0056
     13  CEP      -16.0740   -4.3110   -6.7850 C.3   1604  ACO1604     0.0056
     14  CAP      -17.5820   -6.0950   -5.6610 C.3   1604  ACO1604     0.2312
     15  OAP      -18.8770   -6.6730   -5.6190 O.3   1604  ACO1604    -0.2131
     16  C9P      -16.5800   -7.2590   -5.8370 C.2   1604  ACO1604     0.2719
     17  O9P      -15.3580   -7.1250   -5.8280 O.2   1604  ACO1604    -0.2706
     18  N8P      -17.1810   -8.4780   -6.0280 N.am  1604  ACO1604    -0.2028
     19  C7P      -16.4560   -9.7380   -6.2470 C.3   1604  ACO1604     0.1248
     20  C6P      -16.0450   -9.8810   -7.7160 C.3   1604  ACO1604     0.1102
     21  C5P      -15.2330  -11.0990   -7.9840 C.2   1604  ACO1604     0.2432
     22  O5P      -14.0490  -11.2000   -7.5580 O.2   1604  ACO1604    -0.2733
     23  N4P      -15.7910  -12.0540   -8.6860 N.am  1604  ACO1604    -0.2044
     24  C3P      -15.3680  -13.3470   -9.1670 C.3   1604  ACO1604     0.1272
     25  C2P      -16.4910  -14.3230   -8.8010 C.3   1604  ACO1604     0.0883
     26  S1P      -15.8990  -15.9430   -9.5020 S.3   1604  ACO1604    -0.0753
     27  C        -16.4600  -15.8420  -10.9270 C.2   1604  ACO1604     0.1992
     28  O        -17.1720  -14.8840  -11.4950 O.2   1604  ACO1604    -0.2845
     29  CH3      -16.3200  -16.9260  -12.1590 C.3   1604  ACO1604     0.0845
@<TRIPOS>BOND
     1    29    27    1
     2    28    27    2
     3    27    26    1
     4    26    25    1
     5    24    25    1
     6    24    23    1
     7    23    21   am
     8    12    10    1
     9    21    20    1
    10    21    22    2
    11    20    19    1
    12    10    13    1
    13    10    11    1
    14    10    14    1
    15    11     9    1
    16    19    18    1
    17    18    16   am
    18    16    17    2
    19    16    14    1
    20    14    15    1
    21     9     6    1
    22     1     2    2
    23     5     6    1
    24     5     2    1
    25     6     7    2
    26     6     8    1
    27     2     4    1
    28     2     3    1
