@<TRIPOS>MOLECULE
2i7s_REP_A_1.pdb
 21 24 0 0 0
SMALL
GASTEIGER

@<TRIPOS>ATOM
      1 RE         38.5220   27.3480   34.8630 Re    801  REP801      0.0000
      2  N1        38.3430   26.9940   36.9970 N.pl3 801  REP801      0.0000
      3  N2        40.3950   26.3930   35.4020 N.pl3 801  REP801      0.0000
      4  O1        39.6150   30.2300   35.1960 O.3   801  REP801      0.0000
      5  O2        39.0460   27.4760   31.8090 O.3   801  REP801      0.0000
      6  O3        35.8510   28.9000   34.3970 O.3   801  REP801      0.0000
      7  C1        39.2670   29.1410   35.0450 C.3   801  REP801      0.0000
      8  C2        38.8510   27.4280   32.9430 C.3   801  REP801      0.0000
      9  C3        36.8050   28.2200   34.5500 C.3   801  REP801      0.0000
     10  C7        37.4110   27.4650   37.8220 C.2   801  REP801      0.0000
     11  C8        37.3510   27.1090   39.1720 C.2   801  REP801      0.0000
     12  C9        38.2920   26.3120   39.6870 C.2   801  REP801      0.0000
     13  C10       39.3690   25.8720   38.8920 C.ar  801  REP801      0.0000
     14  C11       39.3460   26.2390   37.5350 C.ar  801  REP801      0.0000
     15  C12       40.4490   25.9180   36.6860 C.ar  801  REP801      0.0000
     16  C13       41.5750   25.2790   37.2090 C.ar  801  REP801      0.0000
     17  C14       42.7200   25.2650   36.4270 C.2   801  REP801      0.0000
     18  C15       42.7230   25.8370   35.1980 C.2   801  REP801      0.0000
     19  C16       41.5300   26.3690   34.7060 C.2   801  REP801      0.0000
     20  C17       40.4850   25.0970   39.3610 C.ar  801  REP801      0.0000
     21  C18       41.5280   24.8170   38.5650 C.ar  801  REP801      0.0000
@<TRIPOS>BOND
     1     5     8    1
     2     8     1    1
     3     6     9    1
     4     9     1    1
     5    19    18    2
     6    19     3    1
     7     1     7    1
     8     1     3    1
     9     1     2    1
    10     7     4    1
    11    18    17    1
    12     3    15    1
    13    17    16    2
    14    15    16   ar
    15    15    14   ar
    16     2    14    1
    17     2    10    1
    18    16    21   ar
    19    14    13   ar
    20    10    11    2
    21    21    20   ar
    22    13    20   ar
    23    13    12    2
    24    11    12    1
