@<TRIPOS>MOLECULE
2i80_G1L_A_1.pdb
 18 18 0 0 0
SMALL
GASTEIGER

@<TRIPOS>ATOM
      1  F23       15.3360    2.0630   -0.1630 F     400  G1L400     -0.1659
      2  C20       16.4260    1.3260   -0.0430 C.3   400  G1L400      0.4186
      3  F21       17.2760    1.7380   -0.9760 F     400  G1L400     -0.1659
      4  F22       16.9770    1.3750    1.1750 F     400  G1L400     -0.1659
      5  C3        16.1500   -0.1220   -0.2740 C.ar  400  G1L400      0.0715
      6  C2        17.2630   -0.9290   -0.1880 C.ar  400  G1L400      0.0052
      7  C1        17.1530   -2.2800   -0.3650 C.ar  400  G1L400      0.0165
      8  C4        14.9050   -0.6920   -0.5420 C.ar  400  G1L400      0.0052
      9  C5        14.8020   -2.0760   -0.7380 C.ar  400  G1L400      0.0165
     10  C6        15.9370   -2.8890   -0.6450 C.ar  400  G1L400      0.0734
     11  N11       15.8780   -4.2370   -0.8630 N.am  400  G1L400     -0.1792
     12  C12       16.9310   -5.0830   -0.8170 C.2   400  G1L400      0.2458
     13  O18       18.0900   -4.7490   -0.5930 O.2   400  G1L400     -0.2730
     14  C13       16.6490   -6.5530   -1.0350 C.3   400  G1L400      0.0859
     15  C14       15.2320   -6.7900   -1.5260 C.3   400  G1L400      0.0104
     16  C15       17.6100   -7.1930   -2.0330 C.3   400  G1L400      0.0104
     17  C16       16.8890   -7.2260    0.2990 C.3   400  G1L400      0.1035
     18 CL17       18.3260   -6.7770    1.2240 Cl    400  G1L400     -0.1132
@<TRIPOS>BOND
     1    16    14    1
     2    15    14    1
     3    14    12    1
     4    14    17    1
     5     3     2    1
     6    11    12   am
     7    11    10    1
     8    12    13    2
     9     9    10   ar
    10     9     8   ar
    11    10     7   ar
    12     8     5   ar
    13     7     6   ar
    14     5     6   ar
    15     5     2    1
    16     1     2    1
    17     2     4    1
    18    17    18    1
