@<TRIPOS>MOLECULE
2i89_HEM_A_1.pdb
 43 50 0 0 0
SMALL
GASTEIGER

@<TRIPOS>ATOM
      1 FE         22.3600    5.4840   14.4090 Fe    201  HEM201      0.0000
      2  CHA       25.3740    5.6620   16.1040 C.2   201  HEM201      0.0000
      3  CHB       23.7360    3.5020   12.1140 C.2   201  HEM201      0.0000
      4  CHC       19.2870    5.1890   12.7850 C.2   201  HEM201      0.0000
      5  CHD       20.8900    7.5190   16.7360 C.2   201  HEM201      0.0000
      6  NA        24.1590    4.7450   14.1440 N.ar  201  HEM201      0.0000
      7  C1A       25.3270    4.9220   14.9190 C.ar  201  HEM201      0.0000
      8  C2A       26.4220    4.2610   14.3130 C.ar  201  HEM201      0.0000
      9  C3A       25.9410    3.6540   13.1750 C.ar  201  HEM201      0.0000
     10  C4A       24.5600    3.9450   13.0910 C.ar  201  HEM201      0.0000
     11  CMA       26.6840    2.8790   12.2630 C.3   201  HEM201      0.0000
     12  CAA       27.8700    4.2120   14.8120 C.3   201  HEM201      0.0000
     13  CBA       28.2550    2.9260   15.5630 C.3   201  HEM201      0.0000
     14  CGA       28.7250    3.2110   16.9430 C.2   201  HEM201      0.0000
     15  O1A       28.1480    4.1180   17.6110 O.co2 201  HEM201      0.0000
     16  O2A       29.7280    2.5680   17.3350 O.co2 201  HEM201      0.0000
     17  NB        21.6850    4.5570   12.8350 N.2   201  HEM201      0.0000
     18  C1B       22.4090    3.7720   11.9980 C.2   201  HEM201      0.0000
     19  C2B       21.6050    3.2360   10.9370 C.2   201  HEM201      0.0000
     20  C3B       20.3540    3.6610   11.0690 C.2   201  HEM201      0.0000
     21  C4B       20.3880    4.5150   12.2750 C.2   201  HEM201      0.0000
     22  CMB       22.1370    2.3250    9.8510 C.3   201  HEM201      0.0000
     23  CAB       19.2570    3.3090   10.1630 C.3   201  HEM201      0.0000
     24  CBB       18.4510    2.1590   10.7070 C.3   201  HEM201      0.0000
     25  NC        20.5000    6.2100   14.6620 N.ar  201  HEM201      0.0000
     26  C1C       19.3290    5.9880   13.8990 C.ar  201  HEM201      0.0000
     27  C2C       18.1800    6.7230   14.4690 C.ar  201  HEM201      0.0000
     28  C3C       18.6130    7.3890   15.5660 C.ar  201  HEM201      0.0000
     29  C4C       20.0500    7.0730   15.6950 C.ar  201  HEM201      0.0000
     30  CMC       16.7280    6.7250   13.9850 C.3   201  HEM201      0.0000
     31  CAC       17.7600    8.2240   16.5200 C.2   201  HEM201      0.0000
     32  CBC       17.2080    9.4370   16.2890 C.2   201  HEM201      0.0000
     33  ND        22.9840    6.3820   16.0520 N.2   201  HEM201      0.0000
     34  C1D       22.2470    7.1890   16.9150 C.2   201  HEM201      0.0000
     35  C2D       23.0520    7.6390   18.0520 C.2   201  HEM201      0.0000
     36  C3D       24.3120    7.1070   17.9000 C.2   201  HEM201      0.0000
     37  C4D       24.2710    6.3500   16.6380 C.2   201  HEM201      0.0000
     38  CMD       22.6000    8.5210   19.2200 C.3   201  HEM201      0.0000
     39  CAD       25.5000    7.2610   18.8730 C.3   201  HEM201      0.0000
     40  CBD       25.7640    5.9630   19.6910 C.3   201  HEM201      0.0000
     41  CGD       24.5440    5.4260   20.4530 C.2   201  HEM201      0.0000
     42  O1D       24.0940    4.2990   20.1280 O.co2 201  HEM201      0.0000
     43  O2D       23.9230    6.2450   21.1960 O.co2 201  HEM201      0.0000
@<TRIPOS>BOND
     1    22    19    1
     2    23    24    1
     3    23    20    1
     4    19    20    2
     5    19    18    1
     6    20    21    1
     7    18     3    1
     8    18    17    2
     9     3    10    2
    10    11     9    1
    11    21     4    2
    12    21    17    1
    13     4    26    1
    14    17     1    1
    15    10     9   ar
    16    10     6   ar
    17     9     8   ar
    18    26    27   ar
    19    26    25   ar
    20    30    27    1
    21     6     1    1
    22     6     7   ar
    23     8    12    1
    24     8     7   ar
    25     1    25    1
    26     1    33    1
    27    27    28   ar
    28    25    29   ar
    29    12    13    1
    30     7     2    2
    31    13    14    1
    32    28    29   ar
    33    28    31    1
    34    29     5    1
    35    33    37    2
    36    33    34    1
    37     2    37    1
    38    32    31    2
    39    37    36    1
    40     5    34    2
    41    34    35    1
    42    14    16   ar
    43    14    15   ar
    44    36    35    2
    45    36    39    1
    46    35    38    1
    47    39    40    1
    48    40    41    1
    49    42    41   ar
    50    41    43   ar
