@<TRIPOS>MOLECULE
2i8c_ADP_A_1.pdb
 27 29 0 0 0
SMALL
GASTEIGER

@<TRIPOS>ATOM
      1  PB        10.7950  -13.8470    8.5640 P.3   400  ADP400      0.5373
      2  O1B       11.6940  -12.7240    9.0370 O.3   400  ADP400     -0.1143
      3  O2B        9.8450  -13.4990    7.4220 O.2   400  ADP400     -0.2221
      4  O3B       11.5150  -15.1600    8.3760 O.3   400  ADP400     -0.1143
      5  PA         8.2450  -14.1200    9.9510 P.3   400  ADP400      0.2231
      6  O1A        7.9140  -13.6170   11.3320 O.3   400  ADP400     -0.4370
      7  O2A        7.5540  -13.5000    8.7540 O.2   400  ADP400     -0.5169
      8  O3A        9.8620  -14.1150    9.8700 O.3   400  ADP400     -0.2261
      9  O5'        8.0040  -15.7120    9.8310 O.3   400  ADP400     -0.3111
     10  C5'        8.2710  -16.4400    8.6230 C.3   400  ADP400      0.1813
     11  C4'        7.0020  -17.1050    8.0810 C.3   400  ADP400      0.1821
     12  O4'        6.5600  -18.1100    8.9940 O.3   400  ADP400     -0.3135
     13  C3'        5.8270  -16.1420    7.8750 C.3   400  ADP400      0.2184
     14  O3'        5.6400  -15.7530    6.5050 O.3   400  ADP400     -0.2174
     15  C2'        4.6050  -16.8680    8.4000 C.3   400  ADP400      0.2570
     16  O2'        3.7650  -17.4100    7.3870 O.3   400  ADP400     -0.2130
     17  C1'        5.1500  -18.0020    9.2460 C.3   400  ADP400      0.3186
     18  N9         4.8040  -17.5770   10.6190 N.pl3 400  ADP400     -0.1439
     19  C8         5.6220  -16.9650   11.4920 C.3   400  ADP400      0.3377
     20  N7         4.9560  -16.6800   12.6370 N.2   400  ADP400     -0.2095
     21  C5         3.6860  -17.0960   12.4980 C.2   400  ADP400      0.2526
     22  C6         2.4770  -17.1010   13.3410 C.2   400  ADP400      0.4393
     23  N6         2.5210  -16.5830   14.5860 N.pl3 400  ADP400      0.2180
     24  N1         1.3570  -17.6340   12.8100 N.2   400  ADP400      0.0021
     25  C2         1.3350  -18.1480   11.5630 C.3   400  ADP400      0.5254
     26  N3         2.4010  -18.1810   10.7510 N.2   400  ADP400     -0.0055
     27  C4         3.5850  -17.6790   11.1560 C.2   400  ADP400      0.3518
@<TRIPOS>BOND
     1    14    13    1
     2    16    15    1
     3     3     1    2
     4    13    11    1
     5    13    15    1
     6    11    10    1
     7    11    12    1
     8     4     1    1
     9    15    17    1
    10     1     2    1
    11     1     8    1
    12    10     9    1
    13     7     5    2
    14    12    17    1
    15    17    18    1
    16     9     5    1
    17     8     5    1
    18     5     6    1
    19    18    27    1
    20    18    19    1
    21    26    27    2
    22    26    25    1
    23    27    21    1
    24    19    20    1
    25    25    24    1
    26    21    20    2
    27    21    22    1
    28    24    22    2
    29    22    23    1
