@<TRIPOS>MOLECULE
2i8t_GDD_A_1.pdb
 39 42 0 0 0
SMALL
GASTEIGER

@<TRIPOS>ATOM
      1  N2        48.3670   59.5990   22.9590 N.pl3 820  GDD820     -0.0226
      2  C2        48.4650   60.8960   23.3410 C.1   820  GDD820      0.2531
      3  N1        49.5010   61.2390   24.1350 N.2   820  GDD820     -0.2485
      4  N3        47.5450   61.7900   22.9270 N.2   820  GDD820     -0.3074
      5  C4        47.6650   63.0760   23.3280 C.2   820  GDD820      0.2300
      6  C5        48.7690   63.5310   24.2000 C.2   820  GDD820      0.2182
      7  C6        49.7300   62.4830   24.6030 C.1   820  GDD820      0.2372
      8  O6        50.7080   62.7500   25.3250 O.2   820  GDD820     -0.2069
      9  N7        48.6100   64.8510   24.4130 N.2   820  GDD820     -0.2322
     10  C8        47.5030   65.2210   23.7360 C.3   820  GDD820      0.2246
     11  N9        46.9460   64.1740   23.1100 N.pl3 820  GDD820     -0.2354
     12  C1'       45.7580   64.1750   22.2290 C.3   820  GDD820      0.2293
     13  C2'       44.5320   64.9670   22.6470 C.3   820  GDD820      0.2310
     14  O2'       43.6180   64.0540   23.2510 O.3   820  GDD820     -0.2158
     15  C3'       44.0680   65.5020   21.3000 C.3   820  GDD820      0.2158
     16  O3'       43.3370   64.5130   20.5680 O.3   820  GDD820     -0.2175
     17  C4'       45.3400   65.7350   20.5030 C.3   820  GDD820      0.1799
     18  O4'       46.2860   64.8370   21.0750 O.3   820  GDD820     -0.3326
     19  C5'       45.8230   67.1720   20.6300 C.3   820  GDD820      0.1813
     20  O5'       45.9430   67.4680   22.0190 O.3   820  GDD820     -0.3112
     21  PA        46.2100   68.9640   22.5280 P.3   820  GDD820      0.2189
     22  O1A       47.4010   68.9170   23.4460 O.3   820  GDD820     -0.4371
     23  O2A       46.2030   69.9420   21.3810 O.2   820  GDD820     -0.5170
     24  O3A       45.0450   69.3340   23.5750 O.3   820  GDD820     -0.2703
     25  PB        43.4710   69.6380   23.4150 P.3   820  GDD820      0.2208
     26  O2B       43.2170   70.3020   22.0880 O.2   820  GDD820     -0.5170
     27  O3B       42.7380   68.5100   24.1050 O.3   820  GDD820     -0.4371
     28  O1B       43.4070   70.9230   24.4010 O.3   820  GDD820     -0.2857
     29  C11       42.8080   72.1770   24.0270 C.3   820  GDD820      0.2742
     30  O51       41.3890   72.0120   24.0180 O.3   820  GDD820     -0.3254
     31  C51       40.7810   71.8810   25.3010 C.3   820  GDD820      0.1835
     32  C61       39.2990   71.5750   25.1210 C.3   820  GDD820      0.2142
     33  O6A       38.6950   72.5620   24.2770 O.3   820  GDD820     -0.2176
     34  C21       43.2150   73.3420   24.9240 C.3   820  GDD820      0.2409
     35  O21       42.8490   74.5420   24.2290 O.3   820  GDD820     -0.2149
     36  C31       42.5520   73.2550   26.2950 C.3   820  GDD820      0.2198
     37  O31       42.9770   74.3530   27.1150 O.3   820  GDD820     -0.2174
     38  C41       41.0420   73.1470   26.1070 C.3   820  GDD820      0.2144
     39  O41       40.2940   73.1380   27.3330 O.3   820  GDD820     -0.2176
@<TRIPOS>BOND
     1    17    19    1
     2    17    18    1
     3    17    15    1
     4    16    15    1
     5    19    20    1
     6    18    12    1
     7    15    13    1
     8    23    21    2
     9    20    21    1
    10    26    25    2
    11    12    13    1
    12    12    11    1
    13    21    22    1
    14    21    24    1
    15    13    14    1
    16     4     5    2
    17     4     2    2
    18     1     2    1
    19    11     5    1
    20    11    10    1
    21     5     6    1
    22     2     3    2
    23    25    24    1
    24    25    27    1
    25    25    28    1
    26    10     9    1
    27    30    29    1
    28    30    31    1
    29    29    28    1
    30    29    34    1
    31     3     7    2
    32     6     9    2
    33     6     7    1
    34    35    34    1
    35    33    32    1
    36     7     8    2
    37    34    36    1
    38    32    31    1
    39    31    38    1
    40    38    36    1
    41    38    39    1
    42    36    37    1
