@<TRIPOS>MOLECULE
2i8u_GDP_A_1.pdb
 28 30 0 0 0
SMALL
GASTEIGER

@<TRIPOS>ATOM
      1  PB        43.1780   68.8970   23.1190 P.3   820  GDP820      0.5373
      2  O1B       43.0800   69.3440   24.5560 O.3   820  GDP820     -0.1143
      3  O2B       43.1530   70.0460   22.1450 O.2   820  GDP820     -0.2221
      4  O3B       42.1610   67.8430   22.7580 O.3   820  GDP820     -0.1143
      5  O3A       44.5270   68.0410   22.9230 O.3   820  GDP820     -0.2261
      6  PA        46.0280   68.3450   22.4410 P.3   820  GDP820      0.2231
      7  O1A       46.9760   68.4510   23.6050 O.3   820  GDP820     -0.4370
      8  O2A       46.0870   69.4330   21.4020 O.2   820  GDP820     -0.5169
      9  O5'       46.3690   66.9330   21.7550 O.3   820  GDP820     -0.3111
     10  C5'       45.9150   66.6140   20.4420 C.3   820  GDP820      0.1813
     11  C4'       45.3790   65.1870   20.3810 C.3   820  GDP820      0.1799
     12  O4'       46.2840   64.2490   20.9660 O.3   820  GDP820     -0.3326
     13  C3'       44.0790   65.0150   21.1510 C.3   820  GDP820      0.2158
     14  O3'       43.3200   64.0100   20.4690 O.3   820  GDP820     -0.2175
     15  C2'       44.5180   64.5150   22.5190 C.3   820  GDP820      0.2310
     16  O2'       43.5910   63.6490   23.1720 O.3   820  GDP820     -0.2158
     17  C1'       45.7170   63.6650   22.1440 C.3   820  GDP820      0.2293
     18  N9        46.8890   63.6780   23.0450 N.pl3 820  GDP820     -0.2354
     19  C8        47.4470   64.7120   23.6930 C.3   820  GDP820      0.2246
     20  N7        48.5500   64.3290   24.3690 N.2   820  GDP820     -0.2322
     21  C5        48.7040   63.0130   24.1330 C.2   820  GDP820      0.2182
     22  C6        49.6650   61.9670   24.5290 C.1   820  GDP820      0.2372
     23  O6        50.6390   62.2240   25.2600 O.2   820  GDP820     -0.2069
     24  N1        49.4380   60.7440   24.0460 N.2   820  GDP820     -0.2485
     25  C2        48.4190   60.4160   23.2440 C.1   820  GDP820      0.2531
     26  N2        48.3240   59.1280   22.8400 N.pl3 820  GDP820     -0.0226
     27  N3        47.4890   61.2970   22.8220 N.2   820  GDP820     -0.3074
     28  C4        47.6080   62.5750   23.2440 C.2   820  GDP820      0.2300
@<TRIPOS>BOND
     1    11    10    1
     2    11    12    1
     3    11    13    1
     4    10     9    1
     5    14    13    1
     6    12    17    1
     7    13    15    1
     8     8     6    2
     9     9     6    1
    10    17    15    1
    11    17    18    1
    12     3     1    2
    13     6     5    1
    14     6     7    1
    15    15    16    1
    16     4     1    1
    17    27    28    2
    18    27    25    2
    19    26    25    1
    20     5     1    1
    21    18    28    1
    22    18    19    1
    23     1     2    1
    24    28    21    1
    25    25    24    2
    26    19    20    1
    27    24    22    2
    28    21    20    2
    29    21    22    1
    30    22    23    2
