@<TRIPOS>MOLECULE
2i99_NDP_A_1.pdb
 48 52 0 0 0
SMALL
GASTEIGER

@<TRIPOS>ATOM
      1  PA       -20.9030  -10.0350    4.4300 P.3   502  NDP502      0.2189
      2  O1A      -22.2480  -10.5570    4.7610 O.3   502  NDP502     -0.4371
      3  O2A      -20.7070   -8.5700    4.3730 O.2   502  NDP502     -0.5170
      4  O5B      -20.4380  -10.6960    3.0360 O.3   502  NDP502     -0.3112
      5  C5B      -20.8860  -10.1430    1.7960 C.3   502  NDP502      0.1813
      6  C4B      -20.2510  -10.8720    0.6220 C.3   502  NDP502      0.1820
      7  O4B      -20.6240  -12.2570    0.5750 O.3   502  NDP502     -0.3136
      8  C3B      -20.7440  -10.2780   -0.6900 C.3   502  NDP502      0.2157
      9  O3B      -19.6790   -9.5420   -1.3080 O.3   502  NDP502     -0.2175
     10  C2B      -21.0860  -11.4930   -1.5370 C.3   502  NDP502      0.2314
     11  O2B      -22.5040  -11.7100   -1.5030 O.3   502  NDP502     -0.2630
     12  C1B      -20.3760  -12.6110   -0.7930 C.3   502  NDP502      0.3158
     13  N9A      -20.9410  -13.9460   -1.0970 N.pl3 502  NDP502     -0.1439
     14  C8A      -21.8140  -14.5850   -0.3280 C.3   502  NDP502      0.3377
     15  N7A      -22.0090  -15.8000   -0.8360 N.2   502  NDP502     -0.2095
     16  C5A      -21.2760  -15.8930   -1.9410 C.2   502  NDP502      0.2526
     17  C6A      -20.9800  -16.9110   -2.7420 C.2   502  NDP502      0.4393
     18  N6A      -21.4480  -18.1020   -2.3790 N.pl3 502  NDP502      0.2180
     19  N1A      -19.9510  -16.7800   -3.6830 N.2   502  NDP502      0.0021
     20  C2A      -19.4970  -15.5920   -4.0380 C.3   502  NDP502      0.5254
     21  N3A      -19.6240  -14.6750   -3.0910 N.2   502  NDP502     -0.0055
     22  C4A      -20.6260  -14.7450   -2.1170 C.2   502  NDP502      0.3518
     23  O3       -19.8560  -10.6640    5.4830 O.3   502  NDP502     -0.2703
     24  PN       -18.4710   -9.9380    5.8750 P.3   502  NDP502      0.2189
     25  O1N      -18.6120   -9.3560    7.2300 O.3   502  NDP502     -0.4371
     26  O2N      -18.0250   -9.0560    4.7730 O.2   502  NDP502     -0.5170
     27  O5D      -17.4550  -11.1860    5.9570 O.3   502  NDP502     -0.3112
     28  C5D      -16.9010  -11.7310    4.7550 C.3   502  NDP502      0.1813
     29  C4D      -16.1360  -13.0130    5.0540 C.3   502  NDP502      0.1799
     30  O4D      -14.9870  -12.7680    5.8830 O.3   502  NDP502     -0.3327
     31  C3D      -16.9290  -14.1640    5.6390 C.3   502  NDP502      0.2158
     32  O3D      -16.3540  -15.4180    5.2440 O.3   502  NDP502     -0.2175
     33  C2D      -16.6250  -13.8920    7.0990 C.3   502  NDP502      0.2309
     34  O2D      -16.8920  -15.0500    7.9010 O.3   502  NDP502     -0.2158
     35  C1D      -15.1260  -13.6850    6.9830 C.3   502  NDP502      0.2263
     36  N1N      -14.5200  -13.1530    8.2240 N.pl3 502  NDP502     -0.2787
     37  C2N      -13.2080  -13.5020    8.5630 C.3   502  NDP502      0.1244
     38  C3N      -12.5880  -12.9140    9.6600 C.2   502  NDP502      0.0544
     39  C7N      -11.2520  -13.1940    9.9260 C.2   502  NDP502      0.2818
     40  O7N      -10.6760  -12.5540   10.9810 O.2   502  NDP502     -0.2670
     41  N7N      -10.5920  -13.8970    8.9950 N.am  502  NDP502     -0.0839
     42  C4N      -13.2790  -11.9810   10.4280 C.2   502  NDP502      0.0033
     43  C5N      -14.5790  -11.6200   10.0890 C.2   502  NDP502      0.0157
     44  C6N      -15.2010  -12.1970    8.9870 C.2   502  NDP502      0.0633
     45  P2B      -23.4940  -11.0970   -2.6180 P.3   502  NDP502      0.5328
     46  O1X      -24.9670  -11.2330   -1.9810 O.3   502  NDP502     -0.1145
     47  O2X      -23.1780   -9.5200   -2.7080 O.3   502  NDP502     -0.1145
     48  O3X      -23.3930  -11.7910   -3.9210 O.2   502  NDP502     -0.2224
@<TRIPOS>BOND
     1    20    19    1
     2    20    21    1
     3    48    45    2
     4    19    17    2
     5    21    22    2
     6    17    18    1
     7    17    16    1
     8    47    45    1
     9    45    46    1
    10    45    11    1
    11    22    16    1
    12    22    13    1
    13    16    15    2
    14    10    11    1
    15    10    12    1
    16    10     8    1
    17     9     8    1
    18    13    12    1
    19    13    14    1
    20    15    14    1
    21    12     7    1
    22     8     6    1
    23     7     6    1
    24     6     5    1
    25     5     4    1
    26     4     1    1
    27     3     1    2
    28     1     2    1
    29     1    23    1
    30    28    29    1
    31    28    27    1
    32    26    24    2
    33    29    31    1
    34    29    30    1
    35    32    31    1
    36    23    24    1
    37    31    33    1
    38    24    27    1
    39    24    25    1
    40    30    35    1
    41    35    33    1
    42    35    36    1
    43    33    34    1
    44    36    37    1
    45    36    44    1
    46    37    38    1
    47    44    43    2
    48    41    39   am
    49    38    39    1
    50    38    42    2
    51    39    40    2
    52    43    42    1
