@<TRIPOS>MOLECULE
2i9g_BPI_T_1.pdb
 21 24 0 0 0
SMALL
GASTEIGER

@<TRIPOS>ATOM
      1  C1        17.4160    8.8440    5.6270 C.3   100  BPI100      0.0617
      2  C2        18.9080    8.9310    5.3200 C.3   100  BPI100      0.1894
      3  O2        19.4150   10.1580    5.8570 O.3   100  BPI100     -0.2200
      4  C3        19.6140    7.7180    5.9530 C.3   100  BPI100      0.2167
      5  O3        21.0350    7.8100    5.7550 O.3   100  BPI100     -0.2173
      6  C4        19.2590    7.5980    7.4580 C.3   100  BPI100      0.2066
      7  O4        19.7330    6.3420    7.9620 O.3   100  BPI100     -0.2155
      8  C5        17.5180    7.5970    9.1260 C.ar  100  BPI100     -0.0021
      9  C6        16.2220    7.8350    9.5690 C.ar  100  BPI100     -0.0003
     10  C7        13.9790    8.6630    9.2700 C.ar  100  BPI100     -0.0000
     11  C8        13.0400    9.3870    8.5600 C.ar  100  BPI100     -0.0000
     12  C9        12.5090   10.9470    6.8170 C.ar  100  BPI100     -0.0000
     13  C10       12.8940   11.7580    5.7620 C.ar  100  BPI100     -0.0000
     14  C11       14.2230   11.7500    5.3190 C.ar  100  BPI100     -0.0000
     15  C12       15.1580   10.8770    5.8950 C.ar  100  BPI100     -0.0000
     16  C13       16.9880    8.6340    6.9660 C.ar  100  BPI100     -0.0211
     17  C14       17.9190    7.9460    7.8180 C.ar  100  BPI100      0.0064
     18  C15       15.3110    8.5440    8.8040 C.ar  100  BPI100     -0.0003
     19  C16       15.6770    9.0640    7.5570 C.ar  100  BPI100     -0.0041
     20  C17       14.7630   10.0010    6.9400 C.ar  100  BPI100     -0.0003
     21  C18       13.4280   10.0920    7.4270 C.ar  100  BPI100     -0.0000
@<TRIPOS>BOND
     1    14    13   ar
     2    14    15   ar
     3     2     1    1
     4     2     3    1
     5     2     4    1
     6     1    16    1
     7     5     4    1
     8    13    12   ar
     9    15    20   ar
    10     4     6    1
    11    12    21   ar
    12    20    21   ar
    13    20    19   ar
    14    16    19   ar
    15    16    17   ar
    16    21    11   ar
    17     6    17    1
    18     6     7    1
    19    19    18   ar
    20    17     8   ar
    21    11    10   ar
    22    18    10   ar
    23    18     9   ar
    24     8     9   ar
