@<TRIPOS>MOLECULE
2i9k_SAH_A_1.pdb
 26 28 0 0 0
SMALL
GASTEIGER

@<TRIPOS>ATOM
      1  N        -18.2850   30.5950   79.6090 N.3   328  SAH328     -0.1208
      2  CA       -18.9440   30.0370   80.8720 C.3   328  SAH328      0.1952
      3  CB       -18.7530   30.7340   82.1710 C.3   328  SAH328      0.0422
      4  CG       -17.3440   30.9910   82.6360 C.3   328  SAH328      0.0597
      5  SD       -17.4470   31.6660   84.3240 S.3   328  SAH328     -0.1375
      6  C        -20.4760   29.8690   80.5480 C.2   328  SAH328      0.3819
      7  O        -20.8950   30.1720   79.4290 O.co2 328  SAH328     -0.2441
      8  OXT      -21.2000   29.4140   81.4960 O.co2 328  SAH328     -0.2441
      9  C5'      -15.9840   31.0750   85.0180 C.3   328  SAH328      0.0899
     10  C4'      -16.1430   29.5320   85.3610 C.3   328  SAH328      0.1630
     11  O4'      -14.8880   29.2420   85.9200 O.3   328  SAH328     -0.3153
     12  C3'      -17.1280   29.1860   86.4420 C.3   328  SAH328      0.2168
     13  O3'      -18.0990   28.2900   85.9440 O.3   328  SAH328     -0.2175
     14  C2'      -16.2060   28.5910   87.5740 C.3   328  SAH328      0.2569
     15  O2'      -16.8790   27.6230   88.3630 O.3   328  SAH328     -0.2130
     16  C1'      -15.0360   28.0630   86.7650 C.3   328  SAH328      0.3185
     17  N9       -13.8600   27.8830   87.3740 N.pl3 328  SAH328     -0.1439
     18  C8       -13.1110   28.6610   88.2330 C.3   328  SAH328      0.3377
     19  N7       -11.9930   28.1440   88.6130 N.2   328  SAH328     -0.2095
     20  C5       -11.9470   26.8820   87.9580 C.2   328  SAH328      0.2526
     21  C6       -10.9470   25.8360   87.9700 C.2   328  SAH328      0.4393
     22  N6        -9.7980   25.8970   88.6680 N.pl3 328  SAH328      0.2180
     23  N1       -11.2580   24.7410   87.1980 N.2   328  SAH328      0.0021
     24  C2       -12.4170   24.6380   86.4720 C.3   328  SAH328      0.5254
     25  N3       -13.3880   25.6140   86.4340 N.2   328  SAH328     -0.0055
     26  C4       -13.0830   26.7030   87.2000 C.2   328  SAH328      0.3518
@<TRIPOS>BOND
     1     7     6   ar
     2     1     2    1
     3     6     2    1
     4     6     8   ar
     5     2     3    1
     6     3     4    1
     7     4     5    1
     8     5     9    1
     9     9    10    1
    10    10    11    1
    11    10    12    1
    12    11    16    1
    13    13    12    1
    14    25    24    1
    15    25    26    2
    16    12    14    1
    17    24    23    1
    18    16    17    1
    19    16    14    1
    20    23    21    2
    21    26    17    1
    22    26    20    1
    23    17    18    1
    24    14    15    1
    25    20    21    1
    26    20    19    2
    27    21    22    1
    28    18    19    1
