@<TRIPOS>MOLECULE
2i9p_NAD_A_1.pdb
 44 48 0 0 0
SMALL
GASTEIGER

@<TRIPOS>ATOM
      1  PA         7.0020   31.9830   80.9190 P.3   500  NAD500      0.2189
      2  O1A        7.8850   31.5730   79.8090 O.2   500  NAD500     -0.5170
      3  O2A        7.5890   33.1130   81.6800 O.3   500  NAD500     -0.4371
      4  O5B        6.6770   30.6630   81.7680 O.3   500  NAD500     -0.3112
      5  C5B        6.5690   29.3870   81.1850 C.3   500  NAD500      0.1813
      6  C4B        7.1500   28.3490   82.1280 C.3   500  NAD500      0.1821
      7  O4B        6.5940   27.0840   81.8100 O.3   500  NAD500     -0.3135
      8  C3B        8.6710   28.2400   81.9880 C.3   500  NAD500      0.2184
      9  O3B        9.3270   28.1210   83.2380 O.3   500  NAD500     -0.2174
     10  C2B        8.8570   26.9760   81.1890 C.3   500  NAD500      0.2570
     11  O2B       10.1050   26.3790   81.4480 O.3   500  NAD500     -0.2130
     12  C1B        7.6510   26.1610   81.6440 C.3   500  NAD500      0.3186
     13  N9A        7.2700   25.0890   80.7210 N.pl3 500  NAD500     -0.1439
     14  C8A        7.3430   25.0620   79.3650 C.3   500  NAD500      0.3377
     15  N7A        6.8920   23.8540   78.9540 N.2   500  NAD500     -0.2095
     16  C5A        6.5380   23.1120   80.0180 C.2   500  NAD500      0.2526
     17  C6A        6.0210   21.8230   80.1640 C.2   500  NAD500      0.4393
     18  N6A        5.7620   21.0200   79.1310 N.pl3 500  NAD500      0.2180
     19  N1A        5.7530   21.3640   81.4290 N.2   500  NAD500      0.0021
     20  C2A        6.0000   22.1680   82.5250 C.3   500  NAD500      0.5254
     21  N3A        6.5160   23.4290   82.3680 N.2   500  NAD500     -0.0055
     22  C4A        6.7760   23.8930   81.1330 C.2   500  NAD500      0.3518
     23  O3         5.5530   32.4510   80.4720 O.3   500  NAD500     -0.2703
     24  PN         4.8070   33.5410   81.3550 P.3   500  NAD500      0.2189
     25  O1N        5.3880   34.8640   81.0110 O.2   500  NAD500     -0.5170
     26  O2N        4.8090   33.0460   82.7510 O.3   500  NAD500     -0.4371
     27  O5D        3.3090   33.4290   80.7780 O.3   500  NAD500     -0.3112
     28  C5D        2.6800   32.1710   80.5980 C.3   500  NAD500      0.1813
     29  C4D        1.3460   32.3260   79.8630 C.3   500  NAD500      0.1799
     30  O4D        0.5770   33.3890   80.4120 O.3   500  NAD500     -0.3327
     31  C3D        1.5440   32.6410   78.3800 C.3   500  NAD500      0.2158
     32  O3D        0.6270   31.8710   77.6340 O.3   500  NAD500     -0.2175
     33  C2D        1.2810   34.1330   78.2890 C.3   500  NAD500      0.2309
     34  O2D        0.8020   34.5770   77.0360 O.3   500  NAD500     -0.2158
     35  C1D        0.2470   34.3220   79.4060 C.3   500  NAD500      0.2263
     36  N1N        0.2000   35.6720   79.9830 N.pl3 500  NAD500     -0.2787
     37  C2N        1.3380   36.3740   80.2320 C.3   500  NAD500      0.1244
     38  C3N        1.2510   37.6580   80.7720 C.2   500  NAD500      0.0544
     39  C7N        2.5040   38.4210   81.0460 C.2   500  NAD500      0.2818
     40  O7N        2.4110   39.7850   81.4130 O.2   500  NAD500     -0.2670
     41  N7N        3.6560   37.7490   80.9400 N.am  500  NAD500     -0.0839
     42  C4N        0.0270   38.2240   81.0930 C.2   500  NAD500      0.0033
     43  C5N       -1.1180   37.4930   80.8430 C.2   500  NAD500      0.0157
     44  C6N       -1.0160   36.2150   80.2840 C.2   500  NAD500      0.0633
@<TRIPOS>BOND
     1    34    33    1
     2    32    31    1
     3    33    31    1
     4    33    35    1
     5    31    29    1
     6    15    14    1
     7    15    16    2
     8    18    17    1
     9    14    13    1
    10    35    36    1
    11    35    30    1
    12     2     1    2
    13    29    30    1
    14    29    28    1
    15    36    37    1
    16    36    44    1
    17    16    17    1
    18    16    22    1
    19    17    19    2
    20    37    38    1
    21    44    43    2
    22    23     1    1
    23    23    24    1
    24    28    27    1
    25    13    22    1
    26    13    12    1
    27    38    39    1
    28    38    42    2
    29    27    24    1
    30    43    42    1
    31     1     3    1
    32     1     4    1
    33    41    39   am
    34    25    24    2
    35    39    40    2
    36    22    21    2
    37     5     4    1
    38     5     6    1
    39    10    11    1
    40    10    12    1
    41    10     8    1
    42    24    26    1
    43    19    20    1
    44    12     7    1
    45     7     6    1
    46     8     6    1
    47     8     9    1
    48    21    20    1
