@<TRIPOS>MOLECULE
2i9u_GUN_A_1.pdb
 11 12 0 0 0
SMALL
GASTEIGER

@<TRIPOS>ATOM
      1  N9        86.2750    4.9790   35.8560 N.2   503  GUN503     -0.1802
      2  C8        86.2990    6.1170   36.6510 C.3   503  GUN503      0.2633
      3  N7        86.7820    7.2000   36.1000 N.2   503  GUN503     -0.2212
      4  C5        87.1170    6.7550   34.8160 C.2   503  GUN503      0.2482
      5  C6        87.7070    7.5270   33.7460 C.1   503  GUN503      0.2442
      6  O6        87.9760    8.7110   33.8760 O.2   503  GUN503     -0.2063
      7  N1        87.8940    6.7150   32.6140 N.2   503  GUN503     -0.2474
      8  C2        87.5560    5.3380   32.5060 C.1   503  GUN503      0.2608
      9  N2        87.7630    4.6840   31.4000 N.pl3 503  GUN503     -0.0220
     10  N3        86.9980    4.6260   33.5260 N.2   503  GUN503     -0.2682
     11  C4        86.8100    5.3970   34.6530 C.1   503  GUN503      0.1289
@<TRIPOS>BOND
     1     9     8    1
     2     8     7    2
     3     8    10    2
     4     7     5    2
     5    10    11    2
     6     5     6    2
     7     5     4    1
     8    11     4    1
     9    11     1    2
    10     4     3    2
    11     1     2    1
    12     3     2    1
