@<TRIPOS>MOLECULE
2ia4_GLU_A_1.pdb
 10 9 0 0 0
SMALL
GASTEIGER

@<TRIPOS>ATOM
      1  N         37.4970   34.3030   -1.5890 N.3   1401  GLU1401    -0.1208
      2  CA        36.3380   34.9510   -0.9110 C.3   1401  GLU1401     0.1949
      3  C         36.6350   35.2500    0.5510 C.2   1401  GLU1401     0.3819
      4  O         37.7270   34.8530    1.0080 O.co2 1401  GLU1401    -0.2441
      5  CB        35.0890   34.0630   -1.0320 C.3   1401  GLU1401     0.0424
      6  CG        35.3190   32.5500   -0.9570 C.3   1401  GLU1401     0.1161
      7  CD        35.4590   32.0110    0.4620 C.2   1401  GLU1401     0.3649
      8  OE1       35.4520   32.8180    1.4080 O.co2 1401  GLU1401    -0.2457
      9  OE2       35.5710   30.7770    0.6100 O.co2 1401  GLU1401    -0.2457
     10  OXT       35.7880   35.8910    1.2110 O.co2 1401  GLU1401    -0.2441
@<TRIPOS>BOND
     1     1     2    1
     2     5     6    1
     3     5     2    1
     4     6     7    1
     5     2     3    1
     6     7     9   ar
     7     7     8   ar
     8     3     4   ar
     9     3    10   ar
