@<TRIPOS>MOLECULE
2ia6_ATP_A_1.pdb
 30 32 0 0 0
SMALL
GASTEIGER

@<TRIPOS>ATOM
      1  PG       -50.0980  -13.2920   85.7260 P.3   401  ATP401      0.5373
      2  O1G      -48.7580  -13.9610   85.7600 O.3   401  ATP401     -0.1143
      3  O2G      -50.7050  -13.7020   84.2740 O.2   401  ATP401     -0.2221
      4  O3G      -51.0650  -13.6050   86.9870 O.3   401  ATP401     -0.1143
      5  PB       -49.4180  -11.0720   84.3160 P.3   401  ATP401      0.2277
      6  O1B      -50.5820  -10.4410   83.6620 O.3   401  ATP401     -0.4368
      7  O2B      -48.7310  -12.2300   83.4150 O.2   401  ATP401     -0.5168
      8  O3B      -49.7930  -11.6870   85.7710 O.3   401  ATP401     -0.2258
      9  PA       -47.5640   -9.9080   85.9460 P.3   401  ATP401      0.2189
     10  O1A      -46.3900   -9.0280   85.9670 O.2   401  ATP401     -0.5170
     11  O2A      -48.6680   -9.2710   86.9270 O.3   401  ATP401     -0.4371
     12  O3A      -48.2380   -9.9640   84.4730 O.3   401  ATP401     -0.2700
     13  O5'      -47.1570  -11.4150   86.3270 O.3   401  ATP401     -0.3112
     14  C5'      -46.8340  -11.6270   87.6920 C.3   401  ATP401      0.1813
     15  C4'      -47.1770  -13.0810   88.0340 C.3   401  ATP401      0.1795
     16  O4'      -46.3290  -13.9740   87.2420 O.3   401  ATP401     -0.3155
     17  C3'      -46.8200  -13.4010   89.5150 C.3   401  ATP401      0.1883
     18  O3'      -47.9670  -13.2110   90.3660 O.3   401  ATP401     -0.2202
     19  C2'      -46.3510  -14.8880   89.4540 C.3   401  ATP401      0.1151
     20  C1'      -45.8720  -15.0800   87.9790 C.3   401  ATP401      0.2873
     21  N9       -44.4350  -15.1970   87.8400 N.pl3 401  ATP401     -0.1460
     22  C8       -43.4710  -14.2970   88.2310 C.3   401  ATP401      0.3377
     23  N7       -42.2720  -14.7670   87.9600 N.2   401  ATP401     -0.2095
     24  C5       -42.4020  -16.0020   87.3670 C.2   401  ATP401      0.2526
     25  C6       -41.4970  -17.0000   86.8540 C.2   401  ATP401      0.4393
     26  N6       -40.1300  -16.7930   86.8970 N.pl3 401  ATP401      0.2180
     27  N1       -42.0080  -18.1150   86.3310 N.2   401  ATP401      0.0021
     28  C2       -43.3190  -18.3180   86.2820 C.3   401  ATP401      0.5254
     29  N3       -44.2130  -17.4370   86.7410 N.2   401  ATP401     -0.0055
     30  C4       -43.8020  -16.2800   87.2890 C.2   401  ATP401      0.3518
@<TRIPOS>BOND
     1     7     5    2
     2     6     5    1
     3     3     1    2
     4     5    12    1
     5     5     8    1
     6    12     9    1
     7     1     2    1
     8     1     8    1
     9     1     4    1
    10     9    10    2
    11     9    13    1
    12     9    11    1
    13    28    27    1
    14    28    29    1
    15    13    14    1
    16    27    25    2
    17    29    30    2
    18    25    26    1
    19    25    24    1
    20    16    20    1
    21    16    15    1
    22    30    24    1
    23    30    21    1
    24    24    23    2
    25    14    15    1
    26    21    20    1
    27    21    22    1
    28    23    22    1
    29    20    19    1
    30    15    17    1
    31    19    17    1
    32    17    18    1
