@<TRIPOS>MOLECULE
2ia6_BAP_F_1.pdb
 23 27 0 0 0
SMALL
GASTEIGER

@<TRIPOS>ATOM
      1  C1       -62.3640   48.7910  106.5450 C.ar  2906  BAP2906    -0.0000
      2  C2       -63.5980   48.5500  107.2100 C.ar  2906  BAP2906     0.0000
      3  C3       -63.5990   47.8190  108.4320 C.ar  2906  BAP2906    -0.0000
      4  C3A      -62.3720   47.3230  109.0080 C.ar  2906  BAP2906    -0.0000
      5  C4       -62.3650   46.5700  110.2240 C.ar  2906  BAP2906    -0.0000
      6  C5       -61.1330   46.0550  110.7860 C.ar  2906  BAP2906    -0.0003
      7  C5A      -59.8620   46.2820  110.1440 C.ar  2906  BAP2906    -0.0041
      8  C6       -58.5600   45.7580  110.6760 C.ar  2906  BAP2906    -0.0211
      9  C7       -57.2990   46.0640  109.9650 C.ar  2906  BAP2906     0.0064
     10  C8       -57.3880   46.7940  108.7170 C.ar  2906  BAP2906    -0.0021
     11  C8A      -58.6440   47.2920  108.2050 C.ar  2906  BAP2906    -0.0003
     12  C9       -58.6900   48.0340  107.0000 C.ar  2906  BAP2906    -0.0000
     13  C10      -59.9330   48.5140  106.4930 C.ar  2906  BAP2906    -0.0000
     14  C1A      -61.1430   48.3010  107.1290 C.ar  2906  BAP2906    -0.0000
     15  C3B      -61.1410   47.5530  108.3400 C.ar  2906  BAP2906    -0.0000
     16  C5B      -59.8720   47.0480  108.9040 C.ar  2906  BAP2906    -0.0003
     17  C1'      -55.9010   45.4840  110.3730 C.3   2906  BAP2906     0.2066
     18  O1'      -54.8610   46.5030  110.4940 O.3   2906  BAP2906    -0.2155
     19  C2'      -55.9300   44.6600  111.7180 C.3   2906  BAP2906     0.2167
     20  O2'      -54.8870   43.6430  111.7980 O.3   2906  BAP2906    -0.2173
     21  C3'      -57.2730   43.9600  112.0720 C.3   2906  BAP2906     0.1894
     22  O3'      -57.4400   42.7980  111.2860 O.3   2906  BAP2906    -0.2200
     23  C4'      -58.5410   44.9000  111.9370 C.3   2906  BAP2906     0.0617
@<TRIPOS>BOND
     1    13    12   ar
     2    13    14   ar
     3     1    14   ar
     4     1     2   ar
     5    12    11   ar
     6    14    15   ar
     7     2     3   ar
     8    11    10   ar
     9    11    16   ar
    10    15    16   ar
    11    15     4   ar
    12     3     4   ar
    13    10     9   ar
    14    16     7   ar
    15     4     5   ar
    16     9    17    1
    17     9     8   ar
    18     7     8   ar
    19     7     6   ar
    20     5     6   ar
    21    17    18    1
    22    17    19    1
    23     8    23    1
    24    22    21    1
    25    19    20    1
    26    19    21    1
    27    23    21    1
