@<TRIPOS>MOLECULE
2ia8_HEM_A_1.pdb
 43 50 0 0 0
SMALL
GASTEIGER

@<TRIPOS>ATOM
      1 FE         23.9160   12.2320   54.1520 Fe    296  HEM296      0.0000
      2  CHA       26.6500   12.5500   52.1950 C.2   296  HEM296      0.0000
      3  CHB       25.9150   12.2840   56.9050 C.2   296  HEM296      0.0000
      4  CHC       21.1610   12.0140   56.1400 C.2   296  HEM296      0.0000
      5  CHD       21.8960   12.4980   51.4050 C.2   296  HEM296      0.0000
      6  NA        25.8990   12.3960   54.4900 N.2   296  HEM296      0.0000
      7  C1A       26.8560   12.7590   53.5560 C.2   296  HEM296      0.0000
      8  C2A       28.1800   12.4980   54.1380 C.2   296  HEM296      0.0000
      9  C3A       27.9700   12.4190   55.4610 C.2   296  HEM296      0.0000
     10  C4A       26.5360   12.5620   55.7130 C.2   296  HEM296      0.0000
     11  CMA       28.8660   13.0260   56.5920 C.3   296  HEM296      0.0000
     12  CAA       29.4640   12.9800   53.4310 C.3   296  HEM296      0.0000
     13  CBA       29.6070   14.4330   52.9640 C.3   296  HEM296      0.0000
     14  CGA       31.0130   14.6730   52.2910 C.2   296  HEM296      0.0000
     15  O1A       30.9980   15.2530   51.1810 O.co2 296  HEM296      0.0000
     16  O2A       31.9990   14.2580   52.8760 O.co2 296  HEM296      0.0000
     17  NB        23.6090   12.2580   56.1280 N.ar  296  HEM296      0.0000
     18  C1B       24.5690   12.1910   57.1500 C.ar  296  HEM296      0.0000
     19  C2B       23.9150   12.1350   58.4310 C.ar  296  HEM296      0.0000
     20  C3B       22.5840   12.1020   58.2190 C.ar  296  HEM296      0.0000
     21  C4B       22.4100   12.0350   56.7410 C.ar  296  HEM296      0.0000
     22  CMB       24.6660   12.0750   59.7680 C.3   296  HEM296      0.0000
     23  CAB       21.4070   11.6500   59.0790 C.3   296  HEM296      0.0000
     24  CBB       21.6070   11.0990   60.4840 C.3   296  HEM296      0.0000
     25  NC        21.9350   12.3460   53.8340 N.2   296  HEM296      0.0000
     26  C1C       20.9340   12.2020   54.7870 C.2   296  HEM296      0.0000
     27  C2C       19.6240   12.2910   54.1680 C.2   296  HEM296      0.0000
     28  C3C       19.8400   12.3630   52.8530 C.2   296  HEM296      0.0000
     29  C4C       21.2670   12.5680   52.6400 C.2   296  HEM296      0.0000
     30  CMC       18.2940   12.2240   54.9380 C.3   296  HEM296      0.0000
     31  CAC       18.8800   12.4280   51.6830 C.3   296  HEM296      0.0000
     32  CBC       17.4220   12.2110   51.6730 C.3   296  HEM296      0.0000
     33  ND        24.1880   12.4840   52.2040 N.ar  296  HEM296      0.0000
     34  C1D       23.2420   12.4920   51.1830 C.ar  296  HEM296      0.0000
     35  C2D       23.9080   12.5850   49.9060 C.ar  296  HEM296      0.0000
     36  C3D       25.2340   12.6010   50.1300 C.ar  296  HEM296      0.0000
     37  C4D       25.4170   12.5050   51.5750 C.ar  296  HEM296      0.0000
     38  CMD       23.2140   12.2930   48.5670 C.3   296  HEM296      0.0000
     39  CAD       26.3490   12.2980   49.0880 C.3   296  HEM296      0.0000
     40  CBD       26.6710   13.7080   48.4940 C.3   296  HEM296      0.0000
     41  CGD       27.7460   13.7180   47.4460 C.2   296  HEM296      0.0000
     42  O1D       28.4400   12.7320   47.1740 O.co2 296  HEM296      0.0000
     43  O2D       27.9430   14.8680   46.9670 O.co2 296  HEM296      0.0000
@<TRIPOS>BOND
     1    43    41   ar
     2    42    41   ar
     3    41    40    1
     4    40    39    1
     5    38    35    1
     6    39    36    1
     7    35    36   ar
     8    35    34   ar
     9    36    37   ar
    10    15    14   ar
    11    34     5    2
    12    34    33   ar
    13     5    29    1
    14    37     2    2
    15    37    33   ar
    16    32    31    1
    17    31    28    1
    18     2     7    1
    19    33     1    1
    20    14    16   ar
    21    14    13    1
    22    29    28    1
    23    29    25    2
    24    28    27    2
    25    13    12    1
    26    12     8    1
    27     7     8    1
    28     7     6    2
    29    25     1    1
    30    25    26    1
    31     8     9    2
    32     1     6    1
    33     1    17    1
    34    27    26    1
    35    27    30    1
    36     6    10    1
    37    26     4    2
    38     9    10    1
    39     9    11    1
    40    10     3    2
    41    17    21   ar
    42    17    18   ar
    43     4    21    1
    44    21    20   ar
    45     3    18    1
    46    18    19   ar
    47    20    19   ar
    48    20    23    1
    49    19    22    1
    50    23    24    1
