@<TRIPOS>MOLECULE
2iag_HEM_A_1.pdb
 43 50 0 0 0
SMALL
GASTEIGER

@<TRIPOS>ATOM
      1 FE         69.0190   50.2580   45.1070 Fe    600  HEM600      0.0000
      2  CHA       71.7050   51.2620   43.2820 C.2   600  HEM600      0.0000
      3  CHB       68.3110   47.7900   42.8360 C.2   600  HEM600      0.0000
      4  CHC       66.0480   49.6350   46.7030 C.2   600  HEM600      0.0000
      5  CHD       69.7680   52.6260   47.5500 C.2   600  HEM600      0.0000
      6  NA        69.8380   49.6540   43.3720 N.ar  600  HEM600      0.0000
      7  C1A       70.9660   50.1960   42.7920 C.ar  600  HEM600      0.0000
      8  C2A       71.2380   49.4440   41.5810 C.ar  600  HEM600      0.0000
      9  C3A       70.3060   48.4850   41.4630 C.ar  600  HEM600      0.0000
     10  C4A       69.4060   48.5930   42.5920 C.ar  600  HEM600      0.0000
     11  CMA       70.1590   47.4400   40.3300 C.3   600  HEM600      0.0000
     12  CAA       72.4220   49.7090   40.6180 C.3   600  HEM600      0.0000
     13  CBA       72.2200   51.0510   39.9250 C.3   600  HEM600      0.0000
     14  CGA       71.8910   50.8030   38.4770 C.2   600  HEM600      0.0000
     15  O1A       72.6240   51.3540   37.6020 O.co2 600  HEM600      0.0000
     16  O2A       70.9090   50.0470   38.2060 O.co2 600  HEM600      0.0000
     17  NB        67.4420   48.9750   44.7930 N.2   600  HEM600      0.0000
     18  C1B       67.3910   47.9720   43.8550 C.2   600  HEM600      0.0000
     19  C2B       66.2120   47.1640   44.1160 C.2   600  HEM600      0.0000
     20  C3B       65.5830   47.6820   45.1880 C.2   600  HEM600      0.0000
     21  C4B       66.3550   48.8240   45.6300 C.2   600  HEM600      0.0000
     22  CMB       65.8310   45.9290   43.2700 C.3   600  HEM600      0.0000
     23  CAB       64.2820   47.2390   45.9120 C.2   600  HEM600      0.0000
     24  CBB       63.6810   46.0680   45.7160 C.2   600  HEM600      0.0000
     25  NC        68.0620   51.0360   46.7730 N.ar  600  HEM600      0.0000
     26  C1C       66.8810   50.5520   47.3070 C.ar  600  HEM600      0.0000
     27  C2C       66.6900   51.1770   48.6180 C.ar  600  HEM600      0.0000
     28  C3C       67.7270   51.9990   48.8390 C.ar  600  HEM600      0.0000
     29  C4C       68.5980   51.9260   47.6890 C.ar  600  HEM600      0.0000
     30  CMC       65.5000   50.9080   49.5620 C.3   600  HEM600      0.0000
     31  CAC       68.0440   52.8970   50.0630 C.2   600  HEM600      0.0000
     32  CBC       67.1020   53.4470   50.8180 C.2   600  HEM600      0.0000
     33  ND        70.5730   51.6920   45.4270 N.2   600  HEM600      0.0000
     34  C1D       70.5590   52.6560   46.4260 C.2   600  HEM600      0.0000
     35  C2D       71.4770   53.7080   46.0920 C.2   600  HEM600      0.0000
     36  C3D       72.1120   53.2950   44.7440 C.2   600  HEM600      0.0000
     37  C4D       71.4680   52.0260   44.4140 C.2   600  HEM600      0.0000
     38  CMD       71.7410   54.9570   46.9650 C.3   600  HEM600      0.0000
     39  CAD       73.1630   54.0290   43.8650 C.3   600  HEM600      0.0000
     40  CBD       74.0750   55.0200   44.5990 C.3   600  HEM600      0.0000
     41  CGD       73.9590   56.4620   44.1350 C.2   600  HEM600      0.0000
     42  O1D       73.8470   57.3620   45.0110 O.co2 600  HEM600      0.0000
     43  O2D       74.0020   56.7460   42.9020 O.co2 600  HEM600      0.0000
@<TRIPOS>BOND
     1    15    14   ar
     2    16    14   ar
     3    14    13    1
     4    13    12    1
     5    11     9    1
     6    12     8    1
     7     9     8   ar
     8     9    10   ar
     9     8     7   ar
    10    10     3    2
    11    10     6   ar
    12     7     2    2
    13     7     6   ar
    14     3    18    1
    15    43    41   ar
    16    22    19    1
    17     2    37    1
    18     6     1    1
    19    18    19    1
    20    18    17    2
    21    39    40    1
    22    39    36    1
    23    19    20    2
    24    41    40    1
    25    41    42   ar
    26    37    36    1
    27    37    33    2
    28    36    35    2
    29    17     1    1
    30    17    21    1
    31     1    33    1
    32     1    25    1
    33    20    21    1
    34    20    23    1
    35    33    34    1
    36    21     4    2
    37    24    23    2
    38    35    34    1
    39    35    38    1
    40    34     5    2
    41     4    26    1
    42    25    26   ar
    43    25    29   ar
    44    26    27   ar
    45     5    29    1
    46    29    28   ar
    47    27    28   ar
    48    27    30    1
    49    28    31    1
    50    31    32    2
