@<TRIPOS>MOLECULE
2iah_PVE_I_1.pdb
 26 28 0 0 0
SMALL
GASTEIGER

@<TRIPOS>ATOM
      1  O23      -12.0710   32.0290  117.5480 O.co2   1  PVE1       -0.2456
      2  C22      -12.2150   32.2510  118.7740 C.2     1  PVE1        0.3654
      3  O24      -11.6250   31.5720  119.6400 O.co2   1  PVE1       -0.2456
      4  C21      -13.1390   33.3720  119.2350 C.3     1  PVE1        0.1237
      5  C20      -12.5090   34.7650  119.0930 C.3     1  PVE1        0.0990
      6  C18      -12.0650   34.9330  117.6590 C.2     1  PVE1        0.2461
      7  O19      -12.9020   35.1880  116.8080 O.2     1  PVE1       -0.2730
      8  N17      -10.7540   34.7470  117.4530 N.am    1  PVE1       -0.1761
      9  C3       -10.0460   34.7950  116.3180 C.2     1  PVE1        0.1326
     10  C4        -8.5630   34.5470  116.4690 C.3     1  PVE1        0.0554
     11  C10       -7.8220   35.5410  115.5790 C.3     1  PVE1        0.0569
     12  C5        -6.3220   35.2720  115.6350 C.3     1  PVE1        0.0766
     13  C6        -5.5830   35.9870  114.5210 C.2     1  PVE1        0.2077
     14  O25       -4.4160   36.2850  114.6900 O.2     1  PVE1       -0.2883
     15  C7        -6.1670   36.2840  113.3550 C.2     1  PVE1        0.2114
     16  O26       -5.4900   36.3560  112.3410 O.2     1  PVE1       -0.2882
     17  C8        -7.6590   36.5300  113.2840 C.3     1  PVE1        0.1187
     18  C9        -8.3570   35.4800  114.1440 C.3     1  PVE1        0.1689
     19  N1        -9.7970   35.7610  114.2440 N.pl3   1  PVE1       -0.1901
     20  C14      -10.4910   36.7590  113.4340 C.3     1  PVE1        0.2288
     21  C15      -11.0840   37.8390  114.2990 C.2     1  PVE1        0.2538
     22  O16      -11.5340   37.5370  115.3960 O.2     1  PVE1       -0.2839
     23  C2       -10.5370   35.0490  115.0950 C.2     1  PVE1        0.3298
     24  N11      -11.7160   34.5830  114.6780 N.2     1  PVE1       -0.0642
     25  C12      -12.5290   35.1410  113.5990 C.3     1  PVE1        0.2678
     26  C13      -11.6050   35.9870  112.7070 C.3     1  PVE1        0.1127
@<TRIPOS>BOND
     1    16    15    2
     2    26    20    1
     3    26    25    1
     4    17    15    1
     5    17    18    1
     6    15    13    1
     7    20    19    1
     8    20    21    1
     9    25    24    1
    10    18    19    1
    11    18    11    1
    12    19    23    1
    13    21    22    2
    14    13    14    2
    15    13    12    1
    16    24    23    2
    17    23     9    1
    18    11    12    1
    19    11    10    1
    20     9    10    1
    21     9     8    2
    22     7     6    2
    23     8     6    1
    24     1     2   ar
    25     6     5    1
    26     2     4    1
    27     2     3   ar
    28     5     4    1
