@<TRIPOS>MOLECULE
2iaj_ATP_A_1.pdb
 31 33 0 0 0
SMALL
GASTEIGER

@<TRIPOS>ATOM
      1  PG       160.6960  -38.5890   76.3080 P.3   601  ATP601      0.5373
      2  O1G      160.2710  -40.0440   75.9990 O.3   601  ATP601     -0.1143
      3  O2G      160.9380  -38.2890   77.8320 O.3   601  ATP601     -0.1143
      4  O3G      161.9860  -38.2610   75.5290 O.2   601  ATP601     -0.2221
      5  PB       159.2660  -35.9840   75.9230 P.3   601  ATP601      0.2277
      6  O1B      158.1290  -35.6180   76.8430 O.3   601  ATP601     -0.4368
      7  O2B      159.2200  -35.4930   74.5220 O.2   601  ATP601     -0.5168
      8  O3B      159.4580  -37.6000   75.8590 O.3   601  ATP601     -0.2258
      9  PA       161.9780  -34.6740   76.1110 P.3   601  ATP601      0.2189
     10  O1A      162.9220  -34.6190   77.2470 O.3   601  ATP601     -0.4371
     11  O2A      162.4850  -35.1550   74.8120 O.2   601  ATP601     -0.5170
     12  O3A      160.6950  -35.5120   76.6130 O.3   601  ATP601     -0.2700
     13  O5'      161.2230  -33.2900   75.8660 O.3   601  ATP601     -0.3112
     14  C5'      161.4370  -32.1440   76.6720 C.3   601  ATP601      0.1813
     15  C4'      160.2870  -31.5740   77.3080 C.3   601  ATP601      0.1821
     16  O4'      159.5030  -31.0830   76.1930 O.3   601  ATP601     -0.3135
     17  C3'      159.2630  -32.4230   78.0280 C.3   601  ATP601      0.2184
     18  O3'      159.6900  -32.7590   79.3320 O.3   601  ATP601     -0.2174
     19  C2'      158.0150  -31.5800   77.9320 C.3   601  ATP601      0.2570
     20  O2'      157.8650  -30.6030   78.9350 O.3   601  ATP601     -0.2130
     21  C1'      158.0890  -31.0500   76.5040 C.3   601  ATP601      0.3186
     22  N9       157.3330  -31.9460   75.5550 N.pl3 601  ATP601     -0.1439
     23  C8       157.8130  -32.7470   74.5220 C.3   601  ATP601      0.3377
     24  N7       156.8910  -33.4100   73.8880 N.2   601  ATP601     -0.2095
     25  C5       155.7010  -33.0610   74.5080 C.2   601  ATP601      0.2526
     26  C6       154.3020  -33.4180   74.3190 C.2   601  ATP601      0.4393
     27  N6       153.8950  -34.2840   73.3710 N.pl3 601  ATP601      0.2180
     28  N1       153.3180  -32.8680   75.1360 N.2   601  ATP601      0.0021
     29  C2       153.7150  -31.9700   76.1270 C.3   601  ATP601      0.5254
     30  N3       154.9850  -31.5620   76.3990 N.2   601  ATP601     -0.0055
     31  C4       155.9410  -32.1480   75.5490 C.2   601  ATP601      0.3518
@<TRIPOS>BOND
     1    27    26    1
     2    24    25    2
     3    24    23    1
     4    26    25    1
     5    26    28    2
     6    25    31    1
     7     7     5    2
     8    23    22    1
     9    11     9    2
    10    28    29    1
    11     4     1    2
    12    31    22    1
    13    31    30    2
    14    22    21    1
    15     8     5    1
    16     8     1    1
    17    13     9    1
    18    13    14    1
    19     5    12    1
    20     5     6    1
    21     2     1    1
    22     9    12    1
    23     9    10    1
    24    29    30    1
    25    16    21    1
    26    16    15    1
    27     1     3    1
    28    21    19    1
    29    14    15    1
    30    15    17    1
    31    19    17    1
    32    19    20    1
    33    17    18    1
