@<TRIPOS>MOLECULE
2iba_AZA_A_1.pdb
 11 12 0 0 0
SMALL
GASTEIGER

@<TRIPOS>ATOM
      1  N1        30.2860   27.7280   36.6840 N.2   651  AZA651     -0.2300
      2  C2        29.6040   27.4740   37.8190 C.1   651  AZA651      0.3745
      3  O2        28.4440   27.9170   37.9240 O.2   651  AZA651     -0.1738
      4  N3        30.1360   26.7750   38.8610 N.2   651  AZA651     -0.2491
      5  C4        31.3620   26.2680   38.7010 C.1   651  AZA651      0.1531
      6  C5        32.1490   26.4830   37.5250 C.2   651  AZA651      0.2717
      7  C6        31.5300   27.2740   36.4440 C.1   651  AZA651      0.2477
      8  O6        32.1930   27.5180   35.3970 O.2   651  AZA651     -0.2062
      9  N7        33.3710   25.8690   37.6460 N.2   651  AZA651     -0.1149
     10  N8        33.2890   25.3030   38.9360 N.pl3 651  AZA651     -0.0026
     11  N9        32.0630   25.5290   39.6190 N.2   651  AZA651     -0.0705
@<TRIPOS>BOND
     1     8     7    2
     2     7     1    2
     3     7     6    1
     4     1     2    2
     5     6     9    2
     6     6     5    1
     7     9    10    1
     8     2     3    2
     9     2     4    2
    10     5     4    2
    11     5    11    2
    12    10    11    1
