@<TRIPOS>MOLECULE
2ibj_HEM_A_1.pdb
 43 50 0 0 0
SMALL
GASTEIGER

@<TRIPOS>ATOM
      1 FE         11.5970    9.5270   26.2800 Fe    201  HEM201      0.0000
      2  CHA       14.7510    9.7720   27.5240 C.2   201  HEM201      0.0000
      3  CHB       12.4760    6.6560   24.6560 C.2   201  HEM201      0.0000
      4  CHC        8.3230    9.1550   25.1750 C.2   201  HEM201      0.0000
      5  CHD       10.7460   12.4510   27.8830 C.2   201  HEM201      0.0000
      6  NA        13.2550    8.4590   26.1020 N.ar  201  HEM201      0.0000
      7  C1A       14.5040    8.7560   26.6440 C.ar  201  HEM201      0.0000
      8  C2A       15.4960    7.9080   26.1310 C.ar  201  HEM201      0.0000
      9  C3A       14.8670    7.0230   25.2860 C.ar  201  HEM201      0.0000
     10  C4A       13.4660    7.3350   25.3140 C.ar  201  HEM201      0.0000
     11  CMA       15.4790    5.9410   24.5150 C.3   201  HEM201      0.0000
     12  CAA       16.9900    7.9480   26.4650 C.3   201  HEM201      0.0000
     13  CBA       17.3190    7.5350   27.9230 C.3   201  HEM201      0.0000
     14  CGA       17.6690    6.0790   28.0620 C.2   201  HEM201      0.0000
     15  O1A       17.7080    5.3690   27.0250 O.co2 201  HEM201      0.0000
     16  O2A       18.1110    5.7210   29.1930 O.co2 201  HEM201      0.0000
     17  NB        10.6330    8.1660   25.2280 N.2   201  HEM201      0.0000
     18  C1B       11.1490    7.0490   24.6530 C.2   201  HEM201      0.0000
     19  C2B       10.1180    6.2790   24.0460 C.2   201  HEM201      0.0000
     20  C3B        8.9350    6.9040   24.1650 C.2   201  HEM201      0.0000
     21  C4B        9.2630    8.1300   24.8800 C.2   201  HEM201      0.0000
     22  CMB       10.4130    4.9950   23.3680 C.3   201  HEM201      0.0000
     23  CAB        7.6050    6.4030   23.6760 C.3   201  HEM201      0.0000
     24  CBB        7.2760    6.5740   22.2140 C.3   201  HEM201      0.0000
     25  NC         9.9270   10.5910   26.4210 N.ar  201  HEM201      0.0000
     26  C1C        8.6490   10.3340   25.8720 C.ar  201  HEM201      0.0000
     27  C2C        7.7010   11.3960   26.2320 C.ar  201  HEM201      0.0000
     28  C3C        8.3680   12.2780   27.0150 C.ar  201  HEM201      0.0000
     29  C4C        9.7440   11.8050   27.1280 C.ar  201  HEM201      0.0000
     30  CMC        6.2070   11.5040   25.8490 C.3   201  HEM201      0.0000
     31  CAC        7.8310   13.5370   27.6780 C.2   201  HEM201      0.0000
     32  CBC        7.4390   14.6560   27.0960 C.2   201  HEM201      0.0000
     33  ND        12.5370   10.8150   27.4560 N.2   201  HEM201      0.0000
     34  C1D       12.0500   11.9780   28.0490 C.2   201  HEM201      0.0000
     35  C2D       13.0530   12.6260   28.8740 C.2   201  HEM201      0.0000
     36  C3D       14.1610   11.8250   28.8500 C.2   201  HEM201      0.0000
     37  C4D       13.8450   10.7490   27.9130 C.2   201  HEM201      0.0000
     38  CMD       12.8620   13.9250   29.6850 C.3   201  HEM201      0.0000
     39  CAD       15.4510   11.9920   29.6600 C.3   201  HEM201      0.0000
     40  CBD       15.5330   10.8810   30.7520 C.3   201  HEM201      0.0000
     41  CGD       14.3600   10.9450   31.7490 C.2   201  HEM201      0.0000
     42  O1D       13.7180    9.8930   32.0030 O.co2 201  HEM201      0.0000
     43  O2D       14.0460   12.0840   32.1810 O.co2 201  HEM201      0.0000
@<TRIPOS>BOND
     1    24    23    1
     2    22    19    1
     3    23    20    1
     4    19    20    2
     5    19    18    1
     6    20    21    1
     7    11     9    1
     8    18     3    1
     9    18    17    2
    10     3    10    2
    11    21     4    2
    12    21    17    1
    13     4    26    1
    14    17     1    1
    15     9    10   ar
    16     9     8   ar
    17    10     6   ar
    18    30    27    1
    19    26    27   ar
    20    26    25   ar
    21     6     1    1
    22     6     7   ar
    23     8    12    1
    24     8     7   ar
    25    27    28   ar
    26     1    25    1
    27     1    33    1
    28    25    29   ar
    29    12    13    1
    30     7     2    2
    31    28    29   ar
    32    28    31    1
    33    15    14   ar
    34    32    31    2
    35    29     5    1
    36    33    37    2
    37    33    34    1
    38     2    37    1
    39     5    34    2
    40    37    36    1
    41    13    14    1
    42    34    35    1
    43    14    16   ar
    44    36    35    2
    45    36    39    1
    46    35    38    1
    47    39    40    1
    48    40    41    1
    49    41    42   ar
    50    41    43   ar
