@<TRIPOS>MOLECULE
2ibk_BAP_E_1.pdb
 23 27 0 0 0
SMALL
GASTEIGER

@<TRIPOS>ATOM
      1  C1         9.2940   -3.4170  -25.3330 C.ar  1106  BAP1106    -0.0000
      2  C2         8.0630   -3.6070  -24.6580 C.ar  1106  BAP1106     0.0000
      3  C3         8.0300   -4.2550  -23.3940 C.ar  1106  BAP1106    -0.0000
      4  C3A        9.2130   -4.7160  -22.8040 C.ar  1106  BAP1106    -0.0000
      5  C4         9.1820   -5.3460  -21.5560 C.ar  1106  BAP1106    -0.0000
      6  C5        10.3780   -5.7930  -20.9770 C.ar  1106  BAP1106    -0.0003
      7  C5A       11.6210   -5.6010  -21.6270 C.ar  1106  BAP1106    -0.0041
      8  C6        12.8340   -6.0190  -21.0490 C.ar  1106  BAP1106    -0.0211
      9  C7        14.0760   -5.7840  -21.7370 C.ar  1106  BAP1106     0.0064
     10  C8        14.0540   -5.2300  -23.0160 C.ar  1106  BAP1106    -0.0021
     11  C8A       12.8670   -4.8010  -23.5860 C.ar  1106  BAP1106    -0.0003
     12  C9        12.8900   -4.1720  -24.8440 C.ar  1106  BAP1106    -0.0000
     13  C10       11.6940   -3.7090  -25.4140 C.ar  1106  BAP1106    -0.0000
     14  C1A       10.4810   -3.8810  -24.7480 C.ar  1106  BAP1106    -0.0000
     15  C3B       10.4500   -4.5210  -23.4800 C.ar  1106  BAP1106    -0.0000
     16  C5B       11.6450   -4.9830  -22.8990 C.ar  1106  BAP1106    -0.0003
     17  C1'       15.3830   -6.2130  -21.2320 C.3   1106  BAP1106     0.2066
     18  O1'       16.4180   -5.3230  -21.4880 O.3   1106  BAP1106    -0.2155
     19  C2'       15.3210   -6.6490  -19.7350 C.3   1106  BAP1106     0.2167
     20  O2'       16.5060   -7.2940  -19.3470 O.3   1106  BAP1106    -0.2173
     21  C3'       14.0870   -7.4420  -19.3410 C.3   1106  BAP1106     0.1894
     22  O3'       14.1350   -8.6690  -20.0250 O.3   1106  BAP1106    -0.2200
     23  C4'       12.7880   -6.6850  -19.7240 C.3   1106  BAP1106     0.0617
@<TRIPOS>BOND
     1    13    12   ar
     2    13    14   ar
     3     1    14   ar
     4     1     2   ar
     5    12    11   ar
     6    14    15   ar
     7     2     3   ar
     8    11    10   ar
     9    11    16   ar
    10    15    16   ar
    11    15     4   ar
    12     3     4   ar
    13    10     9   ar
    14    16     7   ar
    15     4     5   ar
    16     9    17    1
    17     9     8   ar
    18     7     8   ar
    19     7     6   ar
    20     5     6   ar
    21    18    17    1
    22    17    19    1
    23     8    23    1
    24    22    21    1
    25    19    20    1
    26    19    21    1
    27    23    21    1
