@<TRIPOS>MOLECULE
2ibm_ADP_A_1.pdb
 27 29 0 0 0
SMALL
GASTEIGER

@<TRIPOS>ATOM
      1  PB       -11.8080  -19.8710  -34.0880 P.3   781  ADP781      0.5373
      2  O1B      -12.0730  -18.3910  -33.9250 O.3   781  ADP781     -0.1143
      3  O2B      -10.3380  -20.2230  -34.1380 O.2   781  ADP781     -0.2221
      4  O3B      -12.6270  -20.7770  -33.1980 O.3   781  ADP781     -0.1143
      5  PA       -11.7780  -19.6850  -36.9470 P.3   781  ADP781      0.2231
      6  O1A      -10.6960  -18.6840  -36.6220 O.3   781  ADP781     -0.4370
      7  O2A      -12.9100  -19.2610  -37.8670 O.2   781  ADP781     -0.5169
      8  O3A      -12.4100  -20.2040  -35.5500 O.3   781  ADP781     -0.2261
      9  O5'      -11.0960  -21.0320  -37.5530 O.3   781  ADP781     -0.3111
     10  C5'       -9.7960  -21.4680  -37.1280 C.3   781  ADP781      0.1813
     11  C4'       -8.7900  -21.5710  -38.3000 C.3   781  ADP781      0.1821
     12  O4'       -8.8120  -22.9200  -38.8350 O.3   781  ADP781     -0.3135
     13  C3'       -9.0650  -20.5590  -39.4280 C.3   781  ADP781      0.2184
     14  O3'       -7.8980  -19.6480  -39.6550 O.3   781  ADP781     -0.2174
     15  C2'       -9.3600  -21.4480  -40.6610 C.3   781  ADP781      0.2570
     16  O2'       -8.4940  -21.0970  -41.7700 O.3   781  ADP781     -0.2130
     17  C1'       -9.1890  -22.9150  -40.2200 C.3   781  ADP781      0.3186
     18  N9       -10.4570  -23.6890  -40.4270 N.pl3 781  ADP781     -0.1439
     19  C8       -11.5960  -23.5700  -39.7030 C.3   781  ADP781      0.3377
     20  N7       -12.5610  -24.4150  -40.1630 N.2   781  ADP781     -0.2095
     21  C5       -12.0480  -25.1070  -41.2090 C.2   781  ADP781      0.2526
     22  C6       -12.5240  -26.1630  -42.1610 C.2   781  ADP781      0.4393
     23  N6       -13.7630  -26.6530  -42.0920 N.pl3 781  ADP781      0.2180
     24  N1       -11.6480  -26.6060  -43.1130 N.2   781  ADP781      0.0021
     25  C2       -10.3870  -26.1220  -43.2150 C.3   781  ADP781      0.5254
     26  N3        -9.8950  -25.1690  -42.3900 N.2   781  ADP781     -0.0055
     27  C4       -10.6550  -24.6260  -41.3830 C.2   781  ADP781      0.3518
@<TRIPOS>BOND
     1    25    24    1
     2    25    26    1
     3    24    22    2
     4    26    27    2
     5    22    23    1
     6    22    21    1
     7    16    15    1
     8    27    21    1
     9    27    18    1
    10    21    20    2
    11    15    17    1
    12    15    13    1
    13    18    17    1
    14    18    19    1
    15    17    12    1
    16    20    19    1
    17    14    13    1
    18    13    11    1
    19    12    11    1
    20    11    10    1
    21     7     5    2
    22     9    10    1
    23     9     5    1
    24     5     6    1
    25     5     8    1
    26     8     1    1
    27     3     1    2
    28     1     2    1
    29     1     4    1
