@<TRIPOS>MOLECULE
2ibn_I1N_A_1.pdb
 12 12 0 0 0
SMALL
GASTEIGER

@<TRIPOS>ATOM
      1  C1         6.8790   25.1980   29.1580 C.2   710  I1N710      0.2161
      2  C2         7.7810   25.6790   28.0160 C.3   710  I1N710      0.2440
      3  C3         9.2350   26.0810   28.4900 C.3   710  I1N710      0.2221
      4  C4         9.1700   27.1140   29.6200 C.3   710  I1N710      0.2182
      5  C5         8.4350   26.5380   30.8310 C.3   710  I1N710      0.2221
      6  C6         6.9780   26.0550   30.4640 C.3   710  I1N710      0.2440
      7  O1         6.0730   24.2410   28.9820 O.2   710  I1N710     -0.2905
      8  O2         7.0270   26.8030   27.5830 O.3   710  I1N710     -0.2122
      9  O3        10.0550   26.6610   27.4510 O.3   710  I1N710     -0.2171
     10  O4        10.4790   27.6330   29.9780 O.3   710  I1N710     -0.2175
     11  O5         8.4370   27.5860   31.8160 O.3   710  I1N710     -0.2171
     12  O6         6.4000   25.3720   31.5490 O.3   710  I1N710     -0.2122
@<TRIPOS>BOND
     1     9     3    1
     2     8     2    1
     3     2     3    1
     4     2     1    1
     5     3     4    1
     6     7     1    2
     7     1     6    1
     8     4    10    1
     9     4     5    1
    10     6     5    1
    11     6    12    1
    12     5    11    1
