@<TRIPOS>MOLECULE
2ibs_NEA_A_1.pdb
 22 24 0 0 0
SMALL
GASTEIGER

@<TRIPOS>ATOM
      1  N        -17.2330   -6.2620   19.8300 N.3   1001  NEA1001    -0.1304
      2  CB       -17.1670   -7.2840   18.7490 C.3   1001  NEA1001     0.1209
      3  CG       -16.3640   -6.8180   17.5350 C.3   1001  NEA1001     0.0781
      4  SD       -16.8810   -5.2130   16.8720 S.3   1001  NEA1001    -0.1360
      5  C5'      -18.2270   -5.9700   15.9210 C.3   1001  NEA1001     0.0899
      6  C4'      -19.6120   -5.5630   16.4260 C.3   1001  NEA1001     0.1630
      7  O4'      -19.7180   -4.1550   16.4710 O.3   1001  NEA1001    -0.3153
      8  C3'      -20.7310   -6.0540   15.5210 C.3   1001  NEA1001     0.2168
      9  O3'      -21.7330   -6.6330   16.3280 O.3   1001  NEA1001    -0.2175
     10  C2'      -21.2470   -4.8020   14.8280 C.3   1001  NEA1001     0.2569
     11  O2'      -22.6360   -4.8600   14.5910 O.3   1001  NEA1001    -0.2130
     12  C1'      -20.8800   -3.6940   15.8040 C.3   1001  NEA1001     0.3185
     13  N9       -20.5940   -2.3850   15.1750 N.pl3 1001  NEA1001    -0.1439
     14  C8       -19.8840   -2.1480   14.0230 C.3   1001  NEA1001     0.3377
     15  N7       -19.8420   -0.8130   13.8060 N.2   1001  NEA1001    -0.2095
     16  C5       -20.5050   -0.1900   14.8030 C.2   1001  NEA1001     0.2526
     17  C6       -20.7640    1.1530   15.0690 C.2   1001  NEA1001     0.4393
     18  N6       -20.3180    2.1000   14.2480 N.pl3 1001  NEA1001     0.2180
     19  N1       -21.4910    1.5020   16.1940 N.2   1001  NEA1001     0.0021
     20  C2       -21.9560    0.5200   17.0510 C.3   1001  NEA1001     0.5254
     21  N3       -21.6940   -0.8110   16.7780 N.2   1001  NEA1001    -0.0055
     22  C4       -20.9800   -1.1650   15.6750 C.2   1001  NEA1001     0.3518
@<TRIPOS>BOND
     1    15    14    1
     2    15    16    2
     3    14    13    1
     4    18    17    1
     5    11    10    1
     6    16    17    1
     7    16    22    1
     8    10     8    1
     9    10    12    1
    10    17    19    2
    11    13    22    1
    12    13    12    1
    13     8     9    1
    14     8     6    1
    15    22    21    2
    16    12     7    1
    17     5     6    1
    18     5     4    1
    19    19    20    1
    20     6     7    1
    21    21    20    1
    22     4     3    1
    23     3     2    1
    24     2     1    1
