@<TRIPOS>MOLECULE
2ibt_NEA_A_1.pdb
 22 24 0 0 0
SMALL
GASTEIGER

@<TRIPOS>ATOM
      1  N        -17.1190   -6.4090   19.8840 N.3   2001  NEA2001    -0.1304
      2  CB       -16.8910   -7.4640   18.8720 C.3   2001  NEA2001     0.1209
      3  CG       -16.0430   -6.9990   17.6880 C.3   2001  NEA2001     0.0781
      4  SD       -16.7490   -5.5830   16.7970 S.3   2001  NEA2001    -0.1360
      5  C5'      -18.1310   -6.4450   15.9910 C.3   2001  NEA2001     0.0899
      6  C4'      -19.4850   -5.8910   16.4630 C.3   2001  NEA2001     0.1630
      7  O4'      -19.5060   -4.4850   16.3600 O.3   2001  NEA2001    -0.3153
      8  C3'      -20.6820   -6.3750   15.6460 C.3   2001  NEA2001     0.2168
      9  O3'      -21.7110   -6.8270   16.5070 O.3   2001  NEA2001    -0.2175
     10  C2'      -21.1380   -5.1400   14.8690 C.3   2001  NEA2001     0.2569
     11  O2'      -22.5230   -5.1530   14.5330 O.3   2001  NEA2001    -0.2130
     12  C1'      -20.7380   -4.0150   15.8040 C.3   2001  NEA2001     0.3185
     13  N9       -20.4340   -2.7050   15.1960 N.pl3 2001  NEA2001    -0.1439
     14  C8       -19.6750   -2.4540   14.0740 C.3   2001  NEA2001     0.3377
     15  N7       -19.6350   -1.1110   13.8790 N.2   2001  NEA2001    -0.2095
     16  C5       -20.3370   -0.4960   14.8760 C.2   2001  NEA2001     0.2526
     17  C6       -20.6310    0.8380   15.1840 C.2   2001  NEA2001     0.4393
     18  N6       -20.1770    1.8480   14.4470 N.pl3 2001  NEA2001     0.2180
     19  N1       -21.3890    1.1300   16.2910 N.2   2001  NEA2001     0.0021
     20  C2       -21.8790    0.1230   17.0960 C.3   2001  NEA2001     0.5254
     21  N3       -21.6170   -1.1890   16.7780 N.2   2001  NEA2001    -0.0055
     22  C4       -20.8470   -1.4980   15.6960 C.2   2001  NEA2001     0.3518
@<TRIPOS>BOND
     1    15    14    1
     2    15    16    2
     3    14    13    1
     4    18    17    1
     5    11    10    1
     6    10     8    1
     7    10    12    1
     8    16    17    1
     9    16    22    1
    10    17    19    2
    11    13    22    1
    12    13    12    1
    13     8     6    1
    14     8     9    1
    15    22    21    2
    16    12     7    1
    17     5     6    1
    18     5     4    1
    19    19    20    1
    20     7     6    1
    21    21    20    1
    22     4     3    1
    23     3     2    1
    24     2     1    1
