@<TRIPOS>MOLECULE
2ibu_COA_A_1.pdb
 48 50 0 0 0
SMALL
GASTEIGER

@<TRIPOS>ATOM
      1  N1A      -43.9610   67.9270   70.2840 N.2   6001  COA6001     0.0021
      2  C2A      -43.6370   68.8240   71.2420 C.3   6001  COA6001     0.5254
      3  N3A      -42.4630   68.8280   71.9150 N.2   6001  COA6001    -0.0055
      4  C4A      -41.5250   67.9030   71.6420 C.2   6001  COA6001     0.3518
      5  C5A      -41.8110   66.9010   70.6150 C.2   6001  COA6001     0.2526
      6  C6A      -43.1120   66.9370   69.9120 C.2   6001  COA6001     0.4393
      7  N6A      -43.4100   66.0270   68.9530 N.pl3 6001  COA6001     0.2180
      8  N7A      -40.7720   66.0810   70.4880 N.2   6001  COA6001    -0.2095
      9  C8A      -39.8580   66.5210   71.3800 C.3   6001  COA6001     0.3377
     10  N9A      -40.3030   67.5970   72.0700 N.pl3 6001  COA6001    -0.1439
     11  C1B      -39.5730   68.3530   73.1100 C.3   6001  COA6001     0.3185
     12  C2B      -39.2490   67.5670   74.3660 C.3   6001  COA6001     0.2543
     13  O2B      -40.3460   67.5810   75.2840 O.3   6001  COA6001    -0.2131
     14  C3B      -38.0540   68.3310   74.8910 C.3   6001  COA6001     0.1928
     15  O3B      -38.4850   69.4230   75.6990 O.3   6001  COA6001    -0.2673
     16  P3B      -37.6370   69.8400   77.0110 P.3   6001  COA6001     0.5327
     17  O7A      -38.3040   71.2410   77.7210 O.3   6001  COA6001    -0.1145
     18  O8A      -36.0040   70.0970   76.5980 O.2   6001  COA6001    -0.2224
     19  O9A      -37.7270   68.6920   78.0010 O.3   6001  COA6001    -0.1145
     20  C4B      -37.3610   68.8790   73.6490 C.3   6001  COA6001     0.1795
     21  O4B      -38.3160   68.8000   72.5960 O.3   6001  COA6001    -0.3136
     22  C5B      -36.1620   68.0380   73.2410 C.3   6001  COA6001     0.1812
     23  O5B      -36.6750   66.7830   72.8130 O.3   6001  COA6001    -0.3112
     24  P1A      -35.8020   65.4380   72.9440 P.3   6001  COA6001     0.2189
     25  O1A      -36.7450   64.2530   72.8950 O.2   6001  COA6001    -0.5170
     26  O2A      -34.8220   65.4800   74.3320 O.3   6001  COA6001    -0.4371
     27  O3A      -34.9680   65.4680   71.5740 O.3   6001  COA6001    -0.2703
     28  P2A      -33.4140   65.8600   71.5320 P.3   6001  COA6001     0.2188
     29  O4A      -33.1490   67.3150   71.8740 O.2   6001  COA6001    -0.5170
     30  O5A      -32.5820   64.7570   72.5210 O.3   6001  COA6001    -0.4371
     31  O6A      -33.0240   65.6680   69.9870 O.3   6001  COA6001    -0.3138
     32  CBP      -33.0710   64.6420   67.7960 C.3   6001  COA6001     0.0645
     33  CCP      -33.8040   64.8580   69.1140 C.3   6001  COA6001     0.1519
     34  CDP      -33.7310   65.5280   66.7390 C.3   6001  COA6001     0.0056
     35  CEP      -31.6030   65.0220   67.9780 C.3   6001  COA6001     0.0056
     36  CAP      -33.1630   63.1490   67.4100 C.3   6001  COA6001     0.2312
     37  OAP      -34.5140   62.6650   67.5660 O.3   6001  COA6001    -0.2131
     38  C9P      -32.6810   62.9650   65.9980 C.2   6001  COA6001     0.2719
     39  O9P      -31.4830   62.9130   65.7750 O.2   6001  COA6001    -0.2706
     40  N8P      -33.6150   62.8950   65.0420 N.am  6001  COA6001    -0.2028
     41  C7P      -33.2720   62.7590   63.6380 C.3   6001  COA6001     0.1248
     42  C6P      -33.3470   61.3150   63.1650 C.3   6001  COA6001     0.1102
     43  C5P      -32.7070   61.2970   61.8030 C.2   6001  COA6001     0.2432
     44  O5P      -31.9090   62.1940   61.5070 O.2   6001  COA6001    -0.2733
     45  N4P      -33.0520   60.2800   61.0010 N.am  6001  COA6001    -0.2044
     46  C3P      -32.5260   60.1220   59.6420 C.3   6001  COA6001     0.1276
     47  C2P      -33.1610   61.1390   58.7000 C.3   6001  COA6001     0.0920
     48  S1P      -32.1620   61.5750   57.2470 S.3   6001  COA6001    -0.0802
@<TRIPOS>BOND
     1    48    47    1
     2    47    46    1
     3    46    45    1
     4    45    43   am
     5    44    43    2
     6    43    42    1
     7    42    41    1
     8    41    40    1
     9    40    38   am
    10    39    38    2
    11    38    36    1
    12    34    32    1
    13    36    37    1
    14    36    32    1
    15    32    35    1
    16    32    33    1
    17     7     6    1
    18    33    31    1
    19     6     1    2
    20     6     5    1
    21    31    28    1
    22     1     2    1
    23     8     5    2
    24     8     9    1
    25     5     4    1
    26     2     3    1
    27     9    10    1
    28    28    27    1
    29    28    29    2
    30    28    30    1
    31    27    24    1
    32     4     3    2
    33     4    10    1
    34    10    11    1
    35    21    11    1
    36    21    20    1
    37    23    24    1
    38    23    22    1
    39    25    24    2
    40    24    26    1
    41    11    12    1
    42    22    20    1
    43    20    14    1
    44    12    14    1
    45    12    13    1
    46    14    15    1
    47    15    16    1
    48    18    16    2
    49    16    17    1
    50    16    19    1
