@<TRIPOS>MOLECULE
2ibw_COA_A_1.pdb
 48 50 0 0 0
SMALL
GASTEIGER

@<TRIPOS>ATOM
      1  N1A      -44.1420   68.3220   70.9100 N.2   6001  COA6001     0.0021
      2  C2A      -43.8140   69.1800   71.9040 C.3   6001  COA6001     0.5254
      3  N3A      -42.6290   69.1650   72.5440 N.2   6001  COA6001    -0.0055
      4  C4A      -41.6890   68.2580   72.2050 C.2   6001  COA6001     0.3518
      5  C5A      -41.9830   67.3080   71.1340 C.2   6001  COA6001     0.2526
      6  C6A      -43.2950   67.3630   70.4680 C.2   6001  COA6001     0.4393
      7  N6A      -43.5990   66.4920   69.4710 N.pl3 6001  COA6001     0.2180
      8  N7A      -40.9430   66.5070   70.9430 N.2   6001  COA6001    -0.2095
      9  C8A      -40.0090   66.9030   71.8320 C.3   6001  COA6001     0.3377
     10  N9A      -40.4530   67.9370   72.5840 N.pl3 6001  COA6001    -0.1439
     11  C1B      -39.7030   68.6510   73.6400 C.3   6001  COA6001     0.3185
     12  C2B      -39.4530   67.8670   74.9120 C.3   6001  COA6001     0.2543
     13  O2B      -40.5680   67.9500   75.8070 O.3   6001  COA6001    -0.2131
     14  C3B      -38.2410   68.5990   75.4500 C.3   6001  COA6001     0.1928
     15  O3B      -38.6550   69.7570   76.1650 O.3   6001  COA6001    -0.2673
     16  P3B      -37.8190   70.2620   77.4410 P.3   6001  COA6001     0.5327
     17  O7A      -38.5580   71.6670   78.0540 O.3   6001  COA6001    -0.1145
     18  O8A      -36.2020   70.5550   77.0060 O.2   6001  COA6001    -0.2224
     19  O9A      -37.8820   69.1640   78.4830 O.3   6001  COA6001    -0.1145
     20  C4B      -37.4890   69.0860   74.2230 C.3   6001  COA6001     0.1795
     21  O4B      -38.4160   69.0320   73.1430 O.3   6001  COA6001    -0.3136
     22  C5B      -36.2890   68.2070   73.9040 C.3   6001  COA6001     0.1812
     23  O5B      -36.7290   66.9220   73.4730 O.3   6001  COA6001    -0.3112
     24  P1A      -35.7400   65.6580   73.6210 P.3   6001  COA6001     0.2189
     25  O1A      -36.5540   64.3980   73.8200 O.2   6001  COA6001    -0.5170
     26  O2A      -34.6310   65.9100   74.8900 O.3   6001  COA6001    -0.4371
     27  O3A      -35.0370   65.6120   72.1730 O.3   6001  COA6001    -0.2703
     28  P2A      -33.5350   66.1300   71.9190 P.3   6001  COA6001     0.2188
     29  O4A      -33.3530   67.5840   72.3070 O.2   6001  COA6001    -0.5170
     30  O5A      -32.4420   65.1660   72.7900 O.3   6001  COA6001    -0.4371
     31  O6A      -33.3710   65.9750   70.3180 O.3   6001  COA6001    -0.3138
     32  CBP      -33.1550   64.6590   68.2490 C.3   6001  COA6001     0.0645
     33  CCP      -33.7530   64.7640   69.6540 C.3   6001  COA6001     0.1519
     34  CDP      -33.8360   65.7000   67.3540 C.3   6001  COA6001     0.0056
     35  CEP      -31.6530   64.9130   68.3690 C.3   6001  COA6001     0.0056
     36  CAP      -33.3770   63.2360   67.6800 C.3   6001  COA6001     0.2312
     37  OAP      -34.7680   62.8510   67.7380 O.3   6001  COA6001    -0.2131
     38  C9P      -32.8950   63.0930   66.2550 C.2   6001  COA6001     0.2719
     39  O9P      -31.7070   63.0320   66.0020 O.2   6001  COA6001    -0.2706
     40  N8P      -33.8380   63.0340   65.3120 N.am  6001  COA6001    -0.2028
     41  C7P      -33.5190   62.9130   63.9040 C.3   6001  COA6001     0.1248
     42  C6P      -33.5130   61.4600   63.4650 C.3   6001  COA6001     0.1102
     43  C5P      -32.9220   61.4170   62.0780 C.2   6001  COA6001     0.2432
     44  O5P      -32.1470   62.3010   61.7170 O.2   6001  COA6001    -0.2733
     45  N4P      -33.2740   60.3880   61.3070 N.am  6001  COA6001    -0.2044
     46  C3P      -32.7640   60.2280   59.9480 C.3   6001  COA6001     0.1276
     47  C2P      -33.4190   61.1870   58.9660 C.3   6001  COA6001     0.0920
     48  S1P      -32.3410   61.6510   57.5810 S.3   6001  COA6001    -0.0802
@<TRIPOS>BOND
     1    48    47    1
     2    47    46    1
     3    46    45    1
     4    45    43   am
     5    44    43    2
     6    43    42    1
     7    42    41    1
     8    41    40    1
     9    40    38   am
    10    39    38    2
    11    38    36    1
    12    34    32    1
    13    36    37    1
    14    36    32    1
    15    32    35    1
    16    32    33    1
    17     7     6    1
    18    33    31    1
    19    31    28    1
    20     6     1    2
    21     6     5    1
    22     1     2    1
    23     8     5    2
    24     8     9    1
    25     5     4    1
    26     9    10    1
    27     2     3    1
    28    28    27    1
    29    28    29    2
    30    28    30    1
    31    27    24    1
    32     4     3    2
    33     4    10    1
    34    10    11    1
    35    21    11    1
    36    21    20    1
    37    23    24    1
    38    23    22    1
    39    24    25    2
    40    24    26    1
    41    11    12    1
    42    22    20    1
    43    20    14    1
    44    12    14    1
    45    12    13    1
    46    14    15    1
    47    15    16    1
    48    18    16    2
    49    16    17    1
    50    16    19    1
