@<TRIPOS>MOLECULE
2iby_COA_A_1.pdb
 48 50 0 0 0
SMALL
GASTEIGER

@<TRIPOS>ATOM
      1  N1A      -44.1200   68.0930   70.5850 N.2   6001  COA6001     0.0021
      2  C2A      -43.7920   68.9530   71.5770 C.3   6001  COA6001     0.5254
      3  N3A      -42.6070   68.9500   72.2240 N.2   6001  COA6001    -0.0055
      4  C4A      -41.6640   68.0500   71.8980 C.2   6001  COA6001     0.3518
      5  C5A      -41.9560   67.0950   70.8320 C.2   6001  COA6001     0.2526
      6  C6A      -43.2650   67.1380   70.1530 C.2   6001  COA6001     0.4393
      7  N6A      -43.5720   66.2610   69.1580 N.pl3 6001  COA6001     0.2180
      8  N7A      -40.9110   66.2960   70.6550 N.2   6001  COA6001    -0.2095
      9  C8A      -39.9770   66.7030   71.5420 C.3   6001  COA6001     0.3377
     10  N9A      -40.4280   67.7400   72.2850 N.pl3 6001  COA6001    -0.1439
     11  C1B      -39.6810   68.4470   73.3380 C.3   6001  COA6001     0.3185
     12  C2B      -39.3540   67.6070   74.5570 C.3   6001  COA6001     0.2543
     13  O2B      -40.4420   67.5990   75.4860 O.3   6001  COA6001    -0.2131
     14  C3B      -38.1700   68.3680   75.0930 C.3   6001  COA6001     0.1928
     15  O3B      -38.6680   69.4580   75.8600 O.3   6001  COA6001    -0.2673
     16  P3B      -37.8250   70.0180   77.1110 P.3   6001  COA6001     0.5327
     17  O7A      -38.6920   71.2750   77.8600 O.3   6001  COA6001    -0.1145
     18  O8A      -36.3010   70.5630   76.5950 O.2   6001  COA6001    -0.2224
     19  O9A      -37.6370   68.8710   78.0800 O.3   6001  COA6001    -0.1145
     20  C4B      -37.4680   68.9120   73.8530 C.3   6001  COA6001     0.1795
     21  O4B      -38.4330   68.8930   72.8070 O.3   6001  COA6001    -0.3136
     22  C5B      -36.3020   68.0400   73.4060 C.3   6001  COA6001     0.1812
     23  O5B      -36.7980   66.7440   73.0740 O.3   6001  COA6001    -0.3112
     24  P1A      -35.8350   65.4600   73.2080 P.3   6001  COA6001     0.2189
     25  O1A      -36.6670   64.1990   73.3060 O.2   6001  COA6001    -0.5170
     26  O2A      -34.7430   65.6700   74.4960 O.3   6001  COA6001    -0.4371
     27  O3A      -35.1200   65.4850   71.7800 O.3   6001  COA6001    -0.2703
     28  P2A      -33.6060   65.9730   71.5920 P.3   6001  COA6001     0.2188
     29  O4A      -33.3750   67.4390   71.9190 O.2   6001  COA6001    -0.5170
     30  O5A      -32.6080   64.9680   72.5100 O.3   6001  COA6001    -0.4371
     31  O6A      -33.3970   65.8040   70.0140 O.3   6001  COA6001    -0.3138
     32  CBP      -33.2270   64.5480   67.9560 C.3   6001  COA6001     0.0645
     33  CCP      -33.8070   64.6070   69.3650 C.3   6001  COA6001     0.1519
     34  CDP      -33.9850   65.5320   67.0660 C.3   6001  COA6001     0.0056
     35  CEP      -31.7490   64.9310   68.0050 C.3   6001  COA6001     0.0056
     36  CAP      -33.3670   63.1030   67.4330 C.3   6001  COA6001     0.2312
     37  OAP      -34.7310   62.6520   67.5450 O.3   6001  COA6001    -0.2131
     38  C9P      -32.8960   63.0030   66.0100 C.2   6001  COA6001     0.2719
     39  O9P      -31.7050   62.9770   65.7690 O.2   6001  COA6001    -0.2706
     40  N8P      -33.8290   62.9610   65.0570 N.am  6001  COA6001    -0.2028
     41  C7P      -33.4830   62.8880   63.6550 C.3   6001  COA6001     0.1248
     42  C6P      -33.3540   61.4340   63.2230 C.3   6001  COA6001     0.1102
     43  C5P      -32.8100   61.3940   61.8220 C.2   6001  COA6001     0.2432
     44  O5P      -32.0410   62.2750   61.4330 O.2   6001  COA6001    -0.2733
     45  N4P      -33.1850   60.3420   61.0930 N.am  6001  COA6001    -0.2044
     46  C3P      -32.7400   60.1370   59.7120 C.3   6001  COA6001     0.1276
     47  C2P      -33.3620   61.1680   58.7790 C.3   6001  COA6001     0.0920
     48  S1P      -32.3600   61.5660   57.3230 S.3   6001  COA6001    -0.0802
@<TRIPOS>BOND
     1    48    47    1
     2    47    46    1
     3    46    45    1
     4    45    43   am
     5    44    43    2
     6    43    42    1
     7    42    41    1
     8    41    40    1
     9    40    38   am
    10    39    38    2
    11    38    36    1
    12    34    32    1
    13    36    37    1
    14    36    32    1
    15    32    35    1
    16    32    33    1
    17     7     6    1
    18    33    31    1
    19    31    28    1
    20     6     1    2
    21     6     5    1
    22     1     2    1
    23     8     5    2
    24     8     9    1
    25     5     4    1
    26     9    10    1
    27     2     3    1
    28    28    27    1
    29    28    29    2
    30    28    30    1
    31    27    24    1
    32     4     3    2
    33     4    10    1
    34    10    11    1
    35    21    11    1
    36    21    20    1
    37    23    24    1
    38    23    22    1
    39    24    25    2
    40    24    26    1
    41    11    12    1
    42    22    20    1
    43    20    14    1
    44    12    14    1
    45    12    13    1
    46    14    15    1
    47    15    16    1
    48    18    16    2
    49    16    17    1
    50    16    19    1
