@<TRIPOS>MOLECULE
2ibz_SMA_C_1.pdb
 37 38 0 0 0
SMALL
GASTEIGER

@<TRIPOS>ATOM
      1  C2       -17.2800   37.7090  -17.7680 C.ar  505  SMA505      0.1220
      2  C3       -17.4820   37.1770  -19.0120 C.ar  505  SMA505      0.0475
      3  C3M      -17.4500   38.0240  -20.2390 C.3   505  SMA505      0.0373
      4  C4       -17.7490   35.7330  -19.1860 C.ar  505  SMA505      0.2002
      5  C4A      -17.7860   34.9400  -17.9220 C.ar  505  SMA505      0.1105
      6  C5       -18.0640   33.5220  -17.8750 C.ar  505  SMA505      0.1479
      7  C5M      -19.2990   31.8920  -19.0720 C.3   505  SMA505      0.2525
      8  C6       -18.0760   32.8110  -16.6770 C.ar  505  SMA505      0.0774
      9  C7       -17.8130   33.4780  -15.4780 C.ar  505  SMA505      0.1835
     10  C7M      -18.4130   31.5780  -14.1310 C.3   505  SMA505      0.2526
     11  C8       -17.5440   34.8810  -15.4710 C.ar  505  SMA505      0.2636
     12  C8A      -17.5440   35.5890  -16.6980 C.ar  505  SMA505      0.1925
     13  C9       -17.0430   39.1660  -17.4380 C.3   505  SMA505      0.0644
     14  C10      -15.6130   39.6470  -17.4460 C.3   505  SMA505      0.0104
     15  C11      -15.5340   40.9930  -16.6960 C.3   505  SMA505      0.0278
     16  C12      -14.2320   41.7450  -17.0050 C.3   505  SMA505      0.1179
     17  C13      -12.9790   40.8960  -16.7460 C.3   505  SMA505      0.0586
     18  C14      -11.6990   41.7640  -16.9300 C.3   505  SMA505      0.1395
     19  C15      -10.5020   40.8810  -16.9130 C.2   505  SMA505      0.0029
     20  C16       -9.5010   40.9420  -16.0180 C.2   505  SMA505     -0.0022
     21  C17       -8.3650   40.0340  -16.0510 C.2   505  SMA505     -0.0006
     22  C18       -7.3340   40.1140  -15.1850 C.2   505  SMA505     -0.0046
     23  C19       -6.1730   39.2290  -15.1700 C.2   505  SMA505     -0.0261
     24  C20       -5.2610   39.3740  -14.1850 C.2   505  SMA505     -0.0300
     25  C21       -4.0370   38.5690  -14.0350 C.3   505  SMA505      0.0304
     26  C22      -16.7080   41.8910  -17.0480 C.3   505  SMA505      0.0025
     27  C23      -14.2240   43.5000  -18.6630 C.3   505  SMA505      0.1740
     28  C24      -13.0160   40.2720  -15.3610 C.3   505  SMA505      0.0054
     29  C25      -10.9880   43.9560  -16.2120 C.3   505  SMA505      0.1745
     30  C26       -6.0410   38.2020  -16.2540 C.3   505  SMA505      0.0307
     31  O1       -17.2960   36.9470  -16.5940 O.2   505  SMA505     -0.4544
     32  O4       -17.9390   35.2390  -20.3110 O.2   505  SMA505     -0.2866
     33  O5       -18.3230   32.9190  -19.0750 O.3   505  SMA505     -0.4711
     34  O7       -17.7900   32.8640  -14.2370 O.3   505  SMA505     -0.4680
     35  O8       -17.2900   35.5940  -14.3560 O.3   505  SMA505     -0.2800
     36  O12      -14.2440   42.1030  -18.4070 O.3   505  SMA505     -0.3535
     37  O14      -11.6540   42.7410  -15.8580 O.3   505  SMA505     -0.3491
@<TRIPOS>BOND
     1    32     4    2
     2     3     2    1
     3     4     2   ar
     4     4     5   ar
     5    33     7    1
     6    33     6    1
     7     2     1   ar
     8    27    36    1
     9    36    16    1
    10     5     6   ar
    11     5    12   ar
    12     6     8   ar
    13     1    13    1
    14     1    31   ar
    15    14    13    1
    16    14    15    1
    17    26    15    1
    18    16    17    1
    19    16    15    1
    20    18    19    1
    21    18    17    1
    22    18    37    1
    23    19    20    2
    24    17    28    1
    25    12    31   ar
    26    12    11   ar
    27     8     9   ar
    28    30    23    1
    29    29    37    1
    30    21    20    1
    31    21    22    2
    32     9    11   ar
    33     9    34    1
    34    11    35    1
    35    22    23    1
    36    23    24    2
    37    34    10    1
    38    24    25    1
