@<TRIPOS>MOLECULE
2ibz_UQ6_C_1.pdb
 43 43 0 0 0
SMALL
GASTEIGER

@<TRIPOS>ATOM
      1  C1       -14.0670   63.0260    2.3170 C.2   506  UQ6506      0.0198
      2  C1M      -12.5950   62.8210    2.6990 C.3   506  UQ6506      0.0343
      3  C2       -14.3300   64.1140    1.3700 C.2   506  UQ6506      0.2282
      4  O2       -13.3850   64.7950    0.9370 O.2   506  UQ6506     -0.2836
      5  C3       -15.7090   64.3860    0.9430 C.2   506  UQ6506      0.2140
      6  C4       -16.7320   63.6290    1.4370 C.2   506  UQ6506      0.2140
      7  C5       -16.4640   62.5470    2.3850 C.2   506  UQ6506      0.2285
      8  O5       -17.3990   61.8710    2.8280 O.2   506  UQ6506     -0.2835
      9  C6       -15.0970   62.2600    2.8190 C.2   506  UQ6506      0.0235
     10  O3       -15.9520   65.4390    0.0240 O.2   506  UQ6506     -0.4652
     11  C3M      -15.2180   66.5620   -0.3810 C.3   506  UQ6506      0.2528
     12  O4       -18.0560   63.8170    1.0950 O.2   506  UQ6506     -0.4652
     13  C4M      -19.1270   64.1150    1.9710 C.3   506  UQ6506      0.2528
     14  C7       -14.8640   61.0770    3.8560 C.3   506  UQ6506      0.0548
     15  C8       -14.4950   59.7450    3.2960 C.2   506  UQ6506     -0.0298
     16  C9       -13.2220   59.1780    3.2360 C.2   506  UQ6506     -0.0475
     17  C10      -11.9880   59.9410    3.7720 C.3   506  UQ6506      0.0260
     18  C11      -12.8730   57.7760    2.6580 C.3   506  UQ6506      0.0264
     19  C12      -11.3680   57.4270    2.7450 C.3   506  UQ6506      0.0297
     20  C13      -10.8900   56.0400    2.6370 C.2   506  UQ6506     -0.0342
     21  C14       -9.6060   55.5150    2.4620 C.2   506  UQ6506     -0.0478
     22  C15       -8.3490   56.4070    2.3420 C.3   506  UQ6506      0.0260
     23  C16       -9.2490   54.0180    2.3610 C.3   506  UQ6506      0.0263
     24  C17       -7.8310   53.5340    2.6810 C.3   506  UQ6506      0.0297
     25  C18       -7.7800   52.0860    2.8830 C.2   506  UQ6506     -0.0342
     26  C19       -7.0430   51.1040    3.5620 C.2   506  UQ6506     -0.0478
     27  C20       -7.4810   49.6410    3.3950 C.3   506  UQ6506      0.0260
     28  C21       -5.8080   51.2950    4.4890 C.3   506  UQ6506      0.0263
     29  C22       -4.8360   50.1110    4.7000 C.3   506  UQ6506      0.0297
     30  C23       -5.0140   49.3310    5.9540 C.2   506  UQ6506     -0.0342
     31  C24       -4.2850   48.3080    6.5700 C.2   506  UQ6506     -0.0478
     32  C25       -2.9940   47.7070    6.0080 C.3   506  UQ6506      0.0260
     33  C26       -4.6800   47.6410    7.9100 C.3   506  UQ6506      0.0263
     34  C27       -5.1820   46.2020    7.9160 C.3   506  UQ6506      0.0297
     35  C28       -4.2880   45.3330    8.6880 C.2   506  UQ6506     -0.0342
     36  C29       -4.2230   44.9570   10.0290 C.2   506  UQ6506     -0.0478
     37  C30       -5.2000   45.4450   11.1110 C.3   506  UQ6506      0.0260
     38  C31       -3.1570   44.0030   10.6290 C.3   506  UQ6506      0.0263
     39  C32       -3.7230   42.7950   11.3920 C.3   506  UQ6506      0.0297
     40  C33       -2.6950   41.9040   11.9740 C.2   506  UQ6506     -0.0342
     41  C34       -2.4340   41.4520   13.2740 C.2   506  UQ6506     -0.0478
     42  C35       -3.2500   41.8270   14.5040 C.3   506  UQ6506      0.0260
     43  C36       -1.2900   40.5120   13.6690 C.3   506  UQ6506      0.0260
@<TRIPOS>BOND
     1    11    10    1
     2    10     5    1
     3     4     3    2
     4     5     3    1
     5     5     6    2
     6    12     6    1
     7    12    13    1
     8     3     1    1
     9     6     7    1
    10     1     2    1
    11     1     9    2
    12    22    21    1
    13    23    21    1
    14    23    24    1
    15     7     9    1
    16     7     8    2
    17    21    20    2
    18    20    19    1
    19    18    19    1
    20    18    16    1
    21    24    25    1
    22     9    14    1
    23    25    26    2
    24    16    15    2
    25    16    17    1
    26    15    14    1
    27    27    26    1
    28    26    28    1
    29    28    29    1
    30    29    30    1
    31    30    31    2
    32    32    31    1
    33    31    33    1
    34    33    34    1
    35    34    35    1
    36    35    36    2
    37    36    38    1
    38    36    37    1
    39    38    39    1
    40    39    40    1
    41    40    41    2
    42    41    43    1
    43    41    42    1
