@<TRIPOS>MOLECULE
2ibz_HEM_C_1.pdb
 43 50 0 0 0
SMALL
GASTEIGER

@<TRIPOS>ATOM
      1 FE        -10.4820   38.7690   -1.5110 Fe    401  HEM401      0.0000
      2  CHA      -11.6560   35.6560   -1.9790 C.2   401  HEM401      0.0000
      3  CHB      -13.0700   40.0740   -3.4370 C.2   401  HEM401      0.0000
      4  CHC       -9.2640   41.8720   -1.0620 C.2   401  HEM401      0.0000
      5  CHD       -7.8220   37.4700    0.3350 C.2   401  HEM401      0.0000
      6  NA       -12.0140   38.0510   -2.5080 N.ar  401  HEM401      0.0000
      7  C1A      -12.3300   36.6990   -2.5950 C.ar  401  HEM401      0.0000
      8  C2A      -13.5410   36.5280   -3.3600 C.ar  401  HEM401      0.0000
      9  C3A      -13.9020   37.7420   -3.8200 C.ar  401  HEM401      0.0000
     10  C4A      -12.9960   38.7000   -3.2400 C.ar  401  HEM401      0.0000
     11  CMA      -15.0740   38.0580   -4.7540 C.3   401  HEM401      0.0000
     12  CAA      -14.3050   35.2360   -3.4730 C.3   401  HEM401      0.0000
     13  CBA      -15.4110   35.2000   -2.4050 C.3   401  HEM401      0.0000
     14  CGA      -16.0630   33.8140   -2.2680 C.2   401  HEM401      0.0000
     15  O1A      -15.5660   32.9920   -1.4970 O.co2 401  HEM401      0.0000
     16  O2A      -17.0640   33.5460   -2.9270 O.co2 401  HEM401      0.0000
     17  NB       -11.0580   40.5810   -2.1580 N.2   401  HEM401      0.0000
     18  C1B      -12.1450   40.9560   -2.9210 C.2   401  HEM401      0.0000
     19  C2B      -12.1550   42.3660   -3.1310 C.2   401  HEM401      0.0000
     20  C3B      -11.0730   42.8590   -2.4780 C.2   401  HEM401      0.0000
     21  C4B      -10.4040   41.7490   -1.8460 C.2   401  HEM401      0.0000
     22  CMB      -13.2370   43.1130   -3.9750 C.3   401  HEM401      0.0000
     23  CAB      -10.5490   44.1460   -2.3860 C.3   401  HEM401      0.0000
     24  CBB      -11.3100   45.3260   -2.4580 C.3   401  HEM401      0.0000
     25  NC        -8.8830   39.5060   -0.5300 N.ar  401  HEM401      0.0000
     26  C1C       -8.5500   40.8520   -0.4590 C.ar  401  HEM401      0.0000
     27  C2C       -7.2780   41.0200    0.2010 C.ar  401  HEM401      0.0000
     28  C3C       -6.8870   39.7930    0.6100 C.ar  401  HEM401      0.0000
     29  C4C       -7.8610   38.8490    0.1260 C.ar  401  HEM401      0.0000
     30  CMC       -6.3210   42.2870    0.4430 C.3   401  HEM401      0.0000
     31  CAC       -5.7530   39.6100    1.4190 C.3   401  HEM401      0.0000
     32  CBC       -5.0480   38.4000    1.2260 C.3   401  HEM401      0.0000
     33  ND        -9.9160   36.9450   -0.8420 N.2   401  HEM401      0.0000
     34  C1D       -8.8020   36.5840   -0.1120 C.2   401  HEM401      0.0000
     35  C2D       -8.8250   35.1740    0.1630 C.2   401  HEM401      0.0000
     36  C3D       -9.8760   34.6570   -0.5140 C.2   401  HEM401      0.0000
     37  C4D      -10.5420   35.7640   -1.1610 C.2   401  HEM401      0.0000
     38  CMD       -7.8660   34.5230    1.1720 C.3   401  HEM401      0.0000
     39  CAD      -10.3620   33.1960   -0.4520 C.3   401  HEM401      0.0000
     40  CBD      -11.3900   32.9890    0.6860 C.3   401  HEM401      0.0000
     41  CGD      -12.8080   33.2330    0.2390 C.2   401  HEM401      0.0000
     42  O1D      -13.2530   32.5470   -0.6980 O.co2 401  HEM401      0.0000
     43  O2D      -13.4930   34.1090    0.7990 O.co2 401  HEM401      0.0000
@<TRIPOS>BOND
     1    11     9    1
     2    22    19    1
     3     9     8   ar
     4     9    10   ar
     5    12     8    1
     6    12    13    1
     7     3    10    2
     8     3    18    1
     9     8     7   ar
    10    10     6   ar
    11    19    18    1
    12    19    20    2
    13    16    14   ar
    14    18    17    2
    15     7     6   ar
    16     7     2    2
    17     6     1    1
    18    20    23    1
    19    20    21    1
    20    24    23    1
    21    13    14    1
    22    14    15   ar
    23    17    21    1
    24    17     1    1
    25     2    37    1
    26    21     4    2
    27     1    33    1
    28     1    25    1
    29    37    33    2
    30    37    36    1
    31     4    26    1
    32    33    34    1
    33    42    41   ar
    34    25    26   ar
    35    25    29   ar
    36    36    39    1
    37    36    35    2
    38    26    27   ar
    39    39    40    1
    40    34    35    1
    41    34     5    2
    42    29     5    1
    43    29    28   ar
    44    35    38    1
    45    27    30    1
    46    27    28   ar
    47    41    40    1
    48    41    43   ar
    49    28    31    1
    50    32    31    1
