@<TRIPOS>MOLECULE
2ic0_AZA_A_1.pdb
 11 12 0 0 0
SMALL
GASTEIGER

@<TRIPOS>ATOM
      1  N1        30.3160   27.8410   36.8510 N.2   651  AZA651     -0.2300
      2  C2        29.5990   27.6410   37.9790 C.1   651  AZA651      0.3745
      3  O2        28.4380   28.0550   38.0040 O.2   651  AZA651     -0.1738
      4  N3        30.0760   26.9960   39.0900 N.2   651  AZA651     -0.2491
      5  C4        31.3220   26.5120   39.0830 C.1   651  AZA651      0.1531
      6  C5        32.1660   26.6840   37.9140 C.2   651  AZA651      0.2717
      7  C6        31.5850   27.4110   36.7470 C.1   651  AZA651      0.2477
      8  O6        32.2480   27.6080   35.7080 O.2   651  AZA651     -0.2062
      9  N7        33.3770   26.1060   38.1970 N.2   651  AZA651     -0.1149
     10  N8        33.2520   25.6020   39.5750 N.pl3 651  AZA651     -0.0026
     11  N9        31.9450   25.8520   40.1480 N.2   651  AZA651     -0.0705
@<TRIPOS>BOND
     1     8     7    2
     2     7     1    2
     3     7     6    1
     4     1     2    2
     5     6     9    2
     6     6     5    1
     7     2     3    2
     8     2     4    2
     9     9    10    1
    10     5     4    2
    11     5    11    2
    12    10    11    1
