@<TRIPOS>MOLECULE
2ic3_HBY_A_1.pdb
 22 23 0 0 0
SMALL
GASTEIGER

@<TRIPOS>ATOM
      1  C1       141.3100  -22.9750   69.0910 C.3   562  HBY562      0.1759
      2  C2       140.4670  -23.7940   68.1040 C.1   562  HBY562      0.0354
      3  C3       140.0940  -25.5550   69.6460 C.2   562  HBY562      0.1414
      4  C4       140.8220  -24.9030   70.7090 C.3   562  HBY562      0.1578
      5  C5       141.2810  -25.6960   71.8260 C.2   562  HBY562      0.0375
      6  C6       140.9960  -27.1060   71.8940 C.2   562  HBY562      0.1366
      7  C7       140.2630  -27.7270   70.8200 C.2   562  HBY562      0.0390
      8  C8       139.8110  -26.9590   69.7070 C.2   562  HBY562      0.0336
      9  C9       141.7650  -22.7980   71.5290 C.2   562  HBY562      0.4060
     10  C10      141.3250  -21.9870   73.6370 C.3   562  HBY562      0.1707
     11  C12      139.9200  -22.1700   74.2390 C.3   562  HBY562      0.0474
     12  C11      142.3700  -21.9320   74.7660 C.3   562  HBY562      0.0474
     13  C13      142.7680  -22.9560   68.6440 C.3   562  HBY562      0.0929
     14  C14      144.6530  -24.3900   67.6520 C.3   562  HBY562      0.0693
     15  C15      141.7900  -29.2120   72.9250 C.3   562  HBY562      0.2525
     16  N1       141.0190  -23.4630   70.5190 N.am  562  HBY562     -0.2252
     17  N2       139.6310  -24.7710   68.5220 N.2   562  HBY562     -0.3664
     18  O1       142.6570  -21.8390   71.2670 O.2   562  HBY562     -0.2262
     19  O2       141.6150  -23.0500   72.7090 O.3   562  HBY562     -0.4383
     20  O3       141.4330  -27.8270   72.9850 O.2   562  HBY562     -0.4717
     21  S1       140.5600  -23.4570   66.3540 S.2   562  HBY562      0.0209
     22  S2       143.6840  -24.3650   69.1740 S.3   562  HBY562     -0.1364
@<TRIPOS>BOND
     1    21     2    2
     2    14    22    1
     3     2    17    2
     4     2     1    1
     5    17     3    2
     6    13     1    1
     7    13    22    1
     8     1    16    1
     9     3     8    1
    10     3     4    1
    11     8     7    2
    12    16     4    1
    13    16     9   am
    14     4     5    1
    15     7     6    1
    16    18     9    2
    17     9    19    1
    18     5     6    2
    19     6    20    1
    20    19    10    1
    21    15    20    1
    22    10    11    1
    23    10    12    1
