@<TRIPOS>MOLECULE
2ic5_GDP_B_1.pdb
 28 30 0 0 0
SMALL
GASTEIGER

@<TRIPOS>ATOM
      1  PB       -14.5780   -5.4950  -14.0960 P.3   502  GDP502      0.5373
      2  O1B      -15.8810   -6.1550  -14.3380 O.2   502  GDP502     -0.2221
      3  O2B      -13.5720   -6.3520  -13.4120 O.3   502  GDP502     -0.1143
      4  O3B      -14.7150   -4.1610  -13.3270 O.3   502  GDP502     -0.1143
      5  O3A      -13.8590   -5.1320  -15.4750 O.3   502  GDP502     -0.2261
      6  PA       -14.5660   -4.8880  -16.8900 P.3   502  GDP502      0.2231
      7  O1A      -14.9850   -6.1780  -17.5460 O.2   502  GDP502     -0.5169
      8  O2A      -15.6450   -3.8730  -16.7480 O.3   502  GDP502     -0.4370
      9  O5'      -13.3650   -4.2590  -17.7020 O.3   502  GDP502     -0.3111
     10  C5'      -12.7490   -3.0790  -17.1830 C.3   502  GDP502      0.1813
     11  C4'      -12.0010   -2.3190  -18.2730 C.3   502  GDP502      0.1799
     12  O4'      -10.9500   -3.1360  -18.7920 O.3   502  GDP502     -0.3326
     13  C3'      -12.8520   -1.9640  -19.4820 C.3   502  GDP502      0.2158
     14  O3'      -12.3370   -0.7370  -20.0030 O.3   502  GDP502     -0.2175
     15  C2'      -12.5940   -3.0760  -20.4600 C.3   502  GDP502      0.2310
     16  O2'      -12.7320   -2.7470  -21.8530 O.3   502  GDP502     -0.2158
     17  C1'      -11.1390   -3.3660  -20.1770 C.3   502  GDP502      0.2293
     18  N9       -10.8190   -4.7720  -20.5250 N.pl3 502  GDP502     -0.2354
     19  C8       -11.4600   -5.8710  -20.0840 C.3   502  GDP502      0.2246
     20  N7       -10.8700   -6.9890  -20.5740 N.2   502  GDP502     -0.2322
     21  C5        -9.8320   -6.6130  -21.3550 C.2   502  GDP502      0.2182
     22  C6        -8.7780   -7.2770  -22.1470 C.1   502  GDP502      0.2372
     23  O6        -8.7000   -8.5320  -22.2880 O.2   502  GDP502     -0.2069
     24  N1        -7.9060   -6.4770  -22.7350 N.2   502  GDP502     -0.2485
     25  C2        -7.9330   -5.1440  -22.6520 C.1   502  GDP502      0.2531
     26  N2        -6.9970   -4.4210  -23.2970 N.pl3 502  GDP502     -0.0226
     27  N3        -8.8550   -4.4560  -21.9490 N.2   502  GDP502     -0.3074
     28  C4        -9.7880   -5.1350  -21.2690 C.2   502  GDP502      0.2300
@<TRIPOS>BOND
     1    26    25    1
     2    24    25    2
     3    24    22    2
     4    25    27    2
     5    23    22    2
     6    22    21    1
     7    27    28    2
     8    16    15    1
     9    21    28    1
    10    21    20    2
    11    28    18    1
    12    20    19    1
    13    18    17    1
    14    18    19    1
    15    15    17    1
    16    15    13    1
    17    17    12    1
    18    14    13    1
    19    13    11    1
    20    12    11    1
    21    11    10    1
    22     9    10    1
    23     9     6    1
    24     7     6    2
    25     6     8    1
    26     6     5    1
    27     5     1    1
    28     2     1    2
    29     1     3    1
    30     1     4    1
