@<TRIPOS>MOLECULE
2ic5_GNP_A_1.pdb
 32 34 0 0 0
SMALL
GASTEIGER

@<TRIPOS>ATOM
      1  PG       -15.6510    4.8890  -12.6910 P.3   501  GNP501      0.4884
      2  O1G      -16.3640    5.1450  -14.0100 O.2   501  GNP501     -0.2331
      3  O2G      -14.2880    5.6260  -12.5880 O.3   501  GNP501     -0.1240
      4  O3G      -15.2620    3.4270  -12.7720 O.3   501  GNP501     -0.1240
      5  N3B      -16.7110    4.8940  -11.4100 N.3   501  GNP501     -0.0163
      6  PB       -17.6890    6.1410  -11.0160 P.3   501  GNP501      0.4669
      7  O1B      -16.9720    7.1000  -10.1450 O.3   501  GNP501     -0.1253
      8  O2B      -18.1890    6.6550  -12.2810 O.2   501  GNP501     -0.2351
      9  O3A      -18.8620    5.6470  -10.1480 O.3   501  GNP501     -0.2360
     10  PA       -20.3520    5.3530  -10.5340 P.3   501  GNP501      0.2220
     11  O1A      -21.1390    6.5810  -10.8430 O.3   501  GNP501     -0.4370
     12  O2A      -20.4200    4.3220  -11.5940 O.2   501  GNP501     -0.5170
     13  O5'      -21.0100    4.7610   -9.2250 O.3   501  GNP501     -0.3111
     14  C5'      -20.3790    3.6330   -8.5880 C.3   501  GNP501      0.1813
     15  C4'      -21.3160    2.9050   -7.6620 C.3   501  GNP501      0.1799
     16  O4'      -21.7180    3.7960   -6.5900 O.3   501  GNP501     -0.3326
     17  C3'      -22.6200    2.4020   -8.2640 C.3   501  GNP501      0.2158
     18  O3'      -23.0180    1.2070   -7.6150 O.3   501  GNP501     -0.2175
     19  C2'      -23.5810    3.5330   -7.9240 C.3   501  GNP501      0.2310
     20  O2'      -24.9100    3.0990   -7.8530 O.3   501  GNP501     -0.2158
     21  C1'      -23.1120    3.9050   -6.5270 C.3   501  GNP501      0.2293
     22  N9       -23.4430    5.2760   -6.1220 N.pl3 501  GNP501     -0.2354
     23  C8       -23.1750    6.4150   -6.8180 C.3   501  GNP501      0.2246
     24  N7       -23.5830    7.5120   -6.2210 N.2   501  GNP501     -0.2322
     25  C5       -24.1840    7.0510   -5.0520 C.2   501  GNP501      0.2182
     26  C6       -24.8180    7.7620   -4.0030 C.1   501  GNP501      0.2372
     27  O6       -24.9760    8.9810   -3.9100 O.2   501  GNP501     -0.2069
     28  N1       -25.2970    6.9260   -2.9980 N.2   501  GNP501     -0.2485
     29  C2       -25.1810    5.5520   -3.0090 C.1   501  GNP501      0.2531
     30  N2       -25.7220    4.8900   -1.9540 N.pl3 501  GNP501     -0.0226
     31  N3       -24.5910    4.8740   -3.9940 N.2   501  GNP501     -0.3074
     32  C4       -24.1190    5.6740   -4.9800 C.2   501  GNP501      0.2300
@<TRIPOS>BOND
     1     2     1    2
     2     4     1    1
     3     1     3    1
     4     1     5    1
     5     8     6    2
     6    12    10    2
     7     5     6    1
     8     6     9    1
     9     6     7    1
    10    11    10    1
    11    10     9    1
    12    10    13    1
    13    13    14    1
    14    14    15    1
    15    17    19    1
    16    17    15    1
    17    17    18    1
    18    19    20    1
    19    19    21    1
    20    15    16    1
    21    23    24    1
    22    23    22    1
    23    16    21    1
    24    21    22    1
    25    24    25    2
    26    22    32    1
    27    25    32    1
    28    25    26    1
    29    32    31    2
    30    26    27    2
    31    26    28    2
    32    31    29    2
    33    29    28    2
    34    29    30    1
