@<TRIPOS>MOLECULE
2ica_2IC_A_1.pdb
 37 41 0 0 0
SMALL
GASTEIGER

@<TRIPOS>ATOM
      1  C2        -5.9170   -0.3460   28.3750 C.ar    1  2IC1        0.0598
      2  C3        -5.3870   -0.1250   29.6500 C.ar    1  2IC1        0.0229
      3  C8        -7.8190    1.1030   28.8260 C.ar    1  2IC1        0.0639
      4  C9        -7.1200    0.2360   27.9440 C.ar    1  2IC1        0.0268
      5  C12      -10.1350    1.7020   29.1900 C.2     1  2IC1        0.3172
      6  C14      -10.7030    2.5370   27.0990 C.3     1  2IC1        0.1507
      7  C15      -10.9490    3.9460   26.5410 C.3     1  2IC1        0.1002
      8  N18      -11.7360    3.7710   25.2940 N.3     1  2IC1       -0.2664
      9  C19      -11.4780    2.4260   24.8100 C.3     1  2IC1        0.0789
     10  C22      -11.3600    1.6130   26.0770 C.3     1  2IC1        0.0648
     11  C24      -10.8010    0.2210   25.9750 C.ar    1  2IC1       -0.0190
     12  C27      -10.8020   -2.0610   26.8730 C.ar    1  2IC1        0.0100
     13  C30       -9.1710   -1.4240   25.1750 C.ar    1  2IC1        0.0100
     14  C32       -9.7220   -0.1330   25.1160 C.ar    1  2IC1       -0.0035
     15  C34       -9.1980   -3.7090   26.0550 C.1     1  2IC1        0.1004
     16 CL1        -5.0550   -1.4000   27.3100 Cl      1  2IC1       -0.0822
     17  C5        -6.1080    0.7090   30.5060 C.ar    1  2IC1        0.0598
     18  C6        -7.2970    1.3340   30.1120 C.ar    1  2IC1        0.0268
     19  N11       -8.9920    1.6820   28.4480 N.am    1  2IC1       -0.1909
     20  N13      -11.1120    2.2600   28.4660 N.am    1  2IC1       -0.2552
     21  C25      -11.3580   -0.7730   26.8130 C.ar    1  2IC1       -0.0035
     22  C29       -9.7150   -2.3790   26.0470 C.ar    1  2IC1        0.0684
     23  N35       -8.8040   -4.7980   26.0330 N.1     1  2IC1       -0.1908
     24  C36      -11.4910    4.6370   24.1370 C.3     1  2IC1        0.1057
     25  C39      -12.1830    5.9530   24.2900 C.ar    1  2IC1        0.0237
     26  S40      -11.3500    7.2220   25.1550 S.2     1  2IC1       -0.0892
     27  C41      -12.7530    8.2560   25.0140 C.ar    1  2IC1        0.0417
     28  C43      -13.6670    7.7260   24.1900 C.ar    1  2IC1        0.0864
     29  C44      -13.3550    6.3550   23.7660 C.ar    1  2IC1        0.0106
     30  C46      -14.8570    8.4870   23.7440 C.2     1  2IC1        0.3883
     31  O47      -15.6030    7.9730   22.8830 O.co2   1  2IC1       -0.2405
     32  O48      -15.0660    9.6200   24.2290 O.co2   1  2IC1       -0.2405
     33  C50       -9.2020    2.2330   27.2230 C.2     1  2IC1        0.2541
     34  O51       -8.3850    2.4670   26.3330 O.2     1  2IC1       -0.2723
     35  C52      -12.4870    2.4400   28.9310 C.3     1  2IC1        0.1169
     36  O56      -10.2820    1.2740   30.3330 O.2     1  2IC1       -0.2516
     37 CL57       -5.5300    0.9450   32.1050 Cl      1  2IC1       -0.0822
@<TRIPOS>BOND
     1    31    30   ar
     2    30    28    1
     3    30    32   ar
     4    29    28   ar
     5    29    25   ar
     6    24    25    1
     7    24     8    1
     8    28    27   ar
     9    25    26   ar
    10     9     8    1
    11     9    10    1
    12    27    26   ar
    13    14    13   ar
    14    14    11   ar
    15    13    22   ar
    16     8     7    1
    17    11    10    1
    18    11    21   ar
    19    23    15    3
    20    22    15    1
    21    22    12   ar
    22    10     6    1
    23    34    33    2
    24     7     6    1
    25    21    12   ar
    26     6    33    1
    27     6    20    1
    28    33    19   am
    29    16     1    1
    30     4     1   ar
    31     4     3   ar
    32     1     2   ar
    33    19     3    1
    34    19     5   am
    35    20    35    1
    36    20     5   am
    37     3    18   ar
    38     5    36    2
    39     2    17   ar
    40    18    17   ar
    41    17    37    1
