@<TRIPOS>MOLECULE
2ick_DMA_A_1.pdb
 14 13 0 0 0
SMALL
GASTEIGER

@<TRIPOS>ATOM
      1  C1        15.1660    7.2060   38.0320 C.3   301  DMA301      0.1535
      2  O1        14.4240    8.2790   38.5630 O.3   301  DMA301     -0.3135
      3  C2        16.5960    7.3770   38.4970 C.3   301  DMA301      0.0545
      4  C3        17.0880    6.0060   38.8540 C.2   301  DMA301     -0.0414
      5  C4        16.4920    4.9440   38.3330 C.2   301  DMA301     -0.0090
      6  C5        18.2520    5.8670   39.8030 C.3   301  DMA301      0.0264
      7  PA        12.8270    8.2560   38.4560 P.3   301  DMA301      0.2230
      8  O1A       12.3780    7.9930   37.0220 O.2   301  DMA301     -0.5169
      9  O2A       12.3640    7.4520   39.6460 O.3   301  DMA301     -0.4370
     10  O3A       12.4090    9.7700   38.7490 O.3   301  DMA301     -0.2261
     11  PB        12.9620   10.9170   37.7880 P.3   301  DMA301      0.5373
     12  O1B       11.6810   11.5640   37.3240 O.3   301  DMA301     -0.1143
     13  O2B       13.8500   11.7620   38.7020 O.3   301  DMA301     -0.1143
     14  O3B       13.6740   10.1820   36.6720 O.2   301  DMA301     -0.2221
@<TRIPOS>BOND
     1    14    11    2
     2     8     7    2
     3    12    11    1
     4    11    13    1
     5    11    10    1
     6     1     3    1
     7     1     2    1
     8     5     4    2
     9     7     2    1
    10     7    10    1
    11     7     9    1
    12     3     4    1
    13     4     6    1
