@<TRIPOS>MOLECULE
2icq_AZA_A_1.pdb
 11 12 0 0 0
SMALL
GASTEIGER

@<TRIPOS>ATOM
      1  N1        30.0960   27.7710   36.6180 N.2   302  AZA302     -0.2300
      2  C2        29.4320   27.5010   37.7600 C.1   302  AZA302      0.3745
      3  O2        28.2770   27.9570   37.8390 O.2   302  AZA302     -0.1738
      4  N3        29.9690   26.7890   38.8050 N.2   302  AZA302     -0.2491
      5  C4        31.2070   26.2660   38.7000 C.1   302  AZA302      0.1531
      6  C5        31.9770   26.5180   37.4710 C.2   302  AZA302      0.2717
      7  C6        31.3400   27.3210   36.4010 C.1   302  AZA302      0.2477
      8  O6        31.9730   27.5670   35.3560 O.2   302  AZA302     -0.2062
      9  N7        33.1660   25.9110   37.5860 N.2   302  AZA302     -0.1149
     10  N8        33.2080   25.3110   38.8420 N.pl3 302  AZA302     -0.0026
     11  N9        32.0020   25.5230   39.5040 N.2   302  AZA302     -0.0705
@<TRIPOS>BOND
     1     8     7    2
     2     7     1    2
     3     7     6    1
     4     1     2    2
     5     6     9    2
     6     6     5    1
     7     9    10    1
     8     2     3    2
     9     2     4    2
    10     5     4    2
    11     5    11    2
    12    10    11    1
