@<TRIPOS>MOLECULE
2ics_ADE_A_1.pdb
 10 11 0 0 0
SMALL
GASTEIGER

@<TRIPOS>ATOM
      1  N9        50.4180    9.8200   20.1240 N.2   1114  ADE1114    -0.1914
      2  C8        50.4890   11.1690   20.3340 C.3   1114  ADE1114     0.2618
      3  N7        49.4920   11.7730   19.7480 N.2   1114  ADE1114    -0.2267
      4  C5        48.7150   10.8550   19.1240 C.2   1114  ADE1114     0.2303
      5  C6        47.5240   10.8990   18.3410 C.2   1114  ADE1114     0.4393
      6  N6        46.9000   12.1060   18.0740 N.pl3 1114  ADE1114     0.2185
      7  N1        47.0160    9.7370   17.8650 N.2   1114  ADE1114    -0.0265
      8  C2        47.6030    8.5530   18.1110 C.3   1114  ADE1114     0.4008
      9  N3        48.7220    8.4690   18.8400 N.2   1114  ADE1114    -0.1640
     10  C4        49.3040    9.5770   19.3580 C.1   1114  ADE1114     0.0579
@<TRIPOS>BOND
     1     7     8    1
     2     7     5    2
     3     6     5    1
     4     8     9    1
     5     5     4    1
     6     9    10    2
     7     4    10    1
     8     4     3    2
     9    10     1    2
    10     3     2    1
    11     1     2    1
