@<TRIPOS>MOLECULE
2icv_HEM_A_1.pdb
 43 50 0 0 0
SMALL
GASTEIGER

@<TRIPOS>ATOM
      1 FE         23.8180   12.2780   54.2140 Fe    296  HEM296      0.0000
      2  CHA       26.5540   12.4730   52.2780 C.2   296  HEM296      0.0000
      3  CHB       25.8290   12.2200   57.0190 C.2   296  HEM296      0.0000
      4  CHC       21.0430   12.1300   56.1830 C.2   296  HEM296      0.0000
      5  CHD       21.8010   12.4750   51.4980 C.2   296  HEM296      0.0000
      6  NA        25.8030   12.3420   54.5810 N.2   296  HEM296      0.0000
      7  C1A       26.7730   12.6250   53.6330 C.2   296  HEM296      0.0000
      8  C2A       28.0930   12.3990   54.2210 C.2   296  HEM296      0.0000
      9  C3A       27.8900   12.3210   55.5530 C.2   296  HEM296      0.0000
     10  C4A       26.4570   12.4330   55.8020 C.2   296  HEM296      0.0000
     11  CMA       28.8480   12.8610   56.6510 C.3   296  HEM296      0.0000
     12  CAA       29.3640   12.8450   53.4890 C.2   296  HEM296      0.0000
     13  CBA       29.5350   14.2880   53.0380 C.2   296  HEM296      0.0000
     14  CGA       30.8900   14.6220   52.3830 C.2   296  HEM296      0.0000
     15  O1A       30.8590   15.3690   51.3450 O.co2 296  HEM296      0.0000
     16  O2A       31.9350   14.2640   52.9040 O.co2 296  HEM296      0.0000
     17  NB        23.5220   12.2360   56.1950 N.ar  296  HEM296      0.0000
     18  C1B       24.4760   12.1420   57.2080 C.ar  296  HEM296      0.0000
     19  C2B       23.8020   12.1160   58.4910 C.ar  296  HEM296      0.0000
     20  C3B       22.4810   12.1080   58.2650 C.ar  296  HEM296      0.0000
     21  C4B       22.2940   12.0190   56.7580 C.ar  296  HEM296      0.0000
     22  CMB       24.5580   12.0880   59.8180 C.3   296  HEM296      0.0000
     23  CAB       21.2880   11.9030   59.1790 C.3   296  HEM296      0.0000
     24  CBB       21.4810   11.1840   60.5240 C.3   296  HEM296      0.0000
     25  NC        21.8290   12.3450   53.8830 N.2   296  HEM296      0.0000
     26  C1C       20.8060   12.3100   54.8270 C.2   296  HEM296      0.0000
     27  C2C       19.4960   12.3090   54.1960 C.2   296  HEM296      0.0000
     28  C3C       19.7080   12.3880   52.8730 C.2   296  HEM296      0.0000
     29  C4C       21.1460   12.6080   52.7010 C.2   296  HEM296      0.0000
     30  CMC       18.1710   12.2600   54.9730 C.3   296  HEM296      0.0000
     31  CAC       18.8170   12.4570   51.6230 C.3   296  HEM296      0.0000
     32  CBC       17.3270   12.2900   51.7840 C.3   296  HEM296      0.0000
     33  ND        24.1070   12.4540   52.2740 N.ar  296  HEM296      0.0000
     34  C1D       23.1460   12.5220   51.2690 C.ar  296  HEM296      0.0000
     35  C2D       23.7990   12.5630   49.9920 C.ar  296  HEM296      0.0000
     36  C3D       25.1220   12.5630   50.2010 C.ar  296  HEM296      0.0000
     37  C4D       25.3240   12.4620   51.6440 C.ar  296  HEM296      0.0000
     38  CMD       23.1020   12.3930   48.6340 C.3   296  HEM296      0.0000
     39  CAD       26.2250   12.4380   49.1340 C.3   296  HEM296      0.0000
     40  CBD       26.6220   13.8710   48.6750 C.3   296  HEM296      0.0000
     41  CGD       27.8670   13.8710   47.8070 C.2   296  HEM296      0.0000
     42  O1D       28.3910   12.8050   47.4270 O.co2 296  HEM296      0.0000
     43  O2D       27.9760   14.9400   47.1670 O.co2 296  HEM296      0.0000
@<TRIPOS>BOND
     1    43    41   ar
     2    42    41   ar
     3    41    40    1
     4    38    35    1
     5    40    39    1
     6    39    36    1
     7    35    36   ar
     8    35    34   ar
     9    36    37   ar
    10    34     5    2
    11    34    33   ar
    12    15    14   ar
    13     5    29    1
    14    31    32    1
    15    31    28    1
    16    37    33   ar
    17    37     2    2
    18    33     1    1
    19     2     7    1
    20    14    16   ar
    21    14    13    1
    22    29    28    1
    23    29    25    2
    24    28    27    2
    25    13    12    2
    26    12     8    1
    27     7     8    1
    28     7     6    2
    29    25     1    1
    30    25    26    1
    31    27    26    1
    32    27    30    1
    33     1     6    1
    34     1    17    1
    35     8     9    2
    36     6    10    1
    37    26     4    2
    38     9    10    1
    39     9    11    1
    40    10     3    2
    41     4    21    1
    42    17    21   ar
    43    17    18   ar
    44    21    20   ar
    45     3    18    1
    46    18    19   ar
    47    20    19   ar
    48    20    23    1
    49    19    22    1
    50    23    24    1
