@<TRIPOS>MOLECULE
2icx_UTP_A_1.pdb
 29 30 0 0 0
SMALL
GASTEIGER

@<TRIPOS>ATOM
      1  PA       -12.0950    0.5750  -33.0550 P.3   901  UTP901      0.2189
      2  O1A      -11.9410    0.2410  -34.5250 O.2   901  UTP901     -0.5170
      3  O2A      -13.3230    1.3160  -32.5590 O.3   901  UTP901     -0.4371
      4  O3A      -10.7960    1.3120  -32.4650 O.3   901  UTP901     -0.2700
      5  O5'      -11.9650   -0.7620  -32.1800 O.3   901  UTP901     -0.3112
      6  PB        -9.5460    1.8740  -33.3070 P.3   901  UTP901      0.2277
      7  O1B       -8.8440    0.6980  -33.9660 O.2   901  UTP901     -0.5168
      8  O2B       -8.8600    2.7110  -32.2540 O.3   901  UTP901     -0.4368
      9  O3B      -10.3570    2.7910  -34.3800 O.3   901  UTP901     -0.2258
     10  PG        -9.7270    3.6950  -35.5720 P.3   901  UTP901      0.5373
     11  O1G      -10.8920    3.8130  -36.5380 O.2   901  UTP901     -0.2221
     12  O2G       -8.5680    2.8810  -36.1220 O.3   901  UTP901     -0.1143
     13  O3G       -9.3400    5.0030  -34.9080 O.3   901  UTP901     -0.1143
     14  C5'      -11.9690   -0.7050  -30.7530 C.3   901  UTP901      0.1813
     15  C4'      -11.1340   -1.8800  -30.2340 C.3   901  UTP901      0.1799
     16  O4'      -11.5530   -3.0350  -30.9530 O.3   901  UTP901     -0.3322
     17  C1'      -10.4040   -3.6450  -31.5400 C.3   901  UTP901      0.2361
     18  C2'       -9.3820   -2.5420  -31.7880 C.3   901  UTP901      0.2316
     19  O2'       -8.0060   -2.9830  -31.8770 O.3   901  UTP901     -0.2157
     20  C3'       -9.6430   -1.6830  -30.5410 C.3   901  UTP901      0.2158
     21  O3'       -8.8340   -2.0960  -29.4110 O.3   901  UTP901     -0.2175
     22  N1       -10.7990   -4.3910  -32.7300 N.am  901  UTP901     -0.1996
     23  C6       -11.4460   -4.0520  -33.7360 C.3   901  UTP901      0.1249
     24  C2       -10.4950   -5.7100  -32.7990 C.1   901  UTP901      0.2802
     25  O2        -9.7500   -6.1870  -31.9500 O.2   901  UTP901     -0.1922
     26  N3       -10.9970   -6.5120  -33.8180 N.2   901  UTP901     -0.2497
     27  C4       -11.8340   -6.0690  -34.7820 C.1   901  UTP901      0.1941
     28  O4       -12.2150   -6.7780  -35.6830 O.2   901  UTP901     -0.2133
     29  C5       -12.1350   -4.8310  -34.5420 C.3   901  UTP901      0.1579
@<TRIPOS>BOND
     1    11    10    2
     2    12    10    1
     3    28    27    2
     4    10    13    1
     5    10     9    1
     6    27    29    1
     7    27    26    2
     8    29    23    1
     9     2     1    2
    10     9     6    1
    11     7     6    2
    12    26    24    2
    13    23    22    1
    14     6     4    1
    15     6     8    1
    16     1     3    1
    17     1     4    1
    18     1     5    1
    19    24    22   am
    20    24    25    2
    21    22    17    1
    22     5    14    1
    23    19    18    1
    24    18    17    1
    25    18    20    1
    26    17    16    1
    27    16    15    1
    28    14    15    1
    29    20    15    1
    30    20    21    1
