@<TRIPOS>MOLECULE
2icy_UPG_A_1.pdb
 36 38 0 0 0
SMALL
GASTEIGER

@<TRIPOS>ATOM
      1  N1        11.1710  -21.9850   32.0300 N.am  901  UPG901     -0.1996
      2  C2        10.9040  -23.3300   32.0430 C.1   901  UPG901      0.2802
      3  N3        11.3700  -23.9810   33.1710 N.2   901  UPG901     -0.2497
      4  C4        12.0810  -23.4000   34.2430 C.1   901  UPG901      0.1941
      5  C5        12.6410  -22.0980   33.9620 C.3   901  UPG901      0.1579
      6  C6        12.0590  -21.3390   32.9850 C.3   901  UPG901      0.1249
      7  O2        10.2490  -23.9520   31.1650 O.2   901  UPG901     -0.1922
      8  O4        12.5200  -24.1490   35.1160 O.2   901  UPG901     -0.2133
      9  C1C       10.6110  -21.1700   30.9150 C.3   901  UPG901      0.2361
     10  C2C        9.8310  -20.0320   31.3790 C.3   901  UPG901      0.2316
     11  O2C        8.4520  -20.4660   31.4660 O.3   901  UPG901     -0.2157
     12  C3C       10.0850  -18.9780   30.2690 C.3   901  UPG901      0.2158
     13  C4C       11.3660  -19.3780   29.5780 C.3   901  UPG901      0.1799
     14  O4C       11.7600  -20.6500   30.2540 O.3   901  UPG901     -0.3322
     15  O3C        8.9790  -19.0930   29.2920 O.3   901  UPG901     -0.2175
     16  C5C       12.5730  -18.3900   29.6800 C.3   901  UPG901      0.1813
     17  O5C       12.7020  -18.0190   31.1060 O.3   901  UPG901     -0.3112
     18  PA        12.8350  -16.6130   31.5580 P.3   901  UPG901      0.2189
     19  O1A       11.8350  -15.7770   30.9560 O.2   901  UPG901     -0.5170
     20  O2A       13.0330  -16.5040   33.0330 O.3   901  UPG901     -0.4371
     21  O3A       14.2200  -16.0620   30.8880 O.3   901  UPG901     -0.2703
     22  PB        15.7660  -16.3300   31.3560 P.3   901  UPG901      0.2208
     23  O1B       15.9560  -17.7700   31.6300 O.2   901  UPG901     -0.5170
     24  O2B       16.1120  -15.3240   32.3120 O.3   901  UPG901     -0.4371
     25  O3B       16.4850  -16.1090   29.8140 O.3   901  UPG901     -0.2857
     26  C1'       16.2990  -16.8140   28.7130 C.3   901  UPG901      0.2742
     27  C2'       17.7100  -17.2400   28.2360 C.3   901  UPG901      0.2409
     28  C3'       18.5640  -16.0160   27.8850 C.3   901  UPG901      0.2198
     29  C4'       17.7930  -15.2260   26.8050 C.3   901  UPG901      0.2144
     30  C5'       16.3810  -14.7890   27.3360 C.3   901  UPG901      0.1835
     31  C6'       15.5850  -14.2730   26.1160 C.3   901  UPG901      0.2142
     32  O2'       18.3530  -17.9960   29.2940 O.3   901  UPG901     -0.2149
     33  O3'       19.8010  -16.5650   27.3170 O.3   901  UPG901     -0.2174
     34  O4'       18.5420  -14.0070   26.6460 O.3   901  UPG901     -0.2176
     35  O5'       15.6500  -16.0340   27.6690 O.3   901  UPG901     -0.3254
     36  O6'       14.3090  -13.7240   26.6320 O.3   901  UPG901     -0.2176
@<TRIPOS>BOND
     1    31    36    1
     2    31    30    1
     3    34    29    1
     4    29    30    1
     5    29    28    1
     6    33    28    1
     7    30    35    1
     8    35    26    1
     9    28    27    1
    10    27    26    1
    11    27    32    1
    12    26    25    1
    13    15    12    1
    14    13    16    1
    15    13    14    1
    16    13    12    1
    17    16    17    1
    18    25    22    1
    19    14     9    1
    20    12    10    1
    21    21    22    1
    22    21    18    1
    23     9    10    1
    24     9     1    1
    25    19    18    2
    26    17    18    1
    27     7     2    2
    28    22    23    2
    29    22    24    1
    30    10    11    1
    31    18    20    1
    32     1     2   am
    33     1     6    1
    34     2     3    2
    35     6     5    1
    36     3     4    2
    37     5     4    1
    38     4     8    2
