@<TRIPOS>MOLECULE
2id2_NAP_A_1.pdb
 48 52 0 0 0
SMALL
GASTEIGER

@<TRIPOS>ATOM
      1  PA       -24.4380  -53.0800   19.5590 P.3   3001  NAP3001     0.2189
      2  O1A      -23.2060  -53.7180   19.3070 O.2   3001  NAP3001    -0.5170
      3  O2A      -24.5840  -51.5850   19.3960 O.3   3001  NAP3001    -0.4371
      4  O5B      -25.5550  -53.7000   18.5750 O.3   3001  NAP3001    -0.3112
      5  C5B      -26.9220  -53.8930   19.0390 C.3   3001  NAP3001     0.1813
      6  C4B      -27.6580  -54.5460   17.8000 C.3   3001  NAP3001     0.1820
      7  O4B      -27.3870  -53.6560   16.6260 O.3   3001  NAP3001    -0.3136
      8  C3B      -27.1040  -55.9170   17.3340 C.3   3001  NAP3001     0.2157
      9  O3B      -28.2550  -56.6500   16.9250 O.3   3001  NAP3001    -0.2175
     10  C2B      -26.1840  -55.5830   16.1780 C.3   3001  NAP3001     0.2314
     11  O2B      -25.9300  -56.6450   15.2700 O.3   3001  NAP3001    -0.2630
     12  C1B      -26.9130  -54.3830   15.5010 C.3   3001  NAP3001     0.3158
     13  N9A      -25.9830  -53.5600   14.7330 N.pl3 3001  NAP3001    -0.1439
     14  C8A      -24.6060  -53.4070   14.8010 C.3   3001  NAP3001     0.3377
     15  N7A      -24.1060  -52.5440   13.9290 N.2   3001  NAP3001    -0.2095
     16  C5A      -25.2330  -52.1030   13.2450 C.2   3001  NAP3001     0.2526
     17  C6A      -25.3460  -51.1680   12.1940 C.2   3001  NAP3001     0.4393
     18  N6A      -24.3460  -50.4790   11.6070 N.pl3 3001  NAP3001     0.2180
     19  N1A      -26.6390  -50.9210   11.6970 N.2   3001  NAP3001     0.0021
     20  C2A      -27.7610  -51.5800   12.2290 C.3   3001  NAP3001     0.5254
     21  N3A      -27.6780  -52.5020   13.2630 N.2   3001  NAP3001    -0.0055
     22  C4A      -26.3960  -52.7320   13.7410 C.2   3001  NAP3001     0.3518
     23  O3       -24.9140  -53.3930   21.0330 O.3   3001  NAP3001    -0.2703
     24  PN       -24.5770  -54.5660   22.0330 P.3   3001  NAP3001     0.2189
     25  O1N      -23.1430  -54.5350   22.3810 O.3   3001  NAP3001    -0.4371
     26  O2N      -25.0870  -55.8010   21.3820 O.2   3001  NAP3001    -0.5170
     27  O5D      -25.4310  -54.1810   23.3200 O.3   3001  NAP3001    -0.3112
     28  C5D      -24.7890  -53.6810   24.5390 C.3   3001  NAP3001     0.1813
     29  C4D      -24.8970  -52.1760   24.5140 C.3   3001  NAP3001     0.1799
     30  O4D      -26.2830  -51.7980   24.2910 O.3   3001  NAP3001    -0.3327
     31  C3D      -24.4930  -51.4770   25.8420 C.3   3001  NAP3001     0.2158
     32  O3D      -23.7500  -50.2820   25.5770 O.3   3001  NAP3001    -0.2175
     33  C2D      -25.8310  -51.2210   26.5170 C.3   3001  NAP3001     0.2309
     34  O2D      -25.8010  -50.1670   27.4630 O.3   3001  NAP3001    -0.2158
     35  C1D      -26.7300  -50.9200   25.3770 C.3   3001  NAP3001     0.2263
     36  N1N      -28.1710  -51.2400   25.5950 N.pl3 3001  NAP3001    -0.2787
     37  C2N      -29.0790  -50.2710   26.0930 C.3   3001  NAP3001     0.1244
     38  C3N      -30.4100  -50.6370   26.2860 C.2   3001  NAP3001     0.0544
     39  C7N      -31.3850  -49.5980   26.8340 C.2   3001  NAP3001     0.2818
     40  O7N      -32.5290  -49.9620   26.9910 O.2   3001  NAP3001    -0.2670
     41  N7N      -30.9920  -48.3850   27.1190 N.am  3001  NAP3001    -0.0839
     42  C4N      -30.8850  -51.9920   25.9820 C.2   3001  NAP3001     0.0033
     43  C5N      -29.9420  -52.9330   25.4810 C.2   3001  NAP3001     0.0157
     44  C6N      -28.5730  -52.5860   25.2780 C.2   3001  NAP3001     0.0633
     45  P2B      -24.5590  -57.5400   15.3350 P.3   3001  NAP3001     0.5328
     46  O1X      -24.6700  -58.4230   16.5830 O.3   3001  NAP3001    -0.1145
     47  O2X      -24.6550  -58.2920   14.0560 O.2   3001  NAP3001    -0.2224
     48  O3X      -23.4050  -56.5680   15.4480 O.3   3001  NAP3001    -0.1145
@<TRIPOS>BOND
     1    18    17    1
     2    19    17    2
     3    19    20    1
     4    17    16    1
     5    20    21    1
     6    16    22    1
     7    16    15    2
     8    21    22    2
     9    22    13    1
    10    15    14    1
    11    47    45    2
    12    13    14    1
    13    13    12    1
    14    11    45    1
    15    11    10    1
    16    45    48    1
    17    45    46    1
    18    12    10    1
    19    12     7    1
    20    10     8    1
    21     7     6    1
    22     9     8    1
    23     8     6    1
    24     6     5    1
    25     4     5    1
    26     4     1    1
    27     2     1    2
    28     3     1    1
    29     1    23    1
    30    23    24    1
    31    26    24    2
    32    24    25    1
    33    24    27    1
    34    27    28    1
    35    30    29    1
    36    30    35    1
    37    29    28    1
    38    29    31    1
    39    44    43    2
    40    44    36    1
    41    35    36    1
    42    35    33    1
    43    43    42    1
    44    32    31    1
    45    36    37    1
    46    31    33    1
    47    42    38    2
    48    37    38    1
    49    38    39    1
    50    33    34    1
    51    39    40    2
    52    39    41   am
