@<TRIPOS>MOLECULE
2idk_C2F_A_1.pdb
 33 35 0 0 0
SMALL
GASTEIGER

@<TRIPOS>ATOM
      1  N1         7.4540  -23.7380   20.3090 N.2   1410  C2F1410    -0.2726
      2  C2         6.9230  -23.2360   21.4200 C.1   1410  C2F1410     0.2603
      3  NA2        5.8930  -23.8970   22.0460 N.pl3 1410  C2F1410    -0.0221
      4  N3         7.3960  -22.0560   21.9510 N.2   1410  C2F1410    -0.2515
      5  C4         8.4280  -21.3590   21.3520 C.1   1410  C2F1410     0.2218
      6  O4         8.8160  -20.3200   21.8520 O.2   1410  C2F1410    -0.2109
      7  C4A        9.0170  -21.8790   20.1520 C.3   1410  C2F1410     0.2763
      8  N5        10.1320  -21.2220   19.4180 N.3   1410  C2F1410    -0.2435
      9  C6        10.6950  -21.8850   18.1480 C.3   1410  C2F1410     0.1062
     10  C7        10.4380  -23.4020   18.2870 C.3   1410  C2F1410     0.1547
     11  N8         9.0180  -23.6340   18.5220 N.2   1410  C2F1410    -0.2096
     12  C8A        8.4800  -23.1010   19.6630 C.1   1410  C2F1410     0.1050
     13  C9        12.2310  -21.7180   18.0210 C.3   1410  C2F1410     0.1302
     14  N10       12.6740  -20.3160   17.8170 N.pl3 1410  C2F1410    -0.2361
     15  C11       10.7030  -19.9330   19.8930 C.3   1410  C2F1410     0.0915
     16  C12       16.8000  -19.3870   17.5890 C.ar  1410  C2F1410     0.0551
     17  C13       15.8330  -18.3540   17.4460 C.ar  1410  C2F1410     0.0059
     18  C14       14.4630  -18.6630   17.5220 C.ar  1410  C2F1410     0.0162
     19  C15       14.0440  -20.0060   17.7320 C.ar  1410  C2F1410     0.0654
     20  C16       15.0160  -21.0350   17.8650 C.ar  1410  C2F1410     0.0162
     21  C17       16.3630  -20.7310   17.7950 C.ar  1410  C2F1410     0.0059
     22  C         18.2680  -19.1330   17.5330 C.2   1410  C2F1410     0.2652
     23  O         18.7180  -18.0150   17.3590 O.2   1410  C2F1410    -0.2684
     24  N         19.0400  -20.2470   17.6960 N.am  1410  C2F1410    -0.1918
     25  CA        20.5190  -20.5440   17.7220 C.3   1410  C2F1410     0.1986
     26  CB        21.5010  -19.5280   18.3930 C.3   1410  C2F1410     0.0451
     27  CG        21.6340  -18.1520   17.7290 C.3   1410  C2F1410     0.1164
     28  CD        22.6260  -17.2860   18.5120 C.2   1410  C2F1410     0.3649
     29  OE1       23.1770  -17.7050   19.5110 O.co2 1410  C2F1410    -0.2457
     30  OE2       22.8950  -16.0360   18.0920 O.co2 1410  C2F1410    -0.2457
     31  CT        20.5780  -21.8520   18.4630 C.2   1410  C2F1410     0.3842
     32  O1        21.6070  -22.5140   18.4790 O.co2 1410  C2F1410    -0.2437
     33  O2        19.4680  -22.2930   19.1110 O.co2 1410  C2F1410    -0.2437
@<TRIPOS>BOND
     1    23    22    2
     2    17    18   ar
     3    17    16   ar
     4    18    19   ar
     5    22    16    1
     6    22    24   am
     7    16    21   ar
     8    24    25    1
     9    25    26    1
    10    25    31    1
    11    27    26    1
    12    27    28    1
    13    19    14    1
    14    19    20   ar
    15    21    20   ar
    16    14    13    1
    17    13     9    1
    18    30    28   ar
    19     9    10    1
    20     9     8    1
    21    10    11    1
    22    31    32   ar
    23    31    33   ar
    24    28    29   ar
    25    11    12    2
    26     8    15    1
    27     8     7    1
    28    12     7    1
    29    12     1    2
    30     7     5    1
    31     1     2    2
    32     5     6    2
    33     5     4    2
    34     2     4    2
    35     2     3    1
