@<TRIPOS>MOLECULE
2ido_TMP_A_1.pdb
 21 22 0 0 0
SMALL
GASTEIGER

@<TRIPOS>ATOM
      1  P         31.5650   35.3650   26.3590 P.3   2001  TMP2001     0.5327
      2  O1P       31.2010   36.8420   26.4480 O.3   2001  TMP2001    -0.1145
      3  O2P       32.3810   34.8900   27.5370 O.3   2001  TMP2001    -0.1145
      4  O3P       30.3410   34.4980   26.1050 O.2   2001  TMP2001    -0.2224
      5  O5'       32.5370   35.2350   25.0540 O.3   2001  TMP2001    -0.2675
      6  C5'       31.9800   35.2790   23.7220 C.3   2001  TMP2001     0.1858
      7  C4'       33.0600   35.0860   22.6740 C.3   2001  TMP2001     0.1774
      8  O4'       34.1260   36.0430   22.8490 O.3   2001  TMP2001    -0.3339
      9  C3'       33.7630   33.7380   22.6810 C.3   2001  TMP2001     0.1857
     10  O3'       33.0370   32.7170   22.0140 O.3   2001  TMP2001    -0.2203
     11  C2'       35.0360   34.0480   21.9150 C.3   2001  TMP2001     0.0874
     12  C1'       35.3480   35.4770   22.3710 C.3   2001  TMP2001     0.2090
     13  N1        36.3480   35.5060   23.4660 N.am  2001  TMP2001    -0.1794
     14  C2        37.6820   35.4990   23.0950 C.1   2001  TMP2001     0.2844
     15  O2        38.0640   35.5350   21.9360 O.2   2001  TMP2001    -0.1918
     16  N3        38.5630   35.4510   24.1400 N.2   2001  TMP2001    -0.2455
     17  C4        38.2670   35.4050   25.4890 C.1   2001  TMP2001     0.2134
     18  O4        39.1770   35.3200   26.3110 O.2   2001  TMP2001    -0.2088
     19  C5        36.8580   35.4470   25.8120 C.2   2001  TMP2001     0.0891
     20  C5M       36.4410   35.4130   27.2500 C.3   2001  TMP2001     0.0462
     21  C6        35.9790   35.5030   24.8010 C.2   2001  TMP2001     0.0877
@<TRIPOS>BOND
     1    11    12    1
     2    11     9    1
     3    15    14    2
     4    10     9    1
     5    12     8    1
     6    12    13    1
     7     7     9    1
     8     7     8    1
     9     7     6    1
    10    14    13   am
    11    14    16    2
    12    13    21    1
    13     6     5    1
    14    16    17    2
    15    21    19    2
    16     5     1    1
    17    17    19    1
    18    17    18    2
    19    19    20    1
    20     4     1    2
    21     1     2    1
    22     1     3    1
