@<TRIPOS>MOLECULE
2idv_M7G_A_1.pdb
 29 31 0 0 0
SMALL
GASTEIGER

@<TRIPOS>ATOM
      1  PA         3.8580    2.8630   -3.5830 P.3   1000  M7G1000     0.2231
      2  O1A        2.7980    1.9420   -4.0520 O.2   1000  M7G1000    -0.5169
      3  O2A        4.1330    2.9260   -2.1280 O.3   1000  M7G1000    -0.4370
      4  O3A        5.2370    2.4790   -4.3320 O.3   1000  M7G1000    -0.2261
      5  O5'        3.5580    4.3550   -4.1160 O.3   1000  M7G1000    -0.3111
      6  PB         5.2240    1.5170   -5.6310 P.3   1000  M7G1000     0.5373
      7  O1B        4.1930    1.8910   -6.6290 O.2   1000  M7G1000    -0.2221
      8  O2B        5.0380    0.0180   -5.0620 O.3   1000  M7G1000    -0.1143
      9  O3B        6.7230    1.5780   -6.2270 O.3   1000  M7G1000    -0.1143
     10  C5'        3.0970    4.5880   -5.4490 C.3   1000  M7G1000     0.1813
     11  C4'        2.5590    6.0160   -5.5700 C.3   1000  M7G1000     0.1799
     12  O4'        1.4500    6.2530   -4.6840 O.3   1000  M7G1000    -0.3326
     13  C3'        3.5940    7.0800   -5.2000 C.3   1000  M7G1000     0.2158
     14  O3'        4.4540    7.3130   -6.3180 O.3   1000  M7G1000    -0.2175
     15  C2'        2.6420    8.2660   -5.0650 C.3   1000  M7G1000     0.2310
     16  O2'        2.1720    8.6410   -6.3620 O.3   1000  M7G1000    -0.2158
     17  C1'        1.5110    7.6280   -4.2530 C.3   1000  M7G1000     0.2287
     18  N9         1.8300    7.6580   -2.8040 N.pl3 1000  M7G1000    -0.2454
     19  C8         2.4540    6.6930   -2.1250 C.3   1000  M7G1000     0.1735
     20  N7         2.5350    7.0640   -0.8500 N.3   1000  M7G1000    -0.2343
     21  CM7        3.1690    6.2760    0.2330 C.3   1000  M7G1000     0.0924
     22  C5         1.9720    8.2560   -0.6970 C.3   1000  M7G1000     0.2475
     23  C6         1.7570    9.0880    0.3960 C.1   1000  M7G1000     0.2145
     24  O6         2.1400    8.7550    1.5180 O.2   1000  M7G1000    -0.2115
     25  N1         1.0850   10.3000    0.2000 N.2   1000  M7G1000    -0.2526
     26  C2         0.6590   10.6430   -1.0930 C.1   1000  M7G1000     0.2525
     27  N2         0.0150   11.7900   -1.2880 N.pl3 1000  M7G1000    -0.0226
     28  N3         0.8800    9.8090   -2.1190 N.2   1000  M7G1000    -0.3118
     29  C4         1.5160    8.6360   -1.9560 C.2   1000  M7G1000     0.2086
@<TRIPOS>BOND
     1     7     6    2
     2    16    15    1
     3    14    13    1
     4     9     6    1
     5     6     8    1
     6     6     4    1
     7    11    10    1
     8    11    13    1
     9    11    12    1
    10    10     5    1
    11    13    15    1
    12    15    17    1
    13    12    17    1
    14     4     1    1
    15    17    18    1
    16     5     1    1
    17     2     1    2
    18     1     3    1
    19    18    19    1
    20    18    29    1
    21    19    20    1
    22    28    29    2
    23    28    26    2
    24    29    22    1
    25    27    26    1
    26    26    25    2
    27    20    22    1
    28    20    21    1
    29    22    23    1
    30    25    23    2
    31    23    24    2
