@<TRIPOS>MOLECULE
2idw_017_B_1.pdb
 38 41 0 0 0
SMALL
GASTEIGER

@<TRIPOS>ATOM
      1  N1        15.3690   36.5220   17.9520 N.pl3 401  017401     -0.1281
      2  C2        15.9710   35.5180   17.2530 C.ar  401  017401      0.0892
      3  C3        15.5780   34.1640   17.3890 C.ar  401  017401      0.0194
      4  C4        16.2710   33.1730   16.6660 C.ar  401  017401      0.0213
      5  C5        17.3250   33.5760   15.8080 C.ar  401  017401      0.1223
      6  C6        17.7210   34.8920   15.7080 C.ar  401  017401      0.0213
      7  C7        17.0080   35.8800   16.3990 C.ar  401  017401      0.0194
      8  S8        18.3100   32.3420   14.8990 S.O2  401  017401      0.0634
      9  O9        17.4960   31.2130   14.4070 O.2   401  017401     -0.1528
     10  O10       19.0020   33.1840   13.9170 O.2   401  017401     -0.1528
     11  N11       19.5470   31.7050   15.8720 N.3   401  017401     -0.1529
     12  C12       20.3850   32.7190   16.5390 C.3   401  017401      0.0958
     13  C13       21.8640   32.3260   16.5690 C.3   401  017401      0.0178
     14  C14       22.4090   32.2810   15.1420 C.3   401  017401      0.0015
     15  C15       22.5990   33.3500   17.4220 C.3   401  017401      0.0015
     16  C16       19.2170   30.4480   16.6290 C.3   401  017401      0.1304
     17  C17       20.0820   29.3110   16.0150 C.3   401  017401      0.1898
     18  O18       19.9920   28.1990   16.9290 O.3   401  017401     -0.2197
     19  C19       19.6830   28.8680   14.6060 C.3   401  017401      0.1347
     20  N20       20.6790   27.9400   14.0990 N.am  401  017401     -0.1675
     21  C21       21.5310   28.2870   13.1310 C.2   401  017401      0.4211
     22  O22       21.6160   29.3430   12.5260 O.2   401  017401     -0.2246
     23  O23       22.3860   27.2350   12.8840 O.3   401  017401     -0.4345
     24  C24       23.2070   27.3160   11.7000 C.3   401  017401      0.2048
     25  C25       24.5260   26.6250   12.0470 C.3   401  017401      0.1884
     26  O26       24.2540   25.2370   11.9650 O.3   401  017401     -0.3265
     27  C27       23.2570   25.0460   10.9730 C.3   401  017401      0.2388
     28  O28       22.2290   24.2290   11.5270 O.3   401  017401     -0.3304
     29  C29       20.9860   24.9640   11.5690 C.3   401  017401      0.1451
     30  C30       21.1760   26.1630   10.6050 C.3   401  017401      0.0409
     31  C31       22.6530   26.3780   10.6130 C.3   401  017401      0.1016
     32  C32       18.3040   28.1780   14.5230 C.3   401  017401      0.0508
     33  C33       17.8700   26.3610   12.8110 C.ar  401  017401     -0.0042
     34  C34       17.5890   25.9580   11.5090 C.ar  401  017401     -0.0003
     35  C35       17.4630   26.8810   10.4860 C.ar  401  017401     -0.0000
     36  C36       17.5580   28.2440   10.8030 C.ar  401  017401     -0.0003
     37  C37       17.8340   28.6820   12.0820 C.ar  401  017401     -0.0042
     38  C38       17.9850   27.7310   13.1140 C.ar  401  017401     -0.0204
@<TRIPOS>BOND
     1    35    36   ar
     2    35    34   ar
     3    30    31    1
     4    30    29    1
     5    31    27    1
     6    31    24    1
     7    36    37   ar
     8    27    28    1
     9    27    26    1
    10    34    33   ar
    11    28    29    1
    12    24    25    1
    13    24    23    1
    14    26    25    1
    15    37    38   ar
    16    22    21    2
    17    33    38   ar
    18    23    21    1
    19    38    32    1
    20    21    20   am
    21    10     8    2
    22    20    19    1
    23     9     8    2
    24    32    19    1
    25    19    17    1
    26     8     5    1
    27     8    11    1
    28    14    13    1
    29     6     5   ar
    30     6     7   ar
    31     5     4   ar
    32    11    12    1
    33    11    16    1
    34    17    16    1
    35    17    18    1
    36     7     2   ar
    37    12    13    1
    38    13    15    1
    39     4     3   ar
    40     2     3   ar
    41     2     1    1
