@<TRIPOS>MOLECULE
2idx_ATP_A_1.pdb
 31 33 0 0 0
SMALL
GASTEIGER

@<TRIPOS>ATOM
      1  PG        15.9250   52.1600   27.5120 P.3   607  ATP607      0.5373
      2  O1G       15.0360   50.9500   27.5700 O.2   607  ATP607     -0.2221
      3  O2G       15.4120   53.4940   28.0000 O.3   607  ATP607     -0.1143
      4  O3G       17.3270   51.8830   28.0080 O.3   607  ATP607     -0.1143
      5  PB        17.0580   51.5290   24.9320 P.3   607  ATP607      0.2277
      6  O1B       16.1730   51.1750   23.7630 O.2   607  ATP607     -0.5168
      7  O2B       17.8270   50.4150   25.5940 O.3   607  ATP607     -0.4368
      8  O3B       16.1010   52.3680   25.9300 O.3   607  ATP607     -0.2258
      9  PA        19.1700   53.3310   25.4630 P.3   607  ATP607      0.2189
     10  O1A       18.7160   54.6640   25.9730 O.2   607  ATP607     -0.5170
     11  O2A       19.6740   52.2890   26.4260 O.3   607  ATP607     -0.4371
     12  O3A       18.0470   52.7180   24.4890 O.3   607  ATP607     -0.2700
     13  O5'       20.3310   53.5970   24.3660 O.3   607  ATP607     -0.3112
     14  C5'       20.4540   54.8090   23.6100 C.3   607  ATP607      0.1813
     15  C4'       20.5540   54.4150   22.1370 C.3   607  ATP607      0.1821
     16  O4'       21.6640   53.5400   21.9760 O.3   607  ATP607     -0.3135
     17  C3'       19.3670   53.6380   21.5950 C.3   607  ATP607      0.2184
     18  O3'       18.3830   54.4710   20.9840 O.3   607  ATP607     -0.2174
     19  C2'       19.9660   52.6810   20.5850 C.3   607  ATP607      0.2570
     20  O2'       20.0960   53.2610   19.2950 O.3   607  ATP607     -0.2130
     21  C1'       21.3640   52.4820   21.0840 C.3   607  ATP607      0.3186
     22  N9        21.4240   51.2520   21.8860 N.pl3 607  ATP607     -0.1439
     23  C8        20.4900   50.7980   22.7470 C.3   607  ATP607      0.3377
     24  N7        20.8790   49.6410   23.3140 N.2   607  ATP607     -0.2095
     25  C5        22.1070   49.3670   22.8210 C.2   607  ATP607      0.2526
     26  C6        23.0980   48.2980   23.0100 C.2   607  ATP607      0.4393
     27  N6        22.8460   47.2660   23.8720 N.pl3 607  ATP607      0.2180
     28  N1        24.2350   48.3970   22.2740 N.2   607  ATP607      0.0021
     29  C2        24.5130   49.3990   21.4290 C.3   607  ATP607      0.5254
     30  N3        23.6590   50.4120   21.2270 N.2   607  ATP607     -0.0055
     31  C4        22.4640   50.4290   21.8810 C.2   607  ATP607      0.3518
@<TRIPOS>BOND
     1    20    19    1
     2    19    21    1
     3    19    17    1
     4    18    17    1
     5    21    22    1
     6    21    16    1
     7    30    29    1
     8    30    31    2
     9    29    28    1
    10    17    15    1
    11    31    22    1
    12    31    25    1
    13    22    23    1
    14    16    15    1
    15    15    14    1
    16    28    26    2
    17    23    24    1
    18    25    26    1
    19    25    24    2
    20    26    27    1
    21    14    13    1
    22     6     5    2
    23    13     9    1
    24    12     5    1
    25    12     9    1
    26     5     7    1
    27     5     8    1
    28     9    10    2
    29     9    11    1
    30     8     1    1
    31     1     2    2
    32     1     3    1
    33     1     4    1
