@<TRIPOS>MOLECULE
2iea_TDP_A_1.pdb
 26 27 0 0 0
SMALL
GASTEIGER

@<TRIPOS>ATOM
      1  N1'       24.5890  -59.7580    1.2080 N.2   887  TDP887     -0.1861
      2  C2'       24.0780  -58.8720    0.2820 C.1   887  TDP887      0.0663
      3  C2A       24.2460  -57.4190    0.5620 C.3   887  TDP887      0.1291
      4  N3'       23.4630  -59.2690   -0.8370 N.2   887  TDP887     -0.3368
      5  C4'       23.3320  -60.6360   -1.0910 C.2   887  TDP887      0.2292
      6  N4'       22.7250  -60.9610   -2.2150 N.pl3 887  TDP887     -0.0925
      7  C5'       23.8700  -61.6230   -0.1280 C.2   887  TDP887      0.0654
      8  C6'       24.4790  -61.1190    0.9980 C.2   887  TDP887      0.1115
      9  C35       23.8770  -63.1270   -0.3550 C.3   887  TDP887      0.1237
     10  N3        22.5090  -63.7900   -0.3360 N.pl3 887  TDP887     -0.2970
     11  C2        21.9280  -64.2880   -1.4210 C.3   887  TDP887      0.1543
     12  S1        20.4840  -65.0640   -1.0900 S.3   887  TDP887     -0.0951
     13  C5        20.6290  -64.7120    0.5930 C.2   887  TDP887      0.0164
     14  C4        21.7790  -64.0180    0.8510 C.2   887  TDP887      0.0279
     15  C4A       22.2750  -63.5370    2.1860 C.3   887  TDP887      0.0473
     16  C5A       19.5580  -65.0900    1.5560 C.3   887  TDP887      0.0661
     17  C5B       18.2100  -64.6310    1.0800 C.3   887  TDP887      0.1544
     18  O5G       17.3390  -64.5440    2.2290 O.3   887  TDP887     -0.3134
     19  P1        15.9890  -63.6740    2.2020 P.3   887  TDP887      0.2230
     20  O11       15.2260  -64.1810    0.8720 O.3   887  TDP887     -0.2261
     21  O12       15.2020  -64.0490    3.3880 O.3   887  TDP887     -0.4370
     22  O13       16.3430  -62.2370    2.0180 O.2   887  TDP887     -0.5169
     23  P2        14.6440  -65.5850    0.3260 P.3   887  TDP887      0.5373
     24  O21       13.2900  -65.2390   -0.3710 O.3   887  TDP887     -0.1143
     25  O22       15.5910  -66.0960   -0.6900 O.2   887  TDP887     -0.2221
     26  O23       14.3890  -66.4570    1.4920 O.3   887  TDP887     -0.1143
@<TRIPOS>BOND
     1     6     5    1
     2    11    12    1
     3    11    10    1
     4     5     4    2
     5     5     7    1
     6    12    13    1
     7     4     2    2
     8    25    23    2
     9    24    23    1
    10     9    10    1
    11     9     7    1
    12    10    14    1
    13     7     8    2
    14     2     3    1
    15     2     1    2
    16    23    20    1
    17    23    26    1
    18    13    14    2
    19    13    16    1
    20    14    15    1
    21    20    19    1
    22     8     1    1
    23    17    16    1
    24    17    18    1
    25    22    19    2
    26    19    18    1
    27    19    21    1
