@<TRIPOS>MOLECULE
2ieg_FRY_A_1.pdb
 27 30 0 0 0
SMALL
GASTEIGER

@<TRIPOS>ATOM
      1  C1        65.1560   40.4240   46.5370 C.ar  901  FRY901      0.0893
      2  C7        68.7290   42.6710   45.7540 C.2   901  FRY901      0.1868
      3  C6        68.6800   41.3770   46.3870 C.2   901  FRY901      0.0399
      4  C5        66.4310   40.0300   46.8690 C.ar  901  FRY901      0.0212
      5  C4        67.3330   41.0840   46.4170 C.ar  901  FRY901      0.0400
      6  C3        66.6600   42.1770   45.8140 C.ar  901  FRY901      0.1620
      7  C10       69.9150   43.5090   45.4090 C.2   901  FRY901      0.2949
      8  C12       72.3060   43.9370   45.3360 C.3   901  FRY901      0.1763
      9  C16       74.8620   44.4240   44.3080 C.ar  901  FRY901      0.0504
     10  C14       73.4010   44.0250   46.3460 C.3   901  FRY901      0.0586
     11  C15       74.5460   44.7210   45.6340 C.ar  901  FRY901     -0.0062
     12  C18       72.9030   43.1840   44.1890 C.2   901  FRY901      0.2499
     13  O19       72.1600   42.0640   43.6990 O.2   901  FRY901     -0.2727
     14  C20       74.6100   42.8120   42.4130 C.3   901  FRY901      0.1867
     15  O22       74.1410   42.6930   40.1100 O.2   901  FRY901     -0.2698
     16  C21       73.6530   42.8400   41.2230 C.2   901  FRY901      0.2813
     17  N23       72.3730   42.5010   41.4330 N.am  901  FRY901     -0.0863
     18  N17       74.0850   43.4710   43.6270 N.am  901  FRY901     -0.2485
     19  C24       75.9380   45.0670   43.6950 C.ar  901  FRY901      0.0146
     20  C25       76.6620   46.0050   44.4100 C.ar  901  FRY901      0.0013
     21  C26       76.3400   46.2990   45.7240 C.ar  901  FRY901     -0.0002
     22  C27       75.2790   45.6580   46.3370 C.ar  901  FRY901     -0.0030
     23  N11       71.1490   43.1340   45.7250 N.am  901  FRY901     -0.1915
     24  O13       69.6680   44.5760   44.8620 O.2   901  FRY901     -0.2655
     25  N8        67.4810   43.1540   45.4110 N.2   901  FRY901     -0.3907
     26  S2        64.9580   41.9330   45.7690 S.2   901  FRY901     -0.0439
     27 CL         63.6970   39.4370   46.8110 Cl    901  FRY901     -0.0751
@<TRIPOS>BOND
     1    15    16    2
     2    16    17   am
     3    16    14    1
     4    14    18    1
     5    18    12   am
     6    18     9    1
     7    19     9   ar
     8    19    20   ar
     9    13    12    2
    10    12     8    1
    11     9    11   ar
    12    20    21   ar
    13    24     7    2
    14     8    23    1
    15     8    10    1
    16     7    23   am
    17     7     2    1
    18    25     2    2
    19    25     6    2
    20    11    22   ar
    21    11    10    1
    22    21    22   ar
    23     2     3    1
    24    26     6   ar
    25    26     1   ar
    26     6     5   ar
    27     3     5    2
    28     5     4   ar
    29     1    27    1
    30     1     4   ar
