@<TRIPOS>MOLECULE
2ieg_PLR_A_1.pdb
 15 15 0 0 0
SMALL
GASTEIGER

@<TRIPOS>ATOM
      1  N1        44.4660   56.1880   40.1850 N.ar  903  PLR903     -0.2452
      2  C2        44.7600   55.4480   41.3160 C.ar  903  PLR903      0.0978
      3  C2A       45.8400   55.9320   42.2540 C.3   903  PLR903      0.0555
      4  C3        44.0370   54.2910   41.5700 C.ar  903  PLR903      0.2049
      5  O3        44.3110   53.5100   42.6750 O.3   903  PLR903     -0.2857
      6  C4        43.0440   53.9040   40.6590 C.ar  903  PLR903      0.0182
      7  C4A       42.4350   52.5770   40.8890 C.3   903  PLR903      0.0342
      8  C5        42.7710   54.6530   39.5200 C.ar  903  PLR903      0.0261
      9  C6        43.4950   55.8110   39.2890 C.ar  903  PLR903      0.0965
     10  C5A       41.6290   54.3340   38.5880 C.3   903  PLR903      0.1815
     11  O4P       40.4580   54.8850   39.1230 O.3   903  PLR903     -0.2653
     12  P         39.2010   55.2010   38.1750 P.3   903  PLR903      0.5329
     13  O1P       38.1710   55.8320   39.0270 O.3   903  PLR903     -0.1145
     14  O2P       39.5950   56.1990   37.1010 O.2   903  PLR903     -0.2224
     15  O3P       38.6830   53.9150   37.5320 O.3   903  PLR903     -0.1145
@<TRIPOS>BOND
     1    14    12    2
     2    15    12    1
     3    12    13    1
     4    12    11    1
     5    10    11    1
     6    10     8    1
     7     9     8   ar
     8     9     1   ar
     9     8     6   ar
    10     1     2   ar
    11     6     7    1
    12     6     4   ar
    13     2     4   ar
    14     2     3    1
    15     4     5    1
