@<TRIPOS>MOLECULE
2ieh_MOY_A_1.pdb
 24 26 0 0 0
SMALL
GASTEIGER

@<TRIPOS>ATOM
      1  S         14.6600   14.6660  109.5560 S.2   602  MOY602      0.0267
      2  O3        21.2020   13.7110  109.2170 O.2   602  MOY602     -0.2868
      3  O4        16.6150   12.0640  114.3700 O.3   602  MOY602     -0.2866
      4  N1        17.0780   13.5100  109.5230 N.2   602  MOY602     -0.2101
      5  N2        17.0260   15.8300  109.9770 N.am  602  MOY602     -0.2432
      6  C1        16.3040   14.7030  109.6980 C.1   602  MOY602      0.0428
      7  C2        18.3760   16.0070  109.4770 C.2   602  MOY602      0.0389
      8  C3        19.1320   14.8240  109.3080 C.2   602  MOY602      0.0538
      9  C4        18.5210   13.5690  110.0080 C.3   602  MOY602      0.1621
     10  C5        16.3840   16.9090  110.7740 C.3   602  MOY602      0.1278
     11  C6        18.7650   17.4390  109.1780 C.3   602  MOY602      0.0479
     12  C17       20.5210   14.6170  108.7450 C.2   602  MOY602      0.1947
     13  C18       21.0490   15.4470  107.5960 C.ar  602  MOY602      0.0387
     14  C19       22.4350   15.7570  107.5530 C.ar  602  MOY602      0.0032
     15  C20       22.9460   16.5510  106.4750 C.ar  602  MOY602      0.0001
     16  C21       22.0600   17.0210  105.4450 C.ar  602  MOY602      0.0000
     17  C22       20.7170   16.7080  105.5030 C.ar  602  MOY602      0.0001
     18  C23       20.1940   15.9260  106.5540 C.ar  602  MOY602      0.0032
     19  C24       18.5630   13.6270  111.5970 C.ar  602  MOY602      0.0081
     20  C25       17.5950   12.8310  112.2970 C.ar  602  MOY602      0.0400
     21  C26       17.5560   12.8310  113.7220 C.ar  602  MOY602      0.1955
     22  C27       18.4720   13.6180  114.4650 C.ar  602  MOY602      0.0420
     23  C28       19.4210   14.3940  113.7940 C.ar  602  MOY602      0.0030
     24  C29       19.4770   14.4090  112.3710 C.ar  602  MOY602     -0.0019
@<TRIPOS>BOND
     1    16    17   ar
     2    16    15   ar
     3    17    18   ar
     4    15    14   ar
     5    18    13   ar
     6    14    13   ar
     7    13    12    1
     8    12     2    2
     9    12     8    1
    10    11     7    1
    11     8     7    2
    12     8     9    1
    13     7     5    1
    14     4     6    2
    15     4     9    1
    16     1     6    2
    17     6     5    1
    18     5    10    1
    19     9    19    1
    20    19    20   ar
    21    19    24   ar
    22    20    21   ar
    23    24    23   ar
    24    21     3    1
    25    21    22   ar
    26    23    22   ar
