@<TRIPOS>MOLECULE
2ieh_ADP_A_1.pdb
 27 29 0 0 0
SMALL
GASTEIGER

@<TRIPOS>ATOM
      1  PB        14.9100    6.5280   99.3500 P.3   600  ADP600      0.5373
      2  O1B       14.2270    7.1290   98.1940 O.2   600  ADP600     -0.2221
      3  O2B       15.5430    5.1410   99.0000 O.3   600  ADP600     -0.1143
      4  O3B       15.9520    7.3800   99.8370 O.3   600  ADP600     -0.1143
      5  PA        13.4880    7.0430  101.8080 P.3   600  ADP600      0.2231
      6  O1A       14.4700    6.8430  102.8740 O.3   600  ADP600     -0.4370
      7  O2A       13.3610    8.4520  101.5280 O.2   600  ADP600     -0.5169
      8  O3A       13.8820    6.2730  100.4850 O.3   600  ADP600     -0.2261
      9  O5'       12.0340    6.6720  102.2330 O.3   600  ADP600     -0.3111
     10  C5'       11.0550    5.8280  101.6520 C.3   600  ADP600      0.1813
     11  C4'        9.8220    5.8940  102.6290 C.3   600  ADP600      0.1821
     12  O4'        9.9010    4.6300  103.2380 O.3   600  ADP600     -0.3135
     13  C3'        9.9020    6.9110  103.8010 C.3   600  ADP600      0.2184
     14  O3'        8.6390    7.5510  104.0640 O.3   600  ADP600     -0.2174
     15  C2'       10.4170    6.1450  105.0040 C.3   600  ADP600      0.2570
     16  O2'        9.9550    6.6230  106.2700 O.3   600  ADP600     -0.2130
     17  C1'       10.0350    4.7230  104.6740 C.3   600  ADP600      0.3186
     18  N9        11.0800    3.7220  105.1110 N.pl3 600  ADP600     -0.1439
     19  C8        12.1260    3.2590  104.3630 C.3   600  ADP600      0.3377
     20  N7        12.8340    2.4000  105.0680 N.2   600  ADP600     -0.2095
     21  C5        12.2810    2.2850  106.2380 C.2   600  ADP600      0.2526
     22  C6        12.5510    1.5560  107.4000 C.2   600  ADP600      0.4393
     23  N6        13.5980    0.7420  107.4280 N.pl3 600  ADP600      0.2180
     24  N1        11.7200    1.6780  108.5220 N.2   600  ADP600      0.0021
     25  C2        10.6150    2.5060  108.5580 C.3   600  ADP600      0.5254
     26  N3        10.3460    3.2300  107.4280 N.2   600  ADP600     -0.0055
     27  C4        11.1360    3.1440  106.2740 C.2   600  ADP600      0.3518
@<TRIPOS>BOND
     1     2     1    2
     2     3     1    1
     3     1     4    1
     4     1     8    1
     5     8     5    1
     6     7     5    2
     7    10     9    1
     8    10    11    1
     9     5     9    1
    10     5     6    1
    11    11    12    1
    12    11    13    1
    13    12    17    1
    14    13    14    1
    15    13    15    1
    16    19    20    1
    17    19    18    1
    18    17    15    1
    19    17    18    1
    20    15    16    1
    21    20    21    2
    22    18    27    1
    23    21    27    1
    24    21    22    1
    25    27    26    2
    26    22    23    1
    27    22    24    2
    28    26    25    1
    29    24    25    1
