@<TRIPOS>MOLECULE
2iei_PLR_A_1.pdb
 15 15 0 0 0
SMALL
GASTEIGER

@<TRIPOS>ATOM
      1  N1        44.6420    6.3530   24.3590 N.ar  901  PLR901     -0.2452
      2  C2        44.9280    7.1770   23.2830 C.ar  901  PLR901      0.0978
      3  C2A       45.9780    6.7790   22.2870 C.3   901  PLR901      0.0555
      4  C3        44.2430    8.3710   23.1160 C.ar  901  PLR901      0.2049
      5  O3        44.5620    9.1660   22.0360 O.3   901  PLR901     -0.2857
      6  C4        43.2670    8.7210   24.0680 C.ar  901  PLR901      0.0182
      7  C4A       42.4410    9.9590   23.9300 C.3   901  PLR901      0.0342
      8  C5        42.9940    7.8780   25.1480 C.ar  901  PLR901      0.0261
      9  C6        43.6900    6.6840   25.2860 C.ar  901  PLR901      0.0965
     10  C5A       41.8150    8.1640   26.0440 C.3   901  PLR901      0.1815
     11  O4P       40.6230    7.7660   25.3990 O.3   901  PLR901     -0.2653
     12  P         39.3530    7.4270   26.3170 P.3   901  PLR901      0.5329
     13  O1P       38.2750    6.7740   25.4850 O.2   901  PLR901     -0.2224
     14  O2P       39.7730    6.4640   27.3880 O.3   901  PLR901     -0.1145
     15  O3P       38.8040    8.7050   26.8930 O.3   901  PLR901     -0.1145
@<TRIPOS>BOND
     1     5     4    1
     2     3     2    1
     3     4     2   ar
     4     4     6   ar
     5     2     1   ar
     6     7     6    1
     7     6     8   ar
     8     1     9   ar
     9     8     9   ar
    10     8    10    1
    11    11    10    1
    12    11    12    1
    13    13    12    2
    14    12    15    1
    15    12    14    1
