@<TRIPOS>MOLECULE
2iei_FRX_A_1.pdb
 30 33 0 0 0
SMALL
GASTEIGER

@<TRIPOS>ATOM
      1  O26       75.2350   20.4440   24.0820 O.2   904  FRX904     -0.2715
      2  C22       75.1830   19.5820   23.2170 C.2   904  FRX904      0.2621
      3  N22       74.8880   18.3000   23.4590 N.am  904  FRX904     -0.2012
      4  C24       74.5650   17.6250   24.7140 C.3   904  FRX904      0.1506
      5  C25       74.1380   16.2220   24.2730 C.3   904  FRX904      0.2054
      6  O25       74.2380   15.2890   25.3470 O.3   904  FRX904     -0.2184
      7  C21       75.4730   19.9680   21.7830 C.3   904  FRX904      0.1849
      8  N17       74.6340   19.2980   20.7830 N.am  904  FRX904     -0.2486
      9  C19       73.3660   19.6650   20.4840 C.2   904  FRX904      0.2499
     10  O19       72.8280   20.6250   21.0050 O.2   904  FRX904     -0.2727
     11  C17       75.2500   18.2570   20.0570 C.ar  904  FRX904      0.0504
     12  C31       76.3940   17.6130   20.5440 C.ar  904  FRX904      0.0146
     13  C30       77.0010   16.5960   19.8010 C.ar  904  FRX904      0.0013
     14  C29       76.4680   16.2160   18.5740 C.ar  904  FRX904     -0.0002
     15  C16       74.7300   17.8770   18.8220 C.ar  904  FRX904     -0.0062
     16  C28       75.3310   16.8570   18.0820 C.ar  904  FRX904     -0.0030
     17  C15       73.4950   18.5750   18.2870 C.3   904  FRX904      0.0586
     18  C13       72.5700   18.9070   19.4500 C.3   904  FRX904      0.1763
     19  N11       71.3810   19.6330   18.9930 N.am  904  FRX904     -0.1915
     20  C11       70.1390   19.1460   19.1270 C.2   904  FRX904      0.2949
     21  O13       69.9550   17.9950   19.4990 O.2   904  FRX904     -0.2655
     22  C7        68.9170   19.9260   18.8490 C.2   904  FRX904      0.1868
     23  N8        67.6620   19.5780   19.2620 N.2   904  FRX904     -0.3907
     24  C3        66.7970   20.5170   18.7760 C.ar  904  FRX904      0.1620
     25  C4        67.4650   21.4210   18.0970 C.ar  904  FRX904      0.0400
     26  C6        68.5970   20.9540   18.2410 C.2   904  FRX904      0.0399
     27  C5        66.7420   22.4120   17.5770 C.ar  904  FRX904      0.0212
     28  S2        65.1510   20.7570   18.8680 S.2   904  FRX904     -0.0439
     29  C1        65.4570   22.1490   17.9520 C.ar  904  FRX904      0.0893
     30 CL         64.0920   23.1870   17.5210 Cl    904  FRX904     -0.0751
@<TRIPOS>BOND
     1    30    29    1
     2    27    29   ar
     3    27    25   ar
     4    29    28   ar
     5    16    14   ar
     6    16    15   ar
     7    25    26    2
     8    25    24   ar
     9    26    22    1
    10    17    15    1
    11    17    18    1
    12    14    13   ar
    13    24    28   ar
    14    24    23    2
    15    15    11   ar
    16    22    20    1
    17    22    23    2
    18    19    20   am
    19    19    18    1
    20    20    21    2
    21    18     9    1
    22    13    12   ar
    23    11    12   ar
    24    11     8    1
    25     9     8   am
    26     9    10    2
    27     8     7    1
    28     7     2    1
    29     2     3   am
    30     2     1    2
    31     3     4    1
    32     5     4    1
    33     5     6    1
