@<TRIPOS>MOLECULE
2iej_FII_B_1.pdb
 24 23 0 0 0
SMALL
GASTEIGER

@<TRIPOS>ATOM
      1  C1        14.2970  129.7650   -6.3210 C.3   944  FII944      0.0260
      2  C2        13.9930  128.3900   -5.7270 C.2   944  FII944     -0.0478
      3  C6        12.8050  127.5970   -6.2530 C.3   944  FII944      0.0260
      4  C10       14.7930  127.8700   -4.7080 C.2   944  FII944     -0.0342
      5  C11       15.8960  128.5220   -4.1520 C.3   944  FII944      0.0297
      6  C12       16.8560  127.5090   -3.5700 C.3   944  FII944      0.0263
      7  C15       18.0380  128.1300   -2.7910 C.2   944  FII944     -0.0478
      8  C18       17.8520  128.6620   -1.3720 C.3   944  FII944      0.0260
      9  C22       19.2940  128.1540   -3.3780 C.2   944  FII944     -0.0342
     10  C23       20.4930  128.6380   -2.8330 C.3   944  FII944      0.0297
     11  C24       21.2310  129.4830   -3.8880 C.3   944  FII944      0.0264
     12  C27       22.5260  130.1960   -3.4420 C.2   944  FII944     -0.0453
     13  C30       23.0770  131.2860   -4.3700 C.3   944  FII944      0.0261
     14  C34       23.2260  129.8930   -2.2710 C.2   944  FII944     -0.0002
     15  C35       24.4010  130.5100   -1.7840 C.3   944  FII944      0.1990
     16  O36       24.0130  131.3800   -0.6770 O.3   944  FII944     -0.2391
     17  N42       25.0750  132.0190   -0.1460 N.am  944  FII944     -0.0618
     18  C43       25.2320  132.2310    1.1450 C.2   944  FII944      0.2747
     19  O44       26.2020  132.8290    1.5890 O.2   944  FII944     -0.2705
     20  C45       24.1400  131.7220    2.0960 C.3   944  FII944      0.1477
     21  P46       24.8460  130.3610    3.0930 P.3   944  FII944      0.1265
     22  O49       25.3340  129.3310    1.9470 O.2   944  FII944     -0.4596
     23  O50       26.1440  130.8930    3.8440 O.3   944  FII944     -0.3568
     24  O51       23.8010  129.8700    4.0360 O.3   944  FII944     -0.3568
@<TRIPOS>BOND
     1     1     2    1
     2     3     2    1
     3     2     4    2
     4     4     5    1
     5    13    12    1
     6     5     6    1
     7    11    12    1
     8    11    10    1
     9     6     7    1
    10    12    14    2
    11     9    10    1
    12     9     7    2
    13     7     8    1
    14    14    15    1
    15    15    16    1
    16    16    17    1
    17    17    18   am
    18    18    19    2
    19    18    20    1
    20    22    21    2
    21    20    21    1
    22    21    23    1
    23    21    24    1
