@<TRIPOS>MOLECULE
2iej_S48_B_1.pdb
 38 42 0 0 0
SMALL
GASTEIGER

@<TRIPOS>ATOM
      1  CAB       21.4860  136.2860   -5.1640 C.3   943  S48943      0.0916
      2  NBJ       20.5530  135.2760   -4.5550 N.3   943  S48943     -0.2443
      3  CAR       19.2580  135.2430   -4.8290 C.3   943  S48943      0.1408
      4  CAP       20.8600  134.3090   -3.6800 C.3   943  S48943      0.2025
      5  NAX       19.7310  133.6350   -3.3940 N.2   943  S48943     -0.2362
      6  CBE       18.7800  134.2370   -4.0980 C.2   943  S48943      0.1931
      7  SBL       17.1190  133.8030   -4.1400 S.O2  943  S48943      0.0775
      8  OAE       16.9860  132.4370   -4.7650 O.2   943  S48943     -0.1516
      9  OAF       16.3650  134.8370   -4.9470 O.2   943  S48943     -0.1516
     10  N         16.3770  133.8200   -2.6820 N.3   943  S48943     -0.1424
     11  CA        16.1190  132.4550   -2.1780 C.3   943  S48943      0.2048
     12  C         14.6700  132.2320   -2.6470 C.2   943  S48943      0.3354
     13  O         14.0470  133.1610   -3.1720 O.2   943  S48943     -0.2485
     14  OAY       14.0990  131.0180   -2.5050 O.3   943  S48943     -0.4434
     15  CAA       12.7030  130.8810   -2.7870 C.3   943  S48943      0.2556
     16  CBG       16.7590  134.8880   -1.7510 C.3   943  S48943      0.1043
     17  CAV       17.7010  134.4690   -0.6280 C.3   943  S48943      0.1091
     18  CAS       15.4180  135.4290   -1.1800 C.3   943  S48943      0.0471
     19  CBC       15.6070  136.3820   -0.0040 C.ar  943  S48943     -0.0074
     20  CAQ       14.5480  137.2460    0.3200 C.ar  943  S48943     -0.0030
     21  CBB       14.6370  138.1270    1.4230 C.ar  943  S48943     -0.0002
     22  CBA       13.5760  139.0260    1.7310 C.ar  943  S48943     -0.0000
     23  CAJ       12.2330  138.7480    1.4510 C.ar  943  S48943     -0.0000
     24  CAH       11.2180  139.6870    1.7350 C.ar  943  S48943     -0.0000
     25  CAG       11.5540  140.9380    2.2770 C.ar  943  S48943      0.0000
     26  CAI       12.8900  141.2420    2.5310 C.ar  943  S48943     -0.0000
     27  CAK       13.8900  140.2970    2.2560 C.ar  943  S48943     -0.0000
     28  CAL       15.8370  138.1550    2.1430 C.ar  943  S48943      0.0012
     29  CAM       16.9050  137.3130    1.8020 C.ar  943  S48943      0.0142
     30  CBF       16.7970  136.4290    0.7150 C.ar  943  S48943      0.0441
     31  NBH       17.8770  135.5690    0.3340 N.pl3 943  S48943     -0.3011
     32  CAU       19.2230  135.7610    0.9160 C.3   943  S48943      0.1368
     33  CBD       19.3800  134.8170    2.1210 C.ar  943  S48943      0.0778
     34  CAN       18.4090  134.1060    2.7230 C.ar  943  S48943      0.1150
     35  NAW       18.9470  133.4110    3.7230 N.ar  943  S48943     -0.2226
     36  CAO       20.2590  133.6920    3.7670 C.ar  943  S48943      0.1784
     37  NBK       20.5090  134.5480    2.7770 N.ar  943  S48943     -0.3089
     38  CAC       21.8780  135.1060    2.4500 C.3   943  S48943      0.1318
@<TRIPOS>BOND
     1     1     2    1
     2     9     7    2
     3     3     2    1
     4     3     6    1
     5     8     7    2
     6     2     4    1
     7     7     6    1
     8     7    10    1
     9     6     5    2
    10     4     5    1
    11    13    12    2
    12    15    14    1
    13    10    11    1
    14    10    16    1
    15    12    14    1
    16    12    11    1
    17    16    18    1
    18    16    17    1
    19    18    19    1
    20    17    31    1
    21    19    20   ar
    22    19    30   ar
    23    20    21   ar
    24    31    30    1
    25    31    32    1
    26    30    29   ar
    27    32    33    1
    28    21    22    1
    29    21    28   ar
    30    23    22   ar
    31    23    24   ar
    32    22    27   ar
    33    24    25   ar
    34    29    28   ar
    35    33    34   ar
    36    33    37   ar
    37    27    26   ar
    38    25    26   ar
    39    38    37    1
    40    34    35   ar
    41    37    36   ar
    42    35    36   ar
