@<TRIPOS>MOLECULE
2ien_017_B_1.pdb
 38 41 0 0 0
SMALL
GASTEIGER

@<TRIPOS>ATOM
      1  N1        21.0910   28.7350   14.0670 N.pl3 402  017402     -0.1281
      2  C2        20.5400   27.5660   14.5190 C.ar  402  017402      0.0892
      3  C3        19.1880   27.3330   14.2100 C.ar  402  017402      0.0194
      4  C4        18.6260   26.1600   14.6750 C.ar  402  017402      0.0213
      5  C5        19.3840   25.2160   15.3450 C.ar  402  017402      0.1223
      6  C6        20.7110   25.4230   15.7210 C.ar  402  017402      0.0213
      7  C7        21.2630   26.6460   15.2920 C.ar  402  017402      0.0194
      8  S8        18.4500   23.7990   15.9930 S.O2  402  017402      0.0634
      9  O9        17.2570   23.4660   15.0690 O.2   402  017402     -0.1528
     10  O10       19.4810   22.6380   16.2400 O.2   402  017402     -0.1528
     11  N11       17.7940   24.1570   17.5840 N.3   402  017402     -0.1529
     12  C12       18.7830   24.4260   18.6320 C.3   402  017402      0.0958
     13  C13       18.4000   23.8560   20.0060 C.3   402  017402      0.0178
     14  C14       18.3680   22.3520   19.8930 C.3   402  017402      0.0015
     15  C15       19.5030   24.3350   20.9200 C.3   402  017402      0.0015
     16  C16       16.5050   24.8940   17.5640 C.3   402  017402      0.1304
     17  C17       15.3940   23.9640   18.1580 C.3   402  017402      0.1898
     18  O18       14.2320   24.7640   18.4090 O.3   402  017402     -0.2197
     19  C19       15.0130   22.8280   17.1770 C.3   402  017402      0.1347
     20  N20       14.1320   21.9410   17.8870 N.am  402  017402     -0.1675
     21  C21       14.4880   20.6750   18.2230 C.2   402  017402      0.4211
     22  O22       15.5870   20.0860   17.9550 O.2   402  017402     -0.2246
     23  O23       13.4210   20.0660   18.9520 O.3   402  017402     -0.4345
     24  C24       13.5050   18.6020   19.1020 C.3   402  017402      0.2048
     25  C25       12.8390   18.3510   20.4850 C.3   402  017402      0.1884
     26  O26       11.4120   18.4700   20.2840 O.3   402  017402     -0.3265
     27  C27       11.2200   17.9780   18.9680 C.3   402  017402      0.2388
     28  O28       10.2970   18.8060   18.2910 O.3   402  017402     -0.3304
     29  C29       11.0420   19.4440   17.2410 C.3   402  017402      0.1451
     30  C30       12.1310   18.4320   16.8180 C.3   402  017402      0.0409
     31  C31       12.4700   17.8870   18.2130 C.3   402  017402      0.1016
     32  C32       14.2940   23.2850   15.8960 C.3   402  017402      0.0508
     33  C33       12.5490   21.7500   14.8810 C.ar  402  017402     -0.0042
     34  C34       12.1480   20.6610   14.0690 C.ar  402  017402     -0.0003
     35  C35       13.1190   19.9330   13.3910 C.ar  402  017402     -0.0000
     36  C36       14.4710   20.2400   13.5170 C.ar  402  017402     -0.0003
     37  C37       14.8600   21.3260   14.3140 C.ar  402  017402     -0.0042
     38  C38       13.9020   22.1140   14.9680 C.ar  402  017402     -0.0204
@<TRIPOS>BOND
     1    35    36   ar
     2    35    34   ar
     3    36    37   ar
     4     1     2    1
     5    34    33   ar
     6     3     2   ar
     7     3     4   ar
     8    37    38   ar
     9     2     7   ar
    10     4     5   ar
    11    33    38   ar
    12    38    32    1
    13     9     8    2
    14     7     6   ar
    15     5     6   ar
    16     5     8    1
    17    32    19    1
    18     8    10    2
    19     8    11    1
    20    30    29    1
    21    30    31    1
    22    19    20    1
    23    19    17    1
    24    29    28    1
    25    16    11    1
    26    16    17    1
    27    11    12    1
    28    20    21   am
    29    22    21    2
    30    17    18    1
    31    31    27    1
    32    31    24    1
    33    21    23    1
    34    28    27    1
    35    12    13    1
    36    23    24    1
    37    27    26    1
    38    24    25    1
    39    14    13    1
    40    13    15    1
    41    26    25    1
