@<TRIPOS>MOLECULE
2ieo_017_A_1.pdb
 38 41 0 0 0
SMALL
GASTEIGER

@<TRIPOS>ATOM
      1  N1        20.9120   28.9400   13.8770 N.pl3 402  017402     -0.1281
      2  C2        20.3960   27.7490   14.3180 C.ar  402  017402      0.0892
      3  C3        19.0550   27.4970   14.0710 C.ar  402  017402      0.0194
      4  C4        18.4460   26.3080   14.4870 C.ar  402  017402      0.0213
      5  C5        19.2490   25.3190   15.0740 C.ar  402  017402      0.1223
      6  C6        20.5700   25.5650   15.4250 C.ar  402  017402      0.0213
      7  C7        21.1450   26.7850   15.0130 C.ar  402  017402      0.0194
      8  S8        18.3090   23.8960   15.7390 S.O2  402  017402      0.0634
      9  O9        17.1170   23.6220   14.7590 O.2   402  017402     -0.1528
     10  O10       19.2840   22.6650   15.8560 O.2   402  017402     -0.1528
     11  N11       17.6690   24.2910   17.3490 N.3   402  017402     -0.1529
     12  C12       18.6620   24.5460   18.4100 C.3   402  017402      0.0958
     13  C13       18.3760   23.8900   19.7820 C.3   402  017402      0.0178
     14  C14       18.3260   22.3820   19.6680 C.3   402  017402      0.0015
     15  C15       19.5090   24.2820   20.7170 C.3   402  017402      0.0015
     16  C16       16.3770   25.0620   17.3560 C.3   402  017402      0.1304
     17  C17       15.1840   24.1760   17.8640 C.3   402  017402      0.1898
     18  O18       14.0630   24.9920   18.1820 O.3   402  017402     -0.2197
     19  C19       14.8280   23.0050   16.8980 C.3   402  017402      0.1347
     20  N20       13.9380   22.0840   17.5730 N.am  402  017402     -0.1675
     21  C21       14.2540   20.8040   17.9010 C.2   402  017402      0.4211
     22  O22       15.3620   20.2300   17.6100 O.2   402  017402     -0.2246
     23  O23       13.1980   20.1860   18.6370 O.3   402  017402     -0.4345
     24  C24       13.3750   18.7510   18.8950 C.3   402  017402      0.2048
     25  C25       12.7750   18.5040   20.2960 C.3   402  017402      0.1884
     26  O26       11.3490   18.5800   20.1260 O.3   402  017402     -0.3265
     27  C27       11.0940   18.1750   18.7860 C.3   402  017402      0.2388
     28  O28       10.1320   18.9830   18.0780 O.3   402  017402     -0.3304
     29  C29       10.8780   19.5250   16.9990 C.3   402  017402      0.1451
     30  C30       12.0020   18.5370   16.6520 C.3   402  017402      0.0409
     31  C31       12.3440   18.0180   18.0210 C.3   402  017402      0.1016
     32  C32       14.1590   23.4190   15.5500 C.3   402  017402      0.0508
     33  C33       12.4110   21.7690   14.6130 C.ar  402  017402     -0.0042
     34  C34       12.0720   20.6320   13.8480 C.ar  402  017402     -0.0003
     35  C35       13.0470   19.8970   13.1850 C.ar  402  017402     -0.0000
     36  C36       14.3900   20.2920   13.3030 C.ar  402  017402     -0.0003
     37  C37       14.7120   21.4400   14.0580 C.ar  402  017402     -0.0042
     38  C38       13.7280   22.2030   14.7050 C.ar  402  017402     -0.0204
@<TRIPOS>BOND
     1    35    36   ar
     2    35    34   ar
     3    36    37   ar
     4    34    33   ar
     5     1     2    1
     6    37    38   ar
     7     3     2   ar
     8     3     4   ar
     9     2     7   ar
    10     4     5   ar
    11    33    38   ar
    12    38    32    1
    13     9     8    2
    14     7     6   ar
    15     5     6   ar
    16     5     8    1
    17    32    19    1
    18     8    10    2
    19     8    11    1
    20    30    29    1
    21    30    31    1
    22    19    20    1
    23    19    17    1
    24    29    28    1
    25    11    16    1
    26    11    12    1
    27    16    17    1
    28    20    21   am
    29    22    21    2
    30    17    18    1
    31    21    23    1
    32    31    27    1
    33    31    24    1
    34    28    27    1
    35    12    13    1
    36    23    24    1
    37    27    26    1
    38    24    25    1
    39    14    13    1
    40    13    15    1
    41    26    25    1
