@<TRIPOS>MOLECULE
2ier_UDP_A_1.pdb
 25 26 0 0 0
SMALL
GASTEIGER

@<TRIPOS>ATOM
      1  N1         6.8240   14.4870   -4.1030 N.am  801  UDP801     -0.1766
      2  C2         7.4000   13.2950   -4.5930 C.1   801  UDP801      0.2845
      3  N3         8.7240   13.0340   -4.2930 N.2   801  UDP801     -0.2452
      4  C4         9.5120   13.8950   -3.5300 C.1   801  UDP801      0.2182
      5  C5         8.9350   15.0910   -3.0380 C.2   801  UDP801      0.1242
      6  C6         7.5890   15.3780   -3.3310 C.2   801  UDP801      0.0929
      7  O2         6.7930   12.4580   -5.2800 O.2   801  UDP801     -0.1918
      8  O4        10.6880   13.5600   -3.3240 O.2   801  UDP801     -0.2085
      9  C1'        5.3890   14.7970   -4.4090 C.3   801  UDP801      0.2401
     10  C2'        4.3790   14.4790   -3.2890 C.3   801  UDP801      0.2319
     11  O2'        4.0950   13.0890   -3.1790 O.3   801  UDP801     -0.2157
     12  C3'        3.2190   15.4010   -3.6710 C.3   801  UDP801      0.2158
     13  C4'        3.8450   16.5440   -4.6030 C.3   801  UDP801      0.1799
     14  O4'        5.2240   16.1920   -4.7010 O.3   801  UDP801     -0.3320
     15  O3'        2.3470   14.8350   -4.6070 O.3   801  UDP801     -0.2175
     16  C5'        3.6660   17.8440   -3.7730 C.3   801  UDP801      0.1813
     17  O5'        3.0240   17.6430   -2.5080 O.3   801  UDP801     -0.3111
     18  PA         3.7970   17.5650   -1.0930 P.3   801  UDP801      0.2231
     19  O1A        5.2530   17.6800   -1.3240 O.2   801  UDP801     -0.5169
     20  O2A        3.4110   16.2950   -0.4230 O.3   801  UDP801     -0.4370
     21  O3A        3.3690   18.8820   -0.2670 O.3   801  UDP801     -0.2261
     22  PB         3.5390   20.4930   -0.4110 P.3   801  UDP801      0.5373
     23  O1B        3.0580   20.9570    0.9270 O.3   801  UDP801     -0.1143
     24  O2B        2.6190   20.8880   -1.5060 O.2   801  UDP801     -0.2221
     25  O3B        4.9610   20.8760   -0.6240 O.3   801  UDP801     -0.1143
@<TRIPOS>BOND
     1     7     2    2
     2    14    13    1
     3    14     9    1
     4    15    12    1
     5    13    16    1
     6    13    12    1
     7     2     3    2
     8     2     1   am
     9     9     1    1
    10     9    10    1
    11     3     4    2
    12     1     6    1
    13    16    17    1
    14    12    10    1
    15     4     8    2
    16     4     5    1
    17     6     5    2
    18    10    11    1
    19    17    18    1
    20    24    22    2
    21    19    18    2
    22    18    20    1
    23    18    21    1
    24    25    22    1
    25    22    21    1
    26    22    23    1
