@<TRIPOS>MOLECULE
2iey_GDP_A_1.pdb
 28 30 0 0 0
SMALL
GASTEIGER

@<TRIPOS>ATOM
      1  PB        25.7880  -16.6360   -9.8410 P.3   200  GDP200      0.5373
      2  O1B       27.2690  -16.3690   -9.6760 O.3   200  GDP200     -0.1143
      3  O2B       25.0220  -15.3490   -9.7180 O.3   200  GDP200     -0.1143
      4  O3B       25.5000  -17.2150  -11.2110 O.2   200  GDP200     -0.2221
      5  O3A       25.2970  -17.6530   -8.6980 O.3   200  GDP200     -0.2261
      6  PA        23.7380  -18.0270   -8.5570 P.3   200  GDP200      0.2231
      7  O1A       22.9090  -17.5600   -9.7330 O.2   200  GDP200     -0.5169
      8  O2A       23.5800  -19.5180   -8.4000 O.3   200  GDP200     -0.4370
      9  O5'       23.3030  -17.2590   -7.2100 O.3   200  GDP200     -0.3111
     10  C5'       23.6570  -17.7720   -5.9180 C.3   200  GDP200      0.1813
     11  C4'       22.4520  -17.8190   -4.9820 C.3   200  GDP200      0.1799
     12  O4'       21.5720  -16.7380   -5.2840 O.3   200  GDP200     -0.3326
     13  C3'       21.6350  -19.0960   -5.1040 C.3   200  GDP200      0.2158
     14  O3'       21.4670  -19.7040   -3.8190 O.3   200  GDP200     -0.2175
     15  C2'       20.2920  -18.6670   -5.6500 C.3   200  GDP200      0.2310
     16  O2'       19.2440  -19.3800   -4.9950 O.3   200  GDP200     -0.2158
     17  C1'       20.2280  -17.1940   -5.3260 C.3   200  GDP200      0.2293
     18  N9        19.5250  -16.3610   -6.3150 N.pl3 200  GDP200     -0.2354
     19  C8        19.9560  -16.0360   -7.5410 C.3   200  GDP200      0.2246
     20  N7        19.0720  -15.2130   -8.1720 N.2   200  GDP200     -0.2322
     21  C5        18.0620  -15.0070   -7.3220 C.2   200  GDP200      0.2182
     22  C6        16.8020  -14.2470   -7.3280 C.1   200  GDP200      0.2372
     23  O6        16.4640  -13.5830   -8.3360 O.2   200  GDP200     -0.2069
     24  N1        16.0370  -14.2910   -6.2280 N.2   200  GDP200     -0.2485
     25  C2        16.3850  -15.0030   -5.1400 C.1   200  GDP200      0.2531
     26  N2        15.5890  -15.0270   -4.0490 N.pl3 200  GDP200     -0.0226
     27  N3        17.5260  -15.7190   -5.0730 N.2   200  GDP200     -0.3074
     28  C4        18.3760  -15.7540   -6.1060 C.2   200  GDP200      0.2300
@<TRIPOS>BOND
     1     4     1    2
     2     1     3    1
     3     1     2    1
     4     1     5    1
     5     7     6    2
     6     5     6    1
     7     6     8    1
     8     6     9    1
     9    23    22    2
    10    20    19    1
    11    20    21    2
    12    19    18    1
    13    22    21    1
    14    22    24    2
    15    21    28    1
    16     9    10    1
    17    18    28    1
    18    18    17    1
    19    24    25    2
    20    28    27    2
    21    10    11    1
    22    15    17    1
    23    15    13    1
    24    15    16    1
    25    17    12    1
    26    12    11    1
    27    25    27    2
    28    25    26    1
    29    13    11    1
    30    13    14    1
