@<TRIPOS>MOLECULE
2iez_GDP_A_1.pdb
 28 30 0 0 0
SMALL
GASTEIGER

@<TRIPOS>ATOM
      1  PB       -36.5220  -55.7060   25.3990 P.3   2001  GDP2001     0.5373
      2  O1B      -37.8770  -55.0440   25.4770 O.3   2001  GDP2001    -0.1143
      3  O2B      -35.5060  -54.8000   24.7360 O.2   2001  GDP2001    -0.2221
      4  O3B      -36.0540  -55.9840   26.7980 O.3   2001  GDP2001    -0.1143
      5  O3A      -36.5960  -57.0860   24.5690 O.3   2001  GDP2001    -0.2261
      6  PA       -37.0700  -58.4650   25.2480 P.3   2001  GDP2001     0.2231
      7  O1A      -36.1280  -58.9210   26.3350 O.3   2001  GDP2001    -0.4370
      8  O2A      -38.4540  -58.2760   25.8170 O.2   2001  GDP2001    -0.5169
      9  O5'      -37.0720  -59.5010   24.0200 O.3   2001  GDP2001    -0.3111
     10  C5'      -38.3000  -59.9430   23.4470 C.3   2001  GDP2001     0.1813
     11  C4'      -38.1280  -61.3060   22.7820 C.3   2001  GDP2001     0.1799
     12  O4'      -36.8530  -61.3830   22.1450 O.3   2001  GDP2001    -0.3326
     13  C3'      -38.2070  -62.4450   23.7940 C.3   2001  GDP2001     0.2158
     14  O3'      -39.4100  -63.2040   23.6110 O.3   2001  GDP2001    -0.2175
     15  C2'      -36.9800  -63.3010   23.5520 C.3   2001  GDP2001     0.2310
     16  O2'      -37.3440  -64.6560   23.2610 O.3   2001  GDP2001    -0.2158
     17  C1'      -36.2930  -62.6780   22.3450 C.3   2001  GDP2001     0.2293
     18  N9       -34.8340  -62.5520   22.5710 N.pl3 2001  GDP2001    -0.2354
     19  C8       -34.2350  -61.6370   23.3590 C.3   2001  GDP2001     0.2246
     20  N7       -32.8850  -61.7850   23.3520 N.2   2001  GDP2001    -0.2322
     21  C5       -32.6020  -62.8230   22.5400 C.2   2001  GDP2001     0.2182
     22  C6       -31.3730  -63.5140   22.0850 C.1   2001  GDP2001     0.2372
     23  O6       -30.2450  -63.1380   22.4720 O.2   2001  GDP2001    -0.2069
     24  N1       -31.5100  -64.5430   21.2410 N.2   2001  GDP2001    -0.2485
     25  C2       -32.7140  -64.9620   20.8050 C.1   2001  GDP2001     0.2531
     26  N2       -32.7730  -66.0110   19.9570 N.pl3 2001  GDP2001    -0.0226
     27  N3       -33.8810  -64.3770   21.1780 N.2   2001  GDP2001    -0.3074
     28  C4       -33.8890  -63.3230   22.0290 C.2   2001  GDP2001     0.2300
@<TRIPOS>BOND
     1    26    25    1
     2    25    27    2
     3    25    24    2
     4    27    28    2
     5    24    22    2
     6    28    21    1
     7    28    18    1
     8    22    23    2
     9    22    21    1
    10    12    17    1
    11    12    11    1
    12    17    18    1
    13    17    15    1
    14    21    20    2
    15    18    19    1
    16    11    10    1
    17    11    13    1
    18    16    15    1
    19    20    19    1
    20    10     9    1
    21    15    13    1
    22    14    13    1
    23     9     6    1
    24     5     6    1
    25     5     1    1
    26     3     1    2
    27     6     8    2
    28     6     7    1
    29     1     2    1
    30     1     4    1
