@<TRIPOS>MOLECULE
2if0_GDP_A_1.pdb
 28 30 0 0 0
SMALL
GASTEIGER

@<TRIPOS>ATOM
      1  PB         8.0780   32.0960  -24.2300 P.3   501  GDP501      0.5373
      2  O1B        8.3950   32.0670  -25.7070 O.2   501  GDP501     -0.2221
      3  O2B        6.8890   31.2290  -23.9080 O.3   501  GDP501     -0.1143
      4  O3B        9.3100   31.6380  -23.4920 O.3   501  GDP501     -0.1143
      5  O3A        7.6840   33.5650  -23.7060 O.3   501  GDP501     -0.2261
      6  PA         7.6100   34.8610  -24.6540 P.3   501  GDP501      0.2231
      7  O1A        8.8590   35.0130  -25.4830 O.3   501  GDP501     -0.4370
      8  O2A        6.3670   34.8350  -25.5080 O.2   501  GDP501     -0.5169
      9  O5'        7.5450   36.0410  -23.5810 O.3   501  GDP501     -0.3111
     10  C5'        6.4940   36.0630  -22.6120 C.3   501  GDP501      0.1813
     11  C4'        6.1970   37.5220  -22.2920 C.3   501  GDP501      0.1799
     12  O4'        7.3040   38.1040  -21.5870 O.3   501  GDP501     -0.3326
     13  C3'        6.0080   38.3080  -23.5890 C.3   501  GDP501      0.2158
     14  O3'        4.8330   39.1130  -23.4810 O.3   501  GDP501     -0.2175
     15  C2'        7.2470   39.1690  -23.7200 C.3   501  GDP501      0.2310
     16  O2'        6.9600   40.4650  -24.2450 O.3   501  GDP501     -0.2158
     17  C1'        7.7790   39.2530  -22.2980 C.3   501  GDP501      0.2293
     18  N9         9.2550   39.2670  -22.3110 N.pl3 501  GDP501     -0.2354
     19  C8        10.0600   38.3850  -22.9250 C.3   501  GDP501      0.2246
     20  N7        11.3620   38.7110  -22.7300 N.2   501  GDP501     -0.2322
     21  C5        11.3990   39.8230  -21.9780 C.2   501  GDP501      0.2182
     22  C6        12.4480   40.6970  -21.4040 C.1   501  GDP501      0.2372
     23  O6        13.6610   40.4510  -21.5920 O.2   501  GDP501     -0.2069
     24  N1        12.0550   41.7590  -20.6820 N.2   501  GDP501     -0.2485
     25  C2        10.7560   42.0480  -20.4660 C.1   501  GDP501      0.2531
     26  N2        10.4320   43.1320  -19.7200 N.pl3 501  GDP501     -0.0226
     27  N3         9.7470   41.2870  -20.9630 N.2   501  GDP501     -0.3074
     28  C4        10.0040   40.1860  -21.7080 C.2   501  GDP501      0.2300
@<TRIPOS>BOND
     1     2     1    2
     2     8     6    2
     3     7     6    1
     4     6     5    1
     5     6     9    1
     6    16    15    1
     7     1     3    1
     8     1     5    1
     9     1     4    1
    10    15    13    1
    11    15    17    1
    12    13    14    1
    13    13    11    1
    14     9    10    1
    15    19    20    1
    16    19    18    1
    17    20    21    2
    18    10    11    1
    19    18    17    1
    20    18    28    1
    21    17    12    1
    22    11    12    1
    23    21    28    1
    24    21    22    1
    25    28    27    2
    26    23    22    2
    27    22    24    2
    28    27    25    2
    29    24    25    2
    30    25    26    1
