@<TRIPOS>MOLECULE
2if8_ADP_A_1.pdb
 27 29 0 0 0
SMALL
GASTEIGER

@<TRIPOS>ATOM
      1  PB        25.1440   68.1890   48.4630 P.3   401  ADP401      0.5373
      2  O1B       24.3280   68.7070   49.6430 O.3   401  ADP401     -0.1143
      3  O2B       24.8380   66.7340   48.1640 O.2   401  ADP401     -0.2221
      4  O3B       26.6380   68.4790   48.5570 O.3   401  ADP401     -0.1143
      5  PA        24.9640   70.3090   46.3420 P.3   401  ADP401      0.2231
      6  O1A       23.8530   71.3160   46.5380 O.2   401  ADP401     -0.5169
      7  O2A       26.4000   70.7210   46.6070 O.3   401  ADP401     -0.4370
      8  O3A       24.5710   68.9130   47.1060 O.3   401  ADP401     -0.2261
      9  O5'       24.9520   69.8430   44.8070 O.3   401  ADP401     -0.3111
     10  C5'       26.1910   69.6090   44.1340 C.3   401  ADP401      0.1813
     11  C4'       26.0330   69.9280   42.6530 C.3   401  ADP401      0.1821
     12  O4'       24.6580   69.8120   42.2270 O.3   401  ADP401     -0.3135
     13  C3'       26.4760   71.3470   42.3230 C.3   401  ADP401      0.2184
     14  O3'       27.8810   71.4310   42.0430 O.3   401  ADP401     -0.2174
     15  C2'       25.5910   71.7250   41.1360 C.3   401  ADP401      0.2570
     16  O2'       26.2270   71.4730   39.8690 O.3   401  ADP401     -0.2130
     17  C1'       24.3460   70.8440   41.2730 C.3   401  ADP401      0.3186
     18  N9        23.1590   71.6680   41.6750 N.pl3 401  ADP401     -0.1439
     19  C8        22.6430   71.8200   42.9160 C.3   401  ADP401      0.3377
     20  N7        21.5620   72.6390   42.9230 N.2   401  ADP401     -0.2095
     21  C5        21.3660   73.0300   41.6550 C.2   401  ADP401      0.2526
     22  C6        20.3940   73.8900   40.9400 C.2   401  ADP401      0.4393
     23  N6        19.4040   74.5180   41.6040 N.pl3 401  ADP401      0.2180
     24  N1        20.5370   74.0260   39.5980 N.2   401  ADP401      0.0021
     25  C2        21.5260   73.4060   38.9130 C.3   401  ADP401      0.5254
     26  N3        22.4460   72.6080   39.4890 N.2   401  ADP401     -0.0055
     27  C4        22.4160   72.3880   40.8330 C.2   401  ADP401      0.3518
@<TRIPOS>BOND
     1    25    26    1
     2    25    24    1
     3    26    27    2
     4    24    22    2
     5    16    15    1
     6    27    21    1
     7    27    18    1
     8    22    23    1
     9    22    21    1
    10    15    17    1
    11    15    13    1
    12    17    18    1
    13    17    12    1
    14    21    20    2
    15    18    19    1
    16    14    13    1
    17    12    11    1
    18    13    11    1
    19    11    10    1
    20    19    20    1
    21    10     9    1
    22     9     5    1
    23     5     6    2
    24     5     7    1
    25     5     8    1
    26     8     1    1
    27     3     1    2
    28     1     4    1
    29     1     2    1
