@<TRIPOS>MOLECULE
2ifa_FMN_A_1.pdb
 31 33 0 0 0
SMALL
GASTEIGER

@<TRIPOS>ATOM
      1  N1         7.1140   38.1980   57.6000 N.2   501  FMN501     -0.2887
      2  C2         7.0430   39.3690   58.3550 C.1   501  FMN501      0.3669
      3  O2         7.1430   39.3870   59.5670 O.2   501  FMN501     -0.1744
      4  N3         6.8500   40.5780   57.5950 N.2   501  FMN501     -0.2300
      5  C4         6.7390   40.7010   56.1670 C.1   501  FMN501      0.2513
      6  O4         6.5850   41.7920   55.6580 O.2   501  FMN501     -0.2057
      7  C4A        6.8400   39.5010   55.4510 C.2   501  FMN501      0.2703
      8  N5         6.7960   39.3820   54.0700 N.2   501  FMN501     -0.3882
      9  C5A        6.9130   38.2910   53.2240 C.2   501  FMN501      0.1277
     10  C6         6.8620   38.4500   51.7380 C.3   501  FMN501      0.0820
     11  C7         7.0320   37.2470   50.8860 C.2   501  FMN501     -0.0408
     12  C7M        6.9880   37.4630   49.3750 C.3   501  FMN501      0.0265
     13  C8         7.2410   35.8980   51.5460 C.2   501  FMN501     -0.0280
     14  C8M        7.4570   34.5400   50.8060 C.3   501  FMN501      0.0304
     15  C9         7.2590   35.8270   53.0120 C.2   501  FMN501      0.0123
     16  C9A        7.1020   37.0050   53.8780 C.2   501  FMN501      0.0793
     17  N10        7.1300   37.0610   55.3590 N.pl3 501  FMN501     -0.2545
     18  C10        7.0260   38.2330   56.2110 C.2   501  FMN501      0.2449
     19  C1'        7.3140   35.7010   56.0810 C.3   501  FMN501      0.1336
     20  C2'        6.0030   34.8390   56.1230 C.3   501  FMN501      0.2048
     21  O2'        4.9440   35.4530   56.8520 O.3   501  FMN501     -0.2185
     22  C3'        6.2960   33.4860   56.7470 C.3   501  FMN501      0.2165
     23  O3'        7.3310   32.9150   55.9490 O.3   501  FMN501     -0.2175
     24  C4'        5.0800   32.4860   56.7040 C.3   501  FMN501      0.2147
     25  O4'        4.0650   32.7840   57.6720 O.3   501  FMN501     -0.2176
     26  C5'        5.4710   31.0710   56.9860 C.3   501  FMN501      0.1892
     27  O5'        6.1420   30.9740   58.1620 O.3   501  FMN501     -0.2674
     28  P          7.5960   30.4310   58.2110 P.3   501  FMN501      0.5327
     29  O1P        7.6020   29.1540   57.5530 O.3   501  FMN501     -0.1145
     30  O2P        8.4310   31.4410   57.5430 O.2   501  FMN501     -0.2224
     31  O3P        7.8140   30.4050   59.6020 O.3   501  FMN501     -0.1145
@<TRIPOS>BOND
     1    12    11    1
     2    14    13    1
     3    11    13    2
     4    11    10    1
     5    13    15    1
     6    10     9    1
     7    15    16    2
     8     9    16    1
     9     9     8    2
    10    16    17    1
    11     8     7    2
    12    17    19    1
    13    17    18    1
    14     7     5    1
    15     7    18    1
    16     6     5    2
    17    23    22    1
    18    19    20    1
    19    20    22    1
    20    20    21    1
    21     5     4    2
    22    18     1    2
    23    24    22    1
    24    24    26    1
    25    24    25    1
    26    26    27    1
    27    30    28    2
    28    29    28    1
    29     4     2    2
    30     1     2    2
    31    27    28    1
    32    28    31    1
    33     2     3    2
