@<TRIPOS>MOLECULE
2ifb_PLM_A_1.pdb
 18 17 0 0 0
SMALL
GASTEIGER

@<TRIPOS>ATOM
      1  C1        18.8030    5.4620    7.6090 C.2   133  PLM133      0.3649
      2  O1        17.9020    4.6540    7.7630 O.co2 133  PLM133     -0.2457
      3  O2        18.6630    6.6120    6.9800 O.co2 133  PLM133     -0.2457
      4  C2        20.2170    5.2060    8.1100 C.3   133  PLM133      0.1141
      5  C3        20.2340    4.9100    9.5940 C.3   133  PLM133      0.0118
      6  C4        20.2980    6.1910   10.4240 C.3   133  PLM133      0.0006
      7  C5        19.7850    5.9060   11.8170 C.3   133  PLM133      0.0000
      8  C6        20.7240    6.4750   12.8570 C.3   133  PLM133      0.0000
      9  C7        21.1350    7.9030   12.5690 C.3   133  PLM133      0.0000
     10  C8        21.8350    8.4720   13.7990 C.3   133  PLM133      0.0000
     11  C9        22.4270    9.8610   13.6440 C.3   133  PLM133      0.0000
     12  CA        23.2060   10.2700   14.8950 C.3   133  PLM133      0.0000
     13  CB        23.8190   11.6650   14.8740 C.3   133  PLM133      0.0000
     14  CC        24.9500   11.8350   13.8770 C.3   133  PLM133      0.0000
     15  CD        26.0980   12.7170   14.3500 C.3   133  PLM133      0.0000
     16  CE        27.0700   13.1150   13.2420 C.3   133  PLM133      0.0000
     17  CF        28.4970   12.6550   13.5070 C.3   133  PLM133      0.0000
     18  CG        29.5550   13.5990   12.9420 C.3   133  PLM133      0.0000
@<TRIPOS>BOND
     1     3     1   ar
     2     1     2   ar
     3     1     4    1
     4     4     5    1
     5     5     6    1
     6     6     7    1
     7     7     8    1
     8     9     8    1
     9     9    10    1
    10    18    17    1
    11    16    17    1
    12    16    15    1
    13    11    10    1
    14    11    12    1
    15    14    15    1
    16    14    13    1
    17    13    12    1
