@<TRIPOS>MOLECULE
2ig0_III_B_1.pdb
 21 20 0 0 0
SMALL
GASTEIGER

@<TRIPOS>ATOM
      1  N         -4.9300    4.1320    5.9880 N.3    19  ARG19      -0.1231
      2  CA        -6.0990    3.4530    5.3870 C.3    19  ARG19       0.1694
      3  C         -7.2950    3.5310    6.3620 C.2    19  ARG19       0.2588
      4  O         -8.4690    3.4320    5.9510 O.2    19  ARG19      -0.2718
      5  CB        -5.7490    1.9960    5.0130 C.3    19  ARG19       0.0321
      6  CG        -5.5250    1.7310    3.5050 C.3    19  ARG19       0.0489
      7  CD        -4.0690    1.3890    3.0440 C.3    19  ARG19       0.2205
      8  NE        -3.4000    2.5110    2.4050 N.pl3  19  ARG19      -0.0865
      9  CZ        -2.6450    3.3960    3.0430 C.cat  19  ARG19       0.5346
     10  NH1       -2.4380    3.2890    4.3420 N.pl3  19  ARG19       0.1354
     11  NH2       -2.0910    4.3890    2.3770 N.pl3  19  ARG19       0.1354
     12  N         -6.9720    3.7130    7.6470 N.am   20  LYS20      -0.2060
     13  CA        -7.9450    4.0070    8.7020 C.3    20  LYS20       0.0954
     14  CB        -7.5630    3.4330   10.0900 C.3    20  LYS20       0.0217
     15  CG        -6.1900    2.7670   10.3190 C.3    20  LYS20       0.0032
     16  CD        -6.3480    1.2670   10.5850 C.3    20  LYS20       0.0174
     17  CE        -5.8520    0.6090   11.8910 C.3    20  LYS20       0.0722
     18  NZ        -4.3720    0.3200   11.9920 N.3    20  LYS20      -0.2703
     19  CH1       -4.0880   -1.0080   12.5690 C.3    20  LYS20       0.0897
     20  CH2       -3.6150    0.4990   10.7400 C.3    20  LYS20       0.0897
     21  C         -8.1640    5.5010    8.8060 C.3    20  LYS20       0.0234
@<TRIPOS>BOND
     1    11     9    1
     2     8     9    2
     3     8     7    1
     4     9    10    1
     5     7     6    1
     6     6     5    1
     7     5     2    1
     8     2     1    1
     9     2     3    1
    10     4     3    2
    11     3    12   am
    12    12    13    1
    13    13    21    1
    14    13    14    1
    15    14    15    1
    16    15    16    1
    17    16    17    1
    18    20    18    1
    19    17    18    1
    20    18    19    1
