@<TRIPOS>MOLECULE
2ig3_HEM_A_1.pdb
 43 50 0 0 0
SMALL
GASTEIGER

@<TRIPOS>ATOM
      1  CHA      -10.3630  -38.0310  -13.3460 C.2   700  HEM700      0.0000
      2  CHB       -5.6240  -38.9910  -13.4740 C.2   700  HEM700      0.0000
      3  CHC       -4.9240  -36.7440   -9.2250 C.2   700  HEM700      0.0000
      4  CHD       -9.5430  -35.2670   -9.3530 C.2   700  HEM700      0.0000
      5  C1A       -9.1320  -38.4670  -13.7950 C.ar  700  HEM700      0.0000
      6  C2A       -8.8420  -39.1410  -15.0440 C.ar  700  HEM700      0.0000
      7  C3A       -7.5250  -39.3980  -15.0640 C.ar  700  HEM700      0.0000
      8  C4A       -6.9430  -38.9060  -13.8330 C.ar  700  HEM700      0.0000
      9  CMA       -6.7190  -40.1050  -16.1720 C.3   700  HEM700      0.0000
     10  CAA       -9.8850  -39.4940  -16.1380 C.3   700  HEM700      0.0000
     11  CBA      -10.6550  -40.7270  -15.6490 C.3   700  HEM700      0.0000
     12  CGA      -11.3410  -41.4750  -16.7640 C.2   700  HEM700      0.0000
     13  O1A      -11.4200  -42.7350  -16.6720 O.co2 700  HEM700      0.0000
     14  O2A      -11.8180  -40.8300  -17.7340 O.co2 700  HEM700      0.0000
     15  C1B       -5.0400  -38.4870  -12.3370 C.2   700  HEM700      0.0000
     16  C2B       -3.6430  -38.6050  -11.9990 C.2   700  HEM700      0.0000
     17  C3B       -3.4580  -37.9810  -10.8240 C.2   700  HEM700      0.0000
     18  C4B       -4.7220  -37.4540  -10.3840 C.2   700  HEM700      0.0000
     19  CMB       -2.5760  -39.3260  -12.8670 C.3   700  HEM700      0.0000
     20  CAB       -2.1500  -37.7930  -10.0310 C.2   700  HEM700      0.0000
     21  CBB       -1.1500  -38.6710  -10.0970 C.2   700  HEM700      0.0000
     22  C1C       -6.1010  -36.1110   -8.8950 C.ar  700  HEM700      0.0000
     23  C2C       -6.3070  -35.2610   -7.7380 C.ar  700  HEM700      0.0000
     24  C3C       -7.5840  -34.8430   -7.7840 C.ar  700  HEM700      0.0000
     25  C4C       -8.2260  -35.4350   -8.9520 C.ar  700  HEM700      0.0000
     26  CMC       -5.2040  -34.9480   -6.6960 C.3   700  HEM700      0.0000
     27  CAC       -8.3160  -33.9310   -6.7810 C.2   700  HEM700      0.0000
     28  CBC       -7.6950  -32.9410   -6.1240 C.2   700  HEM700      0.0000
     29  C1D      -10.2080  -35.9340  -10.3650 C.2   700  HEM700      0.0000
     30  C2D      -11.6400  -35.9680  -10.5620 C.2   700  HEM700      0.0000
     31  C3D      -11.8770  -36.8370  -11.7910 C.2   700  HEM700      0.0000
     32  C4D      -10.5840  -37.2410  -12.2370 C.2   700  HEM700      0.0000
     33  CMD      -12.7440  -35.2960   -9.7220 C.3   700  HEM700      0.0000
     34  CAD      -13.2290  -37.1950  -12.4440 C.3   700  HEM700      0.0000
     35  CBD      -13.6790  -38.5770  -11.9900 C.3   700  HEM700      0.0000
     36  CGD      -15.0360  -38.8120  -12.6120 C.2   700  HEM700      0.0000
     37  O1D      -15.1190  -39.0320  -13.8480 O.co2 700  HEM700      0.0000
     38  O2D      -16.0440  -38.7680  -11.8810 O.co2 700  HEM700      0.0000
     39  NA        -7.9540  -38.3490  -13.0840 N.ar  700  HEM700      0.0000
     40  NB        -5.6850  -37.7820  -11.3280 N.2   700  HEM700      0.0000
     41  NC        -7.2840  -36.1820   -9.6090 N.ar  700  HEM700      0.0000
     42  ND        -9.6180  -36.6990  -11.3720 N.2   700  HEM700      0.0000
     43 FE         -7.6390  -37.2460  -11.3890 Fe    700  HEM700      0.0000
@<TRIPOS>BOND
     1    14    12   ar
     2    12    13   ar
     3    12    11    1
     4     9     7    1
     5    10    11    1
     6    10     6    1
     7     7     6   ar
     8     7     8   ar
     9     6     5   ar
    10    37    36   ar
    11     8     2    2
    12     8    39   ar
    13     5     1    2
    14     5    39   ar
    15     2    15    1
    16     1    32    1
    17    39    43    1
    18    19    16    1
    19    36    35    1
    20    36    38   ar
    21    34    35    1
    22    34    31    1
    23    15    16    1
    24    15    40    2
    25    32    31    1
    26    32    42    2
    27    16    17    2
    28    31    30    2
    29    43    42    1
    30    43    40    1
    31    43    41    1
    32    42    29    1
    33    40    18    1
    34    17    18    1
    35    17    20    1
    36    30    29    1
    37    30    33    1
    38    18     3    2
    39    29     4    2
    40    21    20    2
    41    41    25   ar
    42    41    22   ar
    43     4    25    1
    44     3    22    1
    45    25    24   ar
    46    22    23   ar
    47    24    23   ar
    48    24    27    1
    49    23    26    1
    50    27    28    2
