@<TRIPOS>MOLECULE
2ig6_FMN_A_1.pdb
 31 33 0 0 0
SMALL
GASTEIGER

@<TRIPOS>ATOM
      1  N1        37.0950   49.3890   25.7270 N.2   339  FMN339     -0.2890
      2  C2        36.8550   50.3260   26.7170 C.1   339  FMN339      0.3669
      3  O2        37.7780   50.6310   27.4570 O.2   339  FMN339     -0.1744
      4  N3        35.6130   50.9130   26.8330 N.2   339  FMN339     -0.2300
      5  C4        34.5620   50.5390   26.0230 C.1   339  FMN339      0.2513
      6  O4        33.5130   51.1860   26.0130 O.2   339  FMN339     -0.2057
      7  C4A       34.8010   49.5930   25.0190 C.2   339  FMN339      0.2700
      8  N5        33.7650   49.1920   24.1870 N.2   339  FMN339     -0.3878
      9  C5A       34.0210   48.2800   23.1800 C.2   339  FMN339      0.1320
     10  C6        32.9890   47.9060   22.3200 C.2   339  FMN339      0.0250
     11  C7        33.2400   46.9910   21.3090 C.2   339  FMN339     -0.0238
     12  C7M       32.0920   46.5610   20.4510 C.3   339  FMN339      0.0308
     13  C8        34.5210   46.4500   21.1660 C.2   339  FMN339     -0.0280
     14  C8M       34.8860   45.5950   19.9850 C.3   339  FMN339      0.0304
     15  C9        35.5450   46.7960   22.0220 C.2   339  FMN339     -0.0041
     16  C9A       35.2970   47.7420   23.0410 C.3   339  FMN339      0.1497
     17  N10       36.3230   48.1090   23.8930 N.pl3 339  FMN339     -0.2691
     18  C10       36.0630   49.0370   24.8940 C.2   339  FMN339      0.2416
     19  C1'       37.6800   47.4680   23.8940 C.3   339  FMN339      0.1294
     20  C2'       38.7050   48.3710   23.1960 C.3   339  FMN339      0.2044
     21  O2'       38.3920   48.5650   21.8120 O.3   339  FMN339     -0.2185
     22  C3'       40.0700   47.7260   23.3610 C.3   339  FMN339      0.2164
     23  O3'       40.3350   47.4280   24.7340 O.3   339  FMN339     -0.2175
     24  C4'       41.1870   48.5950   22.7860 C.3   339  FMN339      0.2147
     25  O4'       42.3150   47.7700   22.6170 O.3   339  FMN339     -0.2176
     26  C5'       41.5660   49.7350   23.7320 C.3   339  FMN339      0.1892
     27  O5'       42.3850   50.7220   23.1140 O.3   339  FMN339     -0.2674
     28  P         43.9790   50.6600   23.3230 P.3   339  FMN339      0.5327
     29  O1P       44.6340   51.7740   22.5960 O.2   339  FMN339     -0.2224
     30  O2P       44.4360   49.3200   22.7930 O.3   339  FMN339     -0.1145
     31  O3P       44.2980   50.7250   24.8030 O.3   339  FMN339     -0.1145
@<TRIPOS>BOND
     1    14    13    1
     2    12    11    1
     3    13    11    1
     4    13    15    2
     5    11    10    2
     6    21    20    1
     7    15    16    1
     8    10     9    1
     9    29    28    2
    10    25    24    1
    11    24    22    1
    12    24    26    1
    13    30    28    1
    14    16     9    1
    15    16    17    1
    16    27    28    1
    17    27    26    1
    18     9     8    2
    19    20    22    1
    20    20    19    1
    21    28    31    1
    22    22    23    1
    23    17    19    1
    24    17    18    1
    25     8     7    2
    26    18     7    1
    27    18     1    2
    28     7     5    1
    29     1     2    2
    30     6     5    2
    31     5     4    2
    32     2     4    2
    33     2     3    2
