@<TRIPOS>MOLECULE
2iga_XXP_A_1.pdb
 13 13 0 0 0
SMALL
GASTEIGER

@<TRIPOS>ATOM
      1  O8         1.6060  -26.2040   11.5580 O.2   600  XXP600     -0.1260
      2  N7         1.8630  -26.9130   10.3220 N.pl3 600  XXP600      0.0608
      3  O9         1.0950  -27.7410    9.7990 O.2   600  XXP600     -0.1260
      4  C5         3.0130  -26.6740    9.7580 C.2   600  XXP600      0.1800
      5  C6         3.5490  -25.5900   10.3930 C.2   600  XXP600      0.2042
      6  O10        4.7110  -24.9700   10.1850 O.2   600  XXP600     -0.4037
      7  C4         3.4290  -27.6010    8.6400 C.2   600  XXP600      0.0306
      8  C3         4.6170  -27.8560    8.0540 C.2   600  XXP600      0.0513
      9  C2         5.8700  -27.1680    8.4470 C.2   600  XXP600      0.2996
     10  O11        6.9470  -27.7500    8.3600 O.2   600  XXP600     -0.2790
     11  C1         5.8100  -25.7550    8.8940 C.3   600  XXP600      0.5554
     12  O12        4.9670  -24.9960    8.3200 O.2   600  XXP600     -0.2237
     13  O13        6.5820  -25.3520    9.8130 O.2   600  XXP600     -0.2237
@<TRIPOS>BOND
     1     8     9    1
     2     8     7    2
     3    12    11    1
     4    10     9    2
     5     9    11    1
     6     7     4    1
     7    11    13    1
     8    11     6    1
     9     4     2    1
    10     4     5    2
    11     3     2    2
    12     6     5    1
    13     2     1    2
