@<TRIPOS>MOLECULE
2iga_XX3_B_1.pdb
 13 13 0 0 0
SMALL
GASTEIGER

@<TRIPOS>ATOM
      1  O8        17.4520  -55.1260   -3.1190 O.3   600  XX3600     -0.1791
      2  C2        18.3640  -54.0850   -3.4740 C.3   600  XX3600      0.3265
      3  O12       18.2850  -53.8680   -4.8830 O.3   600  XX3600     -0.1509
      4  O13       17.0240  -53.1800   -5.4060 O.3   600  XX3600     -0.0315
      5  C1        18.0640  -52.7300   -2.8160 C.2   600  XX3600      0.2335
      6  O7        16.8740  -52.4370   -2.4430 O.2   600  XX3600     -0.2857
      7  C6        19.1380  -51.8890   -2.4880 C.2   600  XX3600      0.0447
      8  C5        20.3290  -52.5210   -2.0860 C.2   600  XX3600      0.0270
      9  C3        19.6190  -54.6430   -3.0630 C.2   600  XX3600      0.0663
     10  C4        20.5150  -53.9140   -2.2690 C.2   600  XX3600      0.1440
     11  N9        21.5370  -54.5940   -1.6530 N.pl3 600  XX3600      0.0575
     12  O10       21.4890  -56.0470   -1.3760 O.2   600  XX3600     -0.1261
     13  O11       22.4860  -53.8810   -1.2550 O.2   600  XX3600     -0.1261
@<TRIPOS>BOND
     1     4     3    1
     2     3     2    1
     3     2     1    1
     4     2     9    1
     5     2     5    1
     6     9    10    2
     7     5     7    1
     8     5     6    2
     9     7     8    2
    10    10     8    1
    11    10    11    1
    12    11    12    2
    13    11    13    2
