@<TRIPOS>MOLECULE
2iga_XX2_C_1.pdb
 11 11 0 0 0
SMALL
GASTEIGER

@<TRIPOS>ATOM
      1  O11        6.0110  -36.3770   36.5410 O.2   601  XX2601     -0.1261
      2  N9         4.7790  -36.6550   36.6780 N.pl3 601  XX2601      0.0574
      3  O10        3.7740  -35.5970   36.5630 O.2   601  XX2601     -0.1261
      4  C4         4.4110  -37.9560   36.7970 C.2   601  XX2601      0.1416
      5  C3         3.0310  -38.2190   36.9140 C.2   601  XX2601      0.0381
      6  C2         2.5450  -39.5800   36.7300 C.3   601  XX2601      0.2366
      7  O8         1.2150  -39.7040   36.2650 O.3   601  XX2601     -0.2098
      8  C5         5.3360  -39.0100   36.7240 C.2   601  XX2601      0.0269
      9  C6         4.9460  -40.3370   36.4370 C.2   601  XX2601      0.0421
     10  C1         3.5810  -40.6310   36.3660 C.2   601  XX2601      0.2076
     11  O7         3.1980  -41.8120   36.1160 O.2   601  XX2601     -0.2883
@<TRIPOS>BOND
     1    11    10    2
     2     7     6    1
     3    10     9    1
     4    10     6    1
     5     9     8    2
     6     1     2    2
     7     3     2    2
     8     2     4    1
     9     8     4    1
    10     6     5    1
    11     4     5    2
