@<TRIPOS>MOLECULE
2igb_U5P_A_1.pdb
 21 22 0 0 0
SMALL
GASTEIGER

@<TRIPOS>ATOM
      1  N1        10.6900   35.1810   19.6120 N.am  351  U5P351     -0.1766
      2  C2        11.0130   34.1390   20.5490 C.1   351  U5P351      0.2845
      3  N3        11.8170   34.3110   21.6410 N.2   351  U5P351     -0.2452
      4  C4        12.3160   35.5260   21.8190 C.1   351  U5P351      0.2182
      5  C5        12.0530   36.5780   20.9170 C.2   351  U5P351      0.1242
      6  C6        11.2310   36.4030   19.8120 C.2   351  U5P351      0.0929
      7  O2        10.5480   33.0010   20.4480 O.2   351  U5P351     -0.1918
      8  O4        13.0550   35.7400   22.7880 O.2   351  U5P351     -0.2085
      9  C1'        9.7770   34.9850   18.4210 C.3   351  U5P351      0.2401
     10  C2'        8.3530   34.5750   18.8130 C.3   351  U5P351      0.2319
     11  O2'        8.0840   33.2360   18.4070 O.3   351  U5P351     -0.2157
     12  C3'        7.3750   35.5610   18.1710 C.3   351  U5P351      0.2158
     13  C4'        8.2730   36.6740   17.6590 C.3   351  U5P351      0.1801
     14  O3'        6.6210   35.1110   17.0340 O.3   351  U5P351     -0.2175
     15  O4'        9.6020   36.1140   17.5540 O.3   351  U5P351     -0.3320
     16  C5'        8.2350   37.8110   18.6900 C.3   351  U5P351      0.1859
     17  O5'        9.2850   38.7360   18.3840 O.3   351  U5P351     -0.2675
     18  P          8.8920   40.3030   18.1740 P.3   351  U5P351      0.5327
     19  O1P        7.8280   40.6440   19.2130 O.3   351  U5P351     -0.1145
     20  O2P       10.2620   40.9190   18.3440 O.3   351  U5P351     -0.1145
     21  O3P        8.3830   40.3880   16.7750 O.2   351  U5P351     -0.2224
@<TRIPOS>BOND
     1    21    18    2
     2    14    12    1
     3    15    13    1
     4    15     9    1
     5    13    12    1
     6    13    16    1
     7    12    10    1
     8    18    20    1
     9    18    17    1
    10    18    19    1
    11    17    16    1
    12    11    10    1
    13     9    10    1
    14     9     1    1
    15     1     6    1
    16     1     2   am
    17     6     5    2
    18     7     2    2
    19     2     3    2
    20     5     4    1
    21     3     4    2
    22     4     8    2
