@<TRIPOS>MOLECULE
2igc_MTN_A_1.pdb
 12 12 0 0 0
SMALL
GASTEIGER

@<TRIPOS>ATOM
      1  O1        -2.7010   18.0660   98.9480 O.3   200  MTN200     -0.1175
      2  N1        -1.8260   18.4950   98.2410 N.4   200  MTN200     -0.1311
      3  C1        -0.5240   18.9150   98.9300 C.3   200  MTN200      0.0909
      4  C2         0.2980   19.3640   97.7270 C.2   200  MTN200     -0.0160
      5  C3        -0.5300   19.1860   96.5050 C.2   200  MTN200     -0.0205
      6  C4         0.0950   19.5770   95.1640 C.3   200  MTN200      0.0917
      7  S1         0.0210   21.3400   94.7700 S.3   200  MTN200     -0.0773
      8  C5        -1.8730   18.6430   96.7970 C.3   200  MTN200      0.0886
      9  C6        -1.7960   17.3790   95.9730 C.3   200  MTN200      0.0227
     10  C7        -2.9400   19.6600   96.4660 C.3   200  MTN200      0.0227
     11  C8        -0.7370   20.1760   99.8180 C.3   200  MTN200      0.0230
     12  C9         0.1300   17.7300   99.7030 C.3   200  MTN200      0.0230
@<TRIPOS>BOND
     1     7     6    1
     2     6     5    1
     3     9     8    1
     4    10     8    1
     5     5     8    1
     6     5     4    2
     7     8     2    1
     8     4     3    1
     9     2     3    1
    10     2     1    1
    11     3    12    1
    12     3    11    1
