@<TRIPOS>MOLECULE
2igo_SHG_A_1.pdb
 12 12 0 0 0
SMALL
GASTEIGER

@<TRIPOS>ATOM
      1  C1         9.5680   12.6580  100.7260 C.2   801  SHG801      0.3528
      2  C2         8.9450   13.8460  101.4550 C.3   801  SHG801      0.2911
      3  C3         7.7900   14.5410  100.7370 C.3   801  SHG801      0.2292
      4  C4         7.6890   14.4280   99.2030 C.3   801  SHG801      0.2278
      5  C5         8.3660   13.2380   98.5520 C.3   801  SHG801      0.2344
      6  C6         8.7020   13.4140   97.0540 C.3   801  SHG801      0.2281
      7  O1        10.8620   12.3270  101.1770 O.2   801  SHG801     -0.2470
      8  O3         7.4190   15.8050  101.2600 O.3   801  SHG801     -0.2167
      9  O4         6.3840   14.7980   98.6820 O.3   801  SHG801     -0.2163
     10  O5         9.4230   12.5500   99.2840 O.3   801  SHG801     -0.4448
     11  O6         9.0000   12.1000   96.5940 O.3   801  SHG801     -0.2163
     12  F2         8.9180   13.7700  102.8370 F     801  SHG801     -0.2223
@<TRIPOS>BOND
     1    11     6    1
     2     6     5    1
     3     5     4    1
     4     5    10    1
     5     9     4    1
     6     4     3    1
     7    10     1    1
     8     1     7    2
     9     1     2    1
    10     3     8    1
    11     3     2    1
    12     2    12    1
