@<TRIPOS>MOLECULE
2igq_SAH_A_1.pdb
 26 28 0 0 0
SMALL
GASTEIGER

@<TRIPOS>ATOM
      1  N         63.5880   16.2490    6.4970 N.3   101  SAH101     -0.1208
      2  CA        64.9650   16.5660    7.0200 C.3   101  SAH101      0.1952
      3  CB        64.9420   17.5980    8.1710 C.3   101  SAH101      0.0422
      4  CG        65.0790   19.0770    7.7640 C.3   101  SAH101      0.0597
      5  SD        66.7490   19.6000    7.2480 S.3   101  SAH101     -0.1375
      6  C         65.7110   15.2830    7.3980 C.2   101  SAH101      0.3819
      7  O         66.8230   15.3310    7.9580 O.co2 101  SAH101     -0.2441
      8  OXT       65.1990   14.1810    7.1360 O.co2 101  SAH101     -0.2441
      9  C5'       66.2200   20.3060    5.6460 C.3   101  SAH101      0.0899
     10  C4'       66.1510   19.3450    4.4440 C.3   101  SAH101      0.1630
     11  O4'       64.9480   18.5810    4.4620 O.3   101  SAH101     -0.3153
     12  C3'       66.1520   20.0520    3.0840 C.3   101  SAH101      0.2168
     13  O3'       67.4430   20.2260    2.5290 O.3   101  SAH101     -0.2175
     14  C2'       65.2670   19.1500    2.2300 C.3   101  SAH101      0.2569
     15  O2'       65.9670   18.0220    1.7560 O.3   101  SAH101     -0.2130
     16  C1'       64.2560   18.6150    3.2150 C.3   101  SAH101      0.3185
     17  N9        63.1190   19.5600    3.2560 N.pl3 101  SAH101     -0.1439
     18  C8        62.8360   20.4750    4.2400 C.3   101  SAH101      0.3377
     19  N7        61.7220   21.1590    3.9260 N.2   101  SAH101     -0.2095
     20  C5        61.2710   20.7070    2.7340 C.2   101  SAH101      0.2526
     21  C6        60.1630   21.0570    1.9460 C.2   101  SAH101      0.4393
     22  N6        59.3080   22.0070    2.3390 N.pl3 101  SAH101      0.2180
     23  N1        59.9570   20.3900    0.7430 N.2   101  SAH101      0.0021
     24  C2        60.8370   19.3990    0.3300 C.3   101  SAH101      0.5254
     25  N3        61.9310   19.0500    1.1180 N.2   101  SAH101     -0.0055
     26  C4        62.1430   19.6970    2.2980 C.2   101  SAH101      0.3518
@<TRIPOS>BOND
     1    24    23    1
     2    24    25    1
     3    23    21    2
     4    25    26    2
     5    15    14    1
     6    21    22    1
     7    21    20    1
     8    14    12    1
     9    14    16    1
    10    26    20    1
    11    26    17    1
    12    13    12    1
    13    20    19    2
    14    12    10    1
    15    16    17    1
    16    16    11    1
    17    17    18    1
    18    19    18    1
    19    10    11    1
    20    10     9    1
    21     9     5    1
    22     1     2    1
    23     2     6    1
    24     2     3    1
    25     8     6   ar
    26     5     4    1
    27     6     7   ar
    28     4     3    1
