@<TRIPOS>MOLECULE
2igt_SAM_A_1.pdb
 27 29 0 0 0
SMALL
GASTEIGER

@<TRIPOS>ATOM
      1  N         74.9250   51.0600   30.2380 N.3   1001  SAM1001    -0.1208
      2  CA        74.9020   52.1360   29.2090 C.3   1001  SAM1001     0.1952
      3  C         75.9370   53.2130   29.5840 C.2   1001  SAM1001     0.3819
      4  O         76.5760   53.1880   30.6520 O.co2 1001  SAM1001    -0.2441
      5  OXT       76.1710   54.1350   28.7920 O.co2 1001  SAM1001    -0.2441
      6  CB        73.4790   52.7180   29.0470 C.3   1001  SAM1001     0.0414
      7  CG        73.0140   53.7500   30.1020 C.3   1001  SAM1001     0.0503
      8  SD        72.8360   53.0460   31.7860 S.3   1001  SAM1001    -0.1761
      9  CE        74.0460   51.7470   31.9240 C.3   1001  SAM1001     0.0590
     10  C5'       71.4370   51.9300   31.5030 C.3   1001  SAM1001     0.0806
     11  C4'       70.2950   52.1610   32.4770 C.3   1001  SAM1001     0.1622
     12  O4'       70.7710   52.0700   33.8090 O.3   1001  SAM1001    -0.3153
     13  C3'       69.6380   53.5450   32.4100 C.3   1001  SAM1001     0.2168
     14  O3'       68.3560   53.4230   31.8160 O.3   1001  SAM1001    -0.2175
     15  C2'       69.5510   54.0550   33.8570 C.3   1001  SAM1001     0.2569
     16  O2'       68.2800   54.5600   34.2180 O.3   1001  SAM1001    -0.2130
     17  C1'       69.8460   52.7550   34.6260 C.3   1001  SAM1001     0.3185
     18  N9        70.4160   52.9010   35.9630 N.pl3 1001  SAM1001    -0.1439
     19  C8        71.3900   53.7790   36.4030 C.3   1001  SAM1001     0.3377
     20  N7        71.6350   53.5310   37.7040 N.2   1001  SAM1001    -0.2095
     21  C5        70.8320   52.5120   38.1190 C.2   1001  SAM1001     0.2526
     22  C6        70.6460   51.8860   39.3580 C.2   1001  SAM1001     0.4393
     23  N6        71.3550   52.2420   40.4180 N.pl3 1001  SAM1001     0.2180
     24  N1        69.7430   50.8310   39.4560 N.2   1001  SAM1001     0.0021
     25  C2        69.0010   50.4680   38.3600 C.3   1001  SAM1001     0.5254
     26  N3        69.1500   51.1040   37.1340 N.2   1001  SAM1001    -0.0055
     27  C4        70.0520   52.1230   37.0270 C.2   1001  SAM1001     0.3518
@<TRIPOS>BOND
     1     5     3   ar
     2     6     2    1
     3     6     7    1
     4     2     3    1
     5     2     1    1
     6     3     4   ar
     7     7     8    1
     8    10     8    1
     9    10    11    1
    10     8     9    1
    11    14    13    1
    12    13    11    1
    13    13    15    1
    14    11    12    1
    15    12    17    1
    16    15    16    1
    17    15    17    1
    18    17    18    1
    19    18    19    1
    20    18    27    1
    21    19    20    1
    22    27    26    2
    23    27    21    1
    24    26    25    1
    25    20    21    2
    26    21    22    1
    27    25    24    1
    28    22    24    2
    29    22    23    1
