@<TRIPOS>MOLECULE
2igx_A1T_A_1.pdb
 48 53 0 0 0
SMALL
GASTEIGER

@<TRIPOS>ATOM
      1  O25       56.8700   60.2970   13.1870 O.2   330  A1T330     -0.2682
      2  C23       56.9890   60.0360   11.9960 C.2   330  A1T330      0.2670
      3  C26       55.7060   59.9230   11.2280 C.ar  330  A1T330      0.1347
      4  C30       55.0440   61.0990   10.8850 C.ar  330  A1T330      0.0235
      5  C34       53.8350   61.0220   10.1970 C.ar  330  A1T330     -0.0010
      6  C36       53.3200   59.7580    9.8930 C.ar  330  A1T330     -0.0030
      7  C38       52.0070   59.6580    9.1430 C.3   330  A1T330      0.0279
      8  C40       52.2580   59.6210    7.6400 C.3   330  A1T330      0.0047
      9  C43       50.9330   59.4290    6.9130 C.3   330  A1T330      0.0003
     10  C46       51.1620   59.3880    5.4110 C.3   330  A1T330      0.0000
     11  C48       49.8370   59.4690    4.6680 C.3   330  A1T330      0.0000
     12  C33       54.0100   58.6050   10.2670 C.ar  330  A1T330      0.0947
     13  N29       55.1760   58.7060   10.9360 N.ar  330  A1T330     -0.2396
     14  N22       58.1960   59.8610   11.4570 N.am  330  A1T330     -0.2723
     15  C24       59.3360   60.0230   12.3800 C.3   330  A1T330      0.0788
     16  C28       60.4290   60.9290   11.8100 C.3   330  A1T330      0.0372
     17  C32       61.5300   61.0750   12.8710 C.3   330  A1T330      0.0741
     18  N35       62.0310   59.7210   13.1010 N.3   330  A1T330     -0.2676
     19  C37       63.3790   59.7170   13.6820 C.3   330  A1T330      0.1186
     20  C39       63.4400   59.5760   15.1870 C.ar  330  A1T330      0.0752
     21  C42       64.1620   58.5240   15.7460 C.ar  330  A1T330      0.0161
     22  C45       64.2280   58.3980   17.1280 C.ar  330  A1T330      0.0028
     23  C47       63.5600   59.3310   17.9200 C.ar  330  A1T330      0.0207
     24  C44       62.8540   60.3780   17.3190 C.ar  330  A1T330      0.0985
     25  N41       62.8160   60.4830   15.9780 N.ar  330  A1T330     -0.2468
     26  C31       61.0720   58.7950   13.7060 C.3   330  A1T330      0.0741
     27  C27       59.9160   58.6410   12.7110 C.3   330  A1T330      0.0372
     28  C21       58.5200   59.4620   10.0830 C.3   330  A1T330      0.1204
     29  C20       58.8650   60.5590    9.1030 C.ar  330  A1T330     -0.0023
     30  C18       58.4600   61.9010    9.2250 C.ar  330  A1T330     -0.0026
     31  C16       58.8340   62.8420    8.2580 C.ar  330  A1T330     -0.0003
     32  C19       59.6340   60.1690    8.0060 C.ar  330  A1T330     -0.0026
     33  C17       59.9920   61.1010    7.0380 C.ar  330  A1T330     -0.0003
     34  C15       59.6100   62.4400    7.1600 C.ar  330  A1T330     -0.0000
     35  C14       60.0310   63.3330    6.0430 C.ar  330  A1T330      0.0000
     36  C11       59.0440   64.0300    5.3530 C.ar  330  A1T330      0.0001
     37  C7        59.3620   64.8420    4.2660 C.ar  330  A1T330      0.0045
     38  C12       61.3620   63.4100    5.6110 C.ar  330  A1T330      0.0001
     39  C8        61.6870   64.2310    4.5230 C.ar  330  A1T330      0.0045
     40  C4        60.6870   64.9520    3.8500 C.ar  330  A1T330      0.0536
     41  C2        61.0430   65.8210    2.6670 C.2   330  A1T330      0.2490
     42  O1        61.5570   65.2670    1.7080 O.2   330  A1T330     -0.2699
     43  N3        60.8160   67.1420    2.6240 N.am  330  A1T330     -0.2761
     44  C6        60.1990   67.9130    3.7090 C.3   330  A1T330      0.0937
     45  C10       58.8460   68.3520    3.1450 C.3   330  A1T330      0.0216
     46  C13       59.0660   69.2430    1.9100 C.3   330  A1T330      0.0035
     47  C9        59.8910   68.5040    0.8570 C.3   330  A1T330      0.0216
     48  C5        61.1900   67.9310    1.4430 C.3   330  A1T330      0.0937
@<TRIPOS>BOND
     1    47    48    1
     2    47    46    1
     3    48    43    1
     4    42    41    2
     5    46    45    1
     6    43    41   am
     7    43    44    1
     8    41    40    1
     9    45    44    1
    10    40    37   ar
    11    40    39   ar
    12    37    36   ar
    13    39    38   ar
    14    11    10    1
    15    36    35   ar
    16    10     9    1
    17    38    35   ar
    18    35    34    1
    19     9     8    1
    20    33    34   ar
    21    33    32   ar
    22    34    31   ar
    23     8     7    1
    24    32    29   ar
    25    31    30   ar
    26    29    30   ar
    27    29    28    1
    28     7     6    1
    29     6     5   ar
    30     6    12   ar
    31    28    14    1
    32     5     4   ar
    33    12    13   ar
    34     4     3   ar
    35    13     3   ar
    36     3     2    1
    37    14     2   am
    38    14    15    1
    39    16    15    1
    40    16    17    1
    41     2     1    2
    42    15    27    1
    43    27    26    1
    44    17    18    1
    45    18    19    1
    46    18    26    1
    47    19    20    1
    48    20    21   ar
    49    20    25   ar
    50    21    22   ar
    51    25    24   ar
    52    22    23   ar
    53    24    23   ar
