@<TRIPOS>MOLECULE
2igy_A2T_A_1.pdb
 40 43 0 0 0
SMALL
GASTEIGER

@<TRIPOS>ATOM
      1  O22       44.9170    0.3540  -13.7810 O.2   330  A2T330     -0.2699
      2  C20       43.8650   -0.1590  -13.4680 C.2   330  A2T330      0.2492
      3  C23       42.6070    0.3990  -14.0770 C.ar  330  A2T330      0.0536
      4  C27       42.0040    1.5120  -13.4870 C.ar  330  A2T330      0.0042
      5  C31       40.8260    2.0310  -14.0310 C.ar  330  A2T330     -0.0041
      6  C33       40.2560    1.4490  -15.1690 C.ar  330  A2T330     -0.0222
      7  C35       38.9960    2.0340  -15.7600 C.3   330  A2T330      0.0264
      8  C37       37.7670    1.4710  -15.0560 C.3   330  A2T330      0.0047
      9  C39       36.5750    2.2980  -15.5030 C.3   330  A2T330      0.0003
     10  C42       35.3970    1.4150  -15.8580 C.3   330  A2T330      0.0000
     11  C43       34.1080    2.0610  -15.3990 C.3   330  A2T330      0.0000
     12  C30       40.8610    0.3460  -15.7680 C.ar  330  A2T330     -0.0041
     13  C26       42.0440   -0.1720  -15.2230 C.ar  330  A2T330      0.0042
     14  N19       43.8560   -1.1640  -12.5770 N.am  330  A2T330     -0.2735
     15  C21       45.1790   -1.6730  -12.1730 C.3   330  A2T330      0.0787
     16  C25       45.3060   -3.1720  -12.4490 C.3   330  A2T330      0.0372
     17  C29       46.7500   -3.5370  -12.1680 C.3   330  A2T330      0.0738
     18  N32       46.9840   -3.2640  -10.7530 N.3   330  A2T330     -0.2726
     19  C34       48.2910   -3.8430  -10.4850 C.3   330  A2T330      0.0721
     20  C36       48.7720   -3.3500   -9.1310 C.3   330  A2T330      0.0173
     21  C38       49.9660   -4.1780   -8.6890 C.3   330  A2T330      0.0014
     22  C41       49.8940   -4.4460   -7.1850 C.3   330  A2T330      0.0000
     23  C40       51.2680   -3.4950   -9.1090 C.3   330  A2T330      0.0000
     24  C28       46.9180   -1.8250  -10.4340 C.3   330  A2T330      0.0738
     25  C24       45.4750   -1.3890  -10.6900 C.3   330  A2T330      0.0372
     26  C18       42.6950   -1.7780  -11.9320 C.3   330  A2T330      0.1204
     27  C17       42.2120   -3.0410  -12.6180 C.ar  330  A2T330     -0.0022
     28  C15       41.5790   -4.0350  -11.8590 C.ar  330  A2T330     -0.0013
     29  C13       41.1270   -5.2050  -12.4780 C.ar  330  A2T330      0.0146
     30  C16       42.3930   -3.2380  -13.9900 C.ar  330  A2T330     -0.0013
     31  C14       41.9470   -4.4000  -14.6040 C.ar  330  A2T330      0.0146
     32  C12       41.3090   -5.3850  -13.8560 C.ar  330  A2T330      0.0516
     33  N44       40.8620   -6.5580  -14.4950 N.pl3 330  A2T330     -0.2850
     34  C45       39.5130   -6.3590  -15.0160 C.3   330  A2T330      0.1173
     35  C4        41.2790   -7.9000  -14.4240 C.ar  330  A2T330      0.0547
     36  C2        40.8910   -8.8270  -15.4020 C.ar  330  A2T330      0.0355
     37  C8        42.0950   -8.3280  -13.3680 C.ar  330  A2T330      0.0355
     38  C9        42.5050   -9.6630  -13.2980 C.ar  330  A2T330      0.1002
     39  N6        42.1090  -10.5350  -14.2490 N.ar  330  A2T330     -0.2422
     40  C3        41.3230  -10.1510  -15.2840 C.ar  330  A2T330      0.1002
@<TRIPOS>BOND
     1    10     9    1
     2    10    11    1
     3    12    13   ar
     4    12     6   ar
     5     7     6    1
     6     7     8    1
     7     9     8    1
     8    36    40   ar
     9    36    35   ar
    10    40    39   ar
    11    13     3   ar
    12     6     5   ar
    13    34    33    1
    14    31    30   ar
    15    31    32   ar
    16    33    35    1
    17    33    32    1
    18    35    37   ar
    19    39    38   ar
    20     3     4   ar
    21     3     2    1
    22     5     4   ar
    23    30    27   ar
    24    32    29   ar
    25     1     2    2
    26     2    14   am
    27    37    38   ar
    28    27    26    1
    29    27    28   ar
    30    14    15    1
    31    14    26    1
    32    29    28   ar
    33    16    15    1
    34    16    17    1
    35    15    25    1
    36    17    18    1
    37    18    19    1
    38    18    24    1
    39    25    24    1
    40    19    20    1
    41    20    21    1
    42    23    21    1
    43    21    22    1
