@<TRIPOS>MOLECULE
2ih2_NEA_A_1.pdb
 22 24 0 0 0
SMALL
GASTEIGER

@<TRIPOS>ATOM
      1  N        -17.1610   -6.7340   19.9310 N.3   2001  NEA2001    -0.1304
      2  CB       -17.0330   -7.8120   18.8980 C.3   2001  NEA2001     0.1209
      3  CG       -16.2050   -7.3670   17.6900 C.3   2001  NEA2001     0.0781
      4  SD       -16.9330   -5.9360   16.8560 S.3   2001  NEA2001    -0.1360
      5  C5'      -18.3410   -6.7670   16.0760 C.3   2001  NEA2001     0.0899
      6  C4'      -19.6920   -6.2280   16.5670 C.3   2001  NEA2001     0.1630
      7  O4'      -19.7210   -4.8110   16.4350 O.3   2001  NEA2001    -0.3153
      8  C3'      -20.8540   -6.7500   15.7260 C.3   2001  NEA2001     0.2168
      9  O3'      -21.9170   -7.2120   16.5580 O.3   2001  NEA2001    -0.2175
     10  C2'      -21.2880   -5.5310   14.9170 C.3   2001  NEA2001     0.2569
     11  O2'      -22.6650   -5.5310   14.5860 O.3   2001  NEA2001    -0.2130
     12  C1'      -20.9450   -4.4070   15.8680 C.3   2001  NEA2001     0.3185
     13  N9       -20.6790   -3.1230   15.2260 N.pl3 2001  NEA2001    -0.1439
     14  C8       -19.9670   -2.9060   14.0630 C.3   2001  NEA2001     0.3377
     15  N7       -19.9360   -1.5760   13.8430 N.2   2001  NEA2001    -0.2095
     16  C5       -20.5900   -0.9500   14.8500 C.2   2001  NEA2001     0.2526
     17  C6       -20.8540    0.3890   15.1410 C.2   2001  NEA2001     0.4393
     18  N6       -20.4510    1.3830   14.3500 N.pl3 2001  NEA2001     0.2180
     19  N1       -21.5650    0.6950   16.2780 N.2   2001  NEA2001     0.0021
     20  C2       -22.0240   -0.2880   17.1280 C.3   2001  NEA2001     0.5254
     21  N3       -21.7610   -1.6000   16.8260 N.2   2001  NEA2001    -0.0055
     22  C4       -21.0500   -1.9210   15.7280 C.2   2001  NEA2001     0.3518
@<TRIPOS>BOND
     1    15    14    1
     2    15    16    2
     3    14    13    1
     4    18    17    1
     5    11    10    1
     6    16    17    1
     7    16    22    1
     8    10     8    1
     9    10    12    1
    10    17    19    2
    11    13    22    1
    12    13    12    1
    13     8     9    1
    14     8     6    1
    15    22    21    2
    16    12     7    1
    17     5     6    1
    18     5     4    1
    19    19    20    1
    20     7     6    1
    21    21    20    1
    22     4     3    1
    23     3     2    1
    24     2     1    1
