@<TRIPOS>MOLECULE
2ih4_NEA_A_1.pdb
 22 24 0 0 0
SMALL
GASTEIGER

@<TRIPOS>ATOM
      1  N         16.2830   -6.8030   37.1870 N.3   1001  NEA1001    -0.1304
      2  CB        15.9570   -7.9940   38.0150 C.3   1001  NEA1001     0.1209
      3  CG        15.3470   -7.6300   39.3700 C.3   1001  NEA1001     0.0781
      4  SD        15.9880   -6.0720   40.0390 S.3   1001  NEA1001    -0.1360
      5  C5'       17.2060   -6.9790   41.0300 C.3   1001  NEA1001     0.0899
      6  C4'       18.6350   -6.6580   40.5980 C.3   1001  NEA1001     0.1630
      7  O4'       18.8270   -5.2550   40.5660 O.3   1001  NEA1001    -0.3153
      8  C3'       19.7030   -7.2120   41.5280 C.3   1001  NEA1001     0.2168
      9  O3'       20.7440   -7.7110   40.7120 O.3   1001  NEA1001    -0.2175
     10  C2'       20.1740   -6.0060   42.3280 C.3   1001  NEA1001     0.2569
     11  O2'       21.5390   -6.0960   42.6770 O.3   1001  NEA1001    -0.2130
     12  C1'       19.9460   -4.8740   41.3470 C.3   1001  NEA1001     0.3185
     13  N9        19.6830   -3.5660   41.9720 N.pl3 1001  NEA1001    -0.1439
     14  C8        18.9090   -3.2840   43.0700 C.3   1001  NEA1001     0.3377
     15  N7        18.9470   -1.9440   43.2800 N.2   1001  NEA1001    -0.2095
     16  C5        19.7300   -1.3760   42.3320 C.2   1001  NEA1001     0.2526
     17  C6        20.1020   -0.0560   42.0770 C.2   1001  NEA1001     0.4393
     18  N6        19.6640    0.9370   42.8490 N.pl3 1001  NEA1001     0.2180
     19  N1        20.9330    0.2170   41.0150 N.2   1001  NEA1001     0.0021
     20  C2        21.3900   -0.8020   40.1990 C.3   1001  NEA1001     0.5254
     21  N3        21.0120   -2.1070   40.4550 N.2   1001  NEA1001    -0.0055
     22  C4        20.1950   -2.3860   41.5030 C.2   1001  NEA1001     0.3518
@<TRIPOS>BOND
     1     1     2    1
     2     2     3    1
     3     3     4    1
     4     4     5    1
     5    20    21    1
     6    20    19    1
     7    21    22    2
     8     7     6    1
     9     7    12    1
    10     6     5    1
    11     6     8    1
    12     9     8    1
    13    19    17    2
    14    12    13    1
    15    12    10    1
    16    22    13    1
    17    22    16    1
    18     8    10    1
    19    13    14    1
    20    17    16    1
    21    17    18    1
    22    10    11    1
    23    16    15    2
    24    14    15    1
