@<TRIPOS>MOLECULE
2ih5_NEA_A_1.pdb
 22 24 0 0 0
SMALL
GASTEIGER

@<TRIPOS>ATOM
      1  N        -46.7520    5.0270   10.9100 N.3   1001  NEA1001    -0.1304
      2  CB       -46.5760    5.9870   12.0550 C.3   1001  NEA1001     0.1209
      3  CG       -45.8050    5.3880   13.2330 C.3   1001  NEA1001     0.0781
      4  SD       -46.2550    3.6980   13.7320 S.3   1001  NEA1001    -0.1360
      5  C5'      -47.6280    4.1830   14.8250 C.3   1001  NEA1001     0.0899
      6  C4'      -48.9990    3.7020   14.3370 C.3   1001  NEA1001     0.1630
      7  O4'      -48.9840    2.3170   14.0810 O.3   1001  NEA1001    -0.3153
      8  C3'      -50.1270    3.9270   15.3500 C.3   1001  NEA1001     0.2168
      9  O3'      -51.2050    4.4920   14.6410 O.3   1001  NEA1001    -0.2175
     10  C2'      -50.4670    2.5350   15.8710 C.3   1001  NEA1001     0.2569
     11  O2'      -51.8170    2.3320   16.2610 O.3   1001  NEA1001    -0.2130
     12  C1'      -50.1030    1.6750   14.6760 C.3   1001  NEA1001     0.3185
     13  N9       -49.6870    0.3150   15.0300 N.pl3 1001  NEA1001    -0.1439
     14  C8       -48.8840   -0.0670   16.0750 C.3   1001  NEA1001     0.3377
     15  N7       -48.7170   -1.4010   16.0420 N.2   1001  NEA1001    -0.2095
     16  C5       -49.4000   -1.8820   14.9740 C.2   1001  NEA1001     0.2526
     17  C6       -49.5780   -3.1700   14.4650 C.2   1001  NEA1001     0.4393
     18  N6       -49.0240   -4.2400   15.0140 N.pl3 1001  NEA1001     0.2180
     19  N1       -50.3520   -3.3290   13.3440 N.2   1001  NEA1001     0.0021
     20  C2       -50.9440   -2.2530   12.7080 C.3   1001  NEA1001     0.5254
     21  N3       -50.7720   -1.0010   13.2160 N.2   1001  NEA1001    -0.0055
     22  C4       -50.0040   -0.8120   14.3260 C.2   1001  NEA1001     0.3518
@<TRIPOS>BOND
     1     1     2    1
     2     2     3    1
     3    20    21    1
     4    20    19    1
     5    21    22    2
     6     3     4    1
     7    19    17    2
     8     4     5    1
     9     7     6    1
    10     7    12    1
    11    22    16    1
    12    22    13    1
    13     6     5    1
    14     6     8    1
    15    17    16    1
    16    17    18    1
    17     9     8    1
    18    12    13    1
    19    12    10    1
    20    16    15    2
    21    13    14    1
    22     8    10    1
    23    10    11    1
    24    15    14    1
