@<TRIPOS>MOLECULE
2ih9_5AX_A_1.pdb
 14 14 0 0 0
SMALL
GASTEIGER

@<TRIPOS>ATOM
      1  C4       -29.3860   50.7340   59.8050 C.3   721  5AX721      0.2134
      2  C5       -29.2040   51.1560   58.3340 C.3   721  5AX721      0.1809
      3  C6       -27.8360   51.7460   58.0330 C.3   721  5AX721      0.2141
      4  C7       -32.1890   46.8480   58.7860 C.2   721  5AX721      0.2420
      5  C8       -32.9960   46.5060   57.5450 C.3   721  5AX721      0.0964
      6  C1       -30.6800   49.4440   57.5860 C.3   721  5AX721      0.1665
      7  C2       -30.8200   48.8330   58.9760 C.3   721  5AX721      0.1576
      8  C3       -30.7040   49.9630   60.0020 C.3   721  5AX721      0.2069
      9  N2       -32.0880   48.1370   59.1070 N.am  721  5AX721     -0.2019
     10  O3       -30.7520   49.4250   61.3140 O.3   721  5AX721     -0.2184
     11  O4       -29.3890   51.8920   60.6310 O.3   721  5AX721     -0.2176
     12  O5       -29.3790   50.0240   57.4580 O.3   721  5AX721     -0.3489
     13  O6       -26.7980   50.8100   58.2760 O.3   721  5AX721     -0.2176
     14  O7       -31.6530   45.9450   59.4330 O.2   721  5AX721     -0.2733
@<TRIPOS>BOND
     1    12     6    1
     2    12     2    1
     3     5     4    1
     4     6     7    1
     5     3    13    1
     6     3     2    1
     7     2     1    1
     8     4     9   am
     9     4    14    2
    10     7     9    1
    11     7     8    1
    12     1     8    1
    13     1    11    1
    14     8    10    1
