@<TRIPOS>MOLECULE
2ihb_GDP_A_1.pdb
 28 30 0 0 0
SMALL
GASTEIGER

@<TRIPOS>ATOM
      1  PB        -8.7480  -22.2770  -27.9830 P.3   356  GDP356      0.5373
      2  O1B       -8.6320  -20.7700  -28.0060 O.3   356  GDP356     -0.1143
      3  O2B       -8.8210  -22.8630  -26.5930 O.3   356  GDP356     -0.1143
      4  O3B       -9.9940  -22.6500  -28.7460 O.2   356  GDP356     -0.2221
      5  O3A       -7.5250  -22.9850  -28.7490 O.3   356  GDP356     -0.2261
      6  PA        -6.2050  -22.1890  -29.1750 P.3   356  GDP356      0.2231
      7  O1A       -5.5280  -21.8060  -27.8820 O.3   356  GDP356     -0.4370
      8  O2A       -6.5030  -21.0320  -30.0970 O.2   356  GDP356     -0.5169
      9  O5'       -5.3060  -23.2490  -29.9570 O.3   356  GDP356     -0.3111
     10  C5'       -4.9240  -24.4580  -29.3130 C.3   356  GDP356      0.1813
     11  C4'       -3.5740  -24.9070  -29.8440 C.3   356  GDP356      0.1799
     12  O4'       -3.7290  -25.5060  -31.1350 O.3   356  GDP356     -0.3326
     13  C3'       -2.6040  -23.7510  -30.0060 C.3   356  GDP356      0.2158
     14  O3'       -1.2840  -24.1860  -29.6640 O.3   356  GDP356     -0.2175
     15  C2'       -2.6790  -23.4120  -31.4740 C.3   356  GDP356      0.2310
     16  O2'       -1.4550  -22.8840  -31.9910 O.3   356  GDP356     -0.2158
     17  C1'       -2.9860  -24.7580  -32.1000 C.3   356  GDP356      0.2293
     18  N9        -3.8120  -24.6840  -33.3180 N.pl3 356  GDP356     -0.2354
     19  C8        -4.9770  -24.0450  -33.4470 C.3   356  GDP356      0.2246
     20  N7        -5.4690  -24.2090  -34.6940 N.2   356  GDP356     -0.2322
     21  C5        -4.6230  -24.9850  -35.3630 C.2   356  GDP356      0.2182
     22  C6        -4.5630  -25.5500  -36.7150 C.1   356  GDP356      0.2372
     23  O6        -5.4650  -25.3180  -37.5340 O.2   356  GDP356     -0.2069
     24  N1        -3.5060  -26.3080  -37.0330 N.2   356  GDP356     -0.2485
     25  C2        -2.5110  -26.5640  -36.1460 C.1   356  GDP356      0.2531
     26  N2        -1.4710  -27.3380  -36.5320 N.pl3 356  GDP356     -0.0226
     27  N3        -2.5080  -26.0770  -34.8820 N.2   356  GDP356     -0.3074
     28  C4        -3.5220  -25.2960  -34.4550 C.2   356  GDP356      0.2300
@<TRIPOS>BOND
     1    23    22    2
     2    24    22    2
     3    24    25    2
     4    22    21    1
     5    26    25    1
     6    25    27    2
     7    21    20    2
     8    21    28    1
     9    27    28    2
    10    20    19    1
    11    28    18    1
    12    19    18    1
    13    18    17    1
    14    17    15    1
    15    17    12    1
    16    16    15    1
    17    15    13    1
    18    12    11    1
    19     8     6    2
    20    13    11    1
    21    13    14    1
    22     9    10    1
    23     9     6    1
    24    11    10    1
    25     6     5    1
    26     6     7    1
    27     5     1    1
    28     4     1    2
    29     2     1    1
    30     1     3    1
