@<TRIPOS>MOLECULE
2ihj_CSF_A_1.pdb
 42 44 0 0 0
SMALL
GASTEIGER

@<TRIPOS>ATOM
      1  C5A       10.7400    4.2170    1.3480 C.3   1741  CSF1741     0.1582
      2  C4A       11.5540    3.5610    2.4760 C.3   1741  CSF1741     0.2121
      3  C2A       10.1960    1.5070    2.3380 C.3   1741  CSF1741     0.3216
      4  O6A        9.5050    2.1150    1.2340 O.3   1741  CSF1741    -0.3217
      5  C6A       10.2320    3.0770    0.4460 C.3   1741  CSF1741     0.1735
      6  C3A       10.6380    2.6260    3.2800 C.3   1741  CSF1741     0.2551
      7  O4A       12.2400    4.4780    3.3420 O.3   1741  CSF1741    -0.2181
      8  N5A       11.6580    5.0140    0.5380 N.am  1741  CSF1741    -0.2019
      9  C7A        9.3440    3.4930   -0.7350 C.3   1741  CSF1741     0.2135
     10  C8A        8.8510    2.2690   -1.5300 C.3   1741  CSF1741     0.2173
     11  C9A        7.8930    2.6110   -2.6750 C.3   1741  CSF1741     0.2175
     12  O9A        8.5920    3.3230   -3.7050 O.3   1741  CSF1741    -0.2175
     13  O8A        9.9650    1.5410   -2.0680 O.3   1741  CSF1741    -0.2175
     14  O7A        8.2280    4.2380   -0.2390 O.3   1741  CSF1741    -0.2176
     15  C1A        9.2320    0.5710    3.0500 C.2   1741  CSF1741     0.4183
     16  OBA        9.5930   -0.0380    4.0720 O.co2 1741  CSF1741    -0.2401
     17  OAA        8.0730    0.4270    2.6050 O.co2 1741  CSF1741    -0.2401
     18  O1A       11.4190    0.8330    1.9460 O.3   1741  CSF1741    -0.2813
     19  O2A       12.8220    0.4600   -0.1220 O.2   1741  CSF1741    -0.5171
     20  N1        11.7120   -5.4310    1.2650 N.am  1741  CSF1741    -0.1778
     21  C2        11.7390   -6.7970    0.8930 C.1   1741  CSF1741     0.2756
     22  N3        11.5090   -7.1500   -0.4000 N.2   1741  CSF1741    -0.3024
     23  C4        11.2430   -6.2150   -1.3520 C.2   1741  CSF1741     0.2346
     24  C5        11.2170   -4.8640   -1.0010 C.2   1741  CSF1741     0.0687
     25  C6        11.4470   -4.5020    0.3230 C.2   1741  CSF1741     0.0836
     26  C3'       13.7930   -3.5750    2.8440 C.3   1741  CSF1741     0.2158
     27  C2'       13.4320   -5.0350    3.0230 C.3   1741  CSF1741     0.2319
     28  C1'       11.9500   -5.0590    2.6820 C.3   1741  CSF1741     0.2400
     29  O4'       11.4630   -3.7410    2.9930 O.3   1741  CSF1741    -0.3320
     30  C4'       12.5460   -2.8870    3.3790 C.3   1741  CSF1741     0.1799
     31  PA        11.6790   -0.1430    0.6630 P.3   1741  CSF1741     0.2163
     32  O5'       12.2660   -1.4490    1.4100 O.3   1741  CSF1741    -0.3113
     33  C5'       12.3600   -1.4680    2.8400 C.3   1741  CSF1741     0.1813
     34  O3'       14.9810   -3.2050    3.5510 O.3   1741  CSF1741    -0.2175
     35  O2'       13.5800   -5.4130    4.3970 O.3   1741  CSF1741    -0.2157
     36  N4        11.0220   -6.5810   -2.6410 N.pl3 1741  CSF1741    -0.0921
     37  O2        11.9760   -7.6670    1.7700 O.2   1741  CSF1741    -0.1925
     38  O3A       10.3510   -0.4210    0.0390 O.3   1741  CSF1741    -0.4372
     39  C10       11.3780    6.2280    0.0410 C.2   1741  CSF1741     0.2420
     40  O10       10.3130    6.8050    0.2190 O.2   1741  CSF1741    -0.2733
     41  C11       12.4740    6.8520   -0.7750 C.3   1741  CSF1741     0.0964
     42  F3A        9.5330    3.2840    3.7900 F     1741  CSF1741    -0.2285
@<TRIPOS>BOND
     1    12    11    1
     2    11    10    1
     3    36    23    1
     4    13    10    1
     5    10     9    1
     6    23    24    1
     7    23    22    2
     8    24    25    2
     9    41    39    1
    10     9    14    1
    11     9     5    1
    12    22    21    2
    13    19    31    2
    14    38    31    1
    15    39    40    2
    16    39     8   am
    17    25    20    1
    18     5     4    1
    19     5     1    1
    20     8     1    1
    21    31    32    1
    22    31    18    1
    23    21    20   am
    24    21    37    2
    25     4     3    1
    26    20    28    1
    27     1     2    1
    28    32    33    1
    29    18     3    1
    30     3    15    1
    31     3     6    1
    32     2     6    1
    33     2     7    1
    34    17    15   ar
    35    28    29    1
    36    28    27    1
    37    33    30    1
    38    26    27    1
    39    26    30    1
    40    26    34    1
    41    29    30    1
    42    27    35    1
    43    15    16   ar
    44     6    42    1
