@<TRIPOS>MOLECULE
2ihk_CSF_A_1.pdb
 42 44 0 0 0
SMALL
GASTEIGER

@<TRIPOS>ATOM
      1  C5A       10.6110    4.3170    1.2660 C.3   1741  CSF1741     0.1582
      2  C4A       11.4590    3.6460    2.3680 C.3   1741  CSF1741     0.2121
      3  C2A        9.9690    1.6830    2.3110 C.3   1741  CSF1741     0.3216
      4  O6A        9.2840    2.2890    1.2020 O.3   1741  CSF1741    -0.3217
      5  C6A       10.0670    3.1650    0.3860 C.3   1741  CSF1741     0.1735
      6  C3A       10.4960    2.8030    3.2110 C.3   1741  CSF1741     0.2551
      7  O4A       12.1220    4.5750    3.2150 O.3   1741  CSF1741    -0.2181
      8  N5A       11.4920    5.1290    0.4160 N.am  1741  CSF1741    -0.2019
      9  C7A        9.1480    3.5700   -0.7610 C.3   1741  CSF1741     0.2135
     10  C8A        8.5560    2.3400   -1.4670 C.3   1741  CSF1741     0.2173
     11  C9A        7.6650    2.7270   -2.6430 C.3   1741  CSF1741     0.2175
     12  O9A        8.4830    3.4550   -3.5630 O.3   1741  CSF1741    -0.2175
     13  O8A        9.6230    1.5250   -1.9760 O.3   1741  CSF1741    -0.2175
     14  O7A        8.1140    4.4050   -0.2290 O.3   1741  CSF1741    -0.2176
     15  C1A        8.9720    0.8440    3.0880 C.2   1741  CSF1741     0.4183
     16  OBA        9.3580   -0.1570    3.6830 O.co2 1741  CSF1741    -0.2401
     17  OAA        7.7740    1.1870    3.1340 O.co2 1741  CSF1741    -0.2401
     18  O1A       11.1370    0.9330    1.9540 O.3   1741  CSF1741    -0.2813
     19  O2A       12.6140    0.5560    0.0200 O.3   1741  CSF1741    -0.4372
     20  N1        11.4090   -5.3760    1.3200 N.am  1741  CSF1741    -0.1778
     21  C2        11.4810   -6.7410    0.9720 C.1   1741  CSF1741     0.2756
     22  N3        11.2780   -7.1230   -0.3130 N.2   1741  CSF1741    -0.3024
     23  C4        10.9800   -6.2080   -1.2670 C.2   1741  CSF1741     0.2346
     24  C5        10.9050   -4.8560   -0.9420 C.2   1741  CSF1741     0.0687
     25  C6        11.1220   -4.4560    0.3730 C.2   1741  CSF1741     0.0836
     26  C3'       13.4910   -3.5790    2.7920 C.3   1741  CSF1741     0.2158
     27  C2'       13.1260   -5.0410    3.0560 C.3   1741  CSF1741     0.2319
     28  C1'       11.6340   -5.0130    2.7380 C.3   1741  CSF1741     0.2400
     29  O4'       11.1960   -3.6700    3.0000 O.3   1741  CSF1741    -0.3320
     30  C4'       12.3100   -2.8600    3.4030 C.3   1741  CSF1741     0.1799
     31  PA        11.4260   -0.0900    0.7210 P.3   1741  CSF1741     0.2163
     32  O5'       12.0070   -1.4010    1.4730 O.3   1741  CSF1741    -0.3113
     33  C5'       12.1270   -1.4210    2.9050 C.3   1741  CSF1741     0.1813
     34  O3'       14.7310   -3.1870    3.3980 O.3   1741  CSF1741    -0.2175
     35  O2'       13.3330   -5.3490    4.4500 O.3   1741  CSF1741    -0.2157
     36  N4        10.7660   -6.6000   -2.5450 N.pl3 1741  CSF1741    -0.0921
     37  O2        11.7730   -7.5760    1.8600 O.2   1741  CSF1741    -0.1925
     38  O3A       10.1630   -0.3560   -0.0080 O.2   1741  CSF1741    -0.5171
     39  C10       11.1330    6.2790   -0.1890 C.2   1741  CSF1741     0.2420
     40  O10       10.0060    6.7830   -0.0790 O.2   1741  CSF1741    -0.2733
     41  C11       12.2150    6.9160   -1.0260 C.3   1741  CSF1741     0.0964
     42  F3A       11.1350    2.2770    4.3220 F     1741  CSF1741    -0.2285
@<TRIPOS>BOND
     1    12    11    1
     2    11    10    1
     3    36    23    1
     4    13    10    1
     5    10     9    1
     6    23    24    1
     7    23    22    2
     8    41    39    1
     9    24    25    2
    10     9    14    1
    11     9     5    1
    12    22    21    2
    13    39    40    2
    14    39     8   am
    15    38    31    2
    16    19    31    1
    17    25    20    1
    18     5     4    1
    19     5     1    1
    20     8     1    1
    21    31    32    1
    22    31    18    1
    23    21    20   am
    24    21    37    2
    25     4     3    1
    26     1     2    1
    27    20    28    1
    28    32    33    1
    29    18     3    1
    30     3    15    1
    31     3     6    1
    32     2     6    1
    33     2     7    1
    34    28    29    1
    35    28    27    1
    36    26    27    1
    37    26    34    1
    38    26    30    1
    39    33    30    1
    40    29    30    1
    41    27    35    1
    42    15    17   ar
    43    15    16   ar
    44     6    42    1
