@<TRIPOS>MOLECULE
2ihm_D3T_A_1.pdb
 28 29 0 0 0
SMALL
GASTEIGER

@<TRIPOS>ATOM
      1  PA        -3.5240   -1.0680   29.7920 P.3   538  D3T538      0.2189
      2  O1A       -4.7280   -1.0410   30.6560 O.3   538  D3T538     -0.4371
      3  O2A       -3.2650    0.1060   28.9080 O.2   538  D3T538     -0.5170
      4  O5'       -3.5550   -2.3540   28.8410 O.3   538  D3T538     -0.3113
      5  C5'       -3.5740   -3.6980   29.3400 C.3   538  D3T538      0.1785
      6  C4'       -2.4680   -4.5240   28.6930 C.3   538  D3T538      0.1472
      7  O4'       -2.6570   -4.5640   27.2420 O.3   538  D3T538     -0.3366
      8  C1'       -1.4100   -4.5410   26.5750 C.3   538  D3T538      0.2063
      9  N1        -1.3460   -3.3740   25.6560 N.am  538  D3T538     -0.1795
     10  C6        -1.8990   -2.1290   26.0210 C.2   538  D3T538      0.0877
     11  C2        -0.7070   -3.5410   24.4150 C.1   538  D3T538      0.2844
     12  O2        -0.2070   -4.5840   24.0400 O.2   538  D3T538     -0.1918
     13  N3        -0.6820   -2.4090   23.6280 N.2   538  D3T538     -0.2455
     14  C4        -1.2130   -1.1510   23.9340 C.1   538  D3T538      0.2134
     15  O4        -1.1010   -0.2420   23.1130 O.2   538  D3T538     -0.2088
     16  C5        -1.8700   -1.0280   25.2400 C.2   538  D3T538      0.0891
     17  C5M       -2.4740    0.2990   25.6610 C.3   538  D3T538      0.0462
     18  C2'       -0.3040   -4.4920   27.6450 C.3   538  D3T538      0.0545
     19  C3'       -1.0450   -3.9830   28.8850 C.3   538  D3T538      0.0366
     20  O3A       -2.2530   -1.1290   30.6280 O.3   538  D3T538     -0.2700
     21  PB        -2.0000   -1.1230   32.0980 P.3   538  D3T538      0.2277
     22  O1B       -2.9380   -2.0030   32.7950 O.3   538  D3T538     -0.4368
     23  O2B       -0.5550   -1.3920   32.1670 O.2   538  D3T538     -0.5168
     24  O3B       -2.2190    0.3380   32.5150 O.3   538  D3T538     -0.2258
     25  PG        -3.0200    0.9920   33.6330 P.3   538  D3T538      0.5373
     26  O1G       -2.4830    0.5480   34.9260 O.3   538  D3T538     -0.1143
     27  O2G       -2.9600    2.4600   33.3570 O.2   538  D3T538     -0.2221
     28  O3G       -4.4400    0.5710   33.5650 O.3   538  D3T538     -0.1143
@<TRIPOS>BOND
     1    15    14    2
     2    13    14    2
     3    13    11    2
     4    14    16    1
     5    12    11    2
     6    11     9   am
     7    16    17    1
     8    16    10    2
     9     9    10    1
    10     9     8    1
    11     8     7    1
    12     8    18    1
    13     7     6    1
    14    18    19    1
    15     6    19    1
    16     6     5    1
    17     4     5    1
    18     4     1    1
    19     3     1    2
    20     1    20    1
    21     1     2    1
    22    20    21    1
    23    21    23    2
    24    21    24    1
    25    21    22    1
    26    24    25    1
    27    27    25    2
    28    28    25    1
    29    25    26    1
