@<TRIPOS>MOLECULE
2iho_GAL_A_1.pdb
 11 11 0 0 0
SMALL
GASTEIGER

@<TRIPOS>ATOM
      1  C1        43.4120   22.8560    1.6940 C.3   295  GAL295      0.1777
      2  C2        43.8460   23.9870    0.8000 C.3   295  GAL295      0.2141
      3  C3        45.3000   23.7540    0.4620 C.3   295  GAL295      0.2173
      4  C4        46.1180   23.6100    1.7620 C.3   295  GAL295      0.2142
      5  C5        45.5200   22.5360    2.6730 C.3   295  GAL295      0.1810
      6  C6        46.2900   22.2210    3.9770 C.3   295  GAL295      0.2141
      7  O2        43.0750   24.0590   -0.3690 O.3   295  GAL295     -0.2176
      8  O3        45.6730   24.8590   -0.3420 O.3   295  GAL295     -0.2175
      9  O4        46.1470   24.8460    2.4250 O.3   295  GAL295     -0.2176
     10  O5        44.1670   22.8970    2.8880 O.3   295  GAL295     -0.3481
     11  O6        45.7610   22.9020    5.1150 O.3   295  GAL295     -0.2176
@<TRIPOS>BOND
     1     7     2    1
     2     8     3    1
     3     3     2    1
     4     3     4    1
     5     2     1    1
     6     1    10    1
     7     4     9    1
     8     4     5    1
     9     5    10    1
    10     5     6    1
    11     6    11    1
