@<TRIPOS>MOLECULE
2ihq_LG7_A_1.pdb
 23 26 0 0 0
SMALL
GASTEIGER

@<TRIPOS>ATOM
      1  C13       27.8120    4.2600    3.9140 C.ar   90  LG790       0.0161
      2  C18       22.5850    4.4040    4.4980 C.ar   90  LG790       0.0000
      3  C17       23.5130    5.3640    4.2520 C.ar   90  LG790       0.0007
      4  C16       24.9110    4.8910    4.1490 C.ar   90  LG790       0.0108
      5  C15       25.9950    5.8940    3.8810 C.ar   90  LG790       0.0685
      6  C19       22.9450    3.0260    4.6630 C.ar   90  LG790       0.0000
      7  C20       24.3090    2.5210    4.5710 C.ar   90  LG790       0.0013
      8  C21       25.3240    3.5430    4.3020 C.ar   90  LG790       0.0148
      9  C22       25.5740    7.2800    3.8020 C.1    90  LG790       0.1004
     10  C12       26.7610    3.2490    4.1730 C.ar   90  LG790       0.0622
     11  O1        30.2520    0.9440    3.2430 O.3    90  LG790      -0.2208
     12  C2        29.9470   -0.0830    4.1420 C.3    90  LG790       0.1807
     13  C3        29.5440   -1.3820    3.2360 C.3    90  LG790       0.0567
     14  C4        27.9210   -1.3760    3.1240 C.3    90  LG790       0.0982
     15  N5        27.8150   -0.0050    3.7870 N.am   90  LG790      -0.2545
     16  C6        28.5650    0.2210    4.9240 C.3    90  LG790       0.1846
     17  C7        28.2500    1.6590    5.2790 C.2    90  LG790       0.2570
     18  O8        28.8200    2.2620    6.3430 O.2    90  LG790      -0.2722
     19  N9        27.3460    2.0400    4.2950 N.am   90  LG790      -0.1909
     20  C10       27.1000    1.0350    3.4150 C.2    90  LG790       0.3172
     21  O11       26.3650    1.0450    2.4390 O.2    90  LG790      -0.2516
     22  C14       27.4190    5.5750    3.7510 C.ar   90  LG790       0.0116
     23  N23       25.2280    8.4210    3.7390 N.1    90  LG790      -0.1908
@<TRIPOS>BOND
     1    21    20    2
     2    14    13    1
     3    14    15    1
     4    13    12    1
     5    11    12    1
     6    20    15   am
     7    20    19   am
     8    23     9    3
     9    22     5   ar
    10    22     1   ar
    11    15    16    1
    12     9     5    1
    13     5     4   ar
    14     1    10   ar
    15    12    16    1
    16     4     3   ar
    17     4     8   ar
    18    10    19    1
    19    10     8   ar
    20     3     2   ar
    21    19    17   am
    22     8     7   ar
    23     2     6   ar
    24     7     6   ar
    25    16    17    1
    26    17    18    2
