@<TRIPOS>MOLECULE
2iht_TPP_A_1.pdb
 26 27 0 0 0
SMALL
GASTEIGER

@<TRIPOS>ATOM
      1  N1'       30.2740   61.4290   21.1070 N.2   600  TPP600     -0.1861
      2  C2'       29.1050   62.0040   20.6330 C.1   600  TPP600      0.0663
      3  CM2       27.9800   62.4140   21.5390 C.3   600  TPP600      0.1291
      4  N3'       28.9600   62.1990   19.2790 N.2   600  TPP600     -0.3368
      5  C4'       29.9730   61.8390   18.4080 C.2   600  TPP600      0.2292
      6  N4'       29.7610   62.0660   17.1170 N.pl3 600  TPP600     -0.0925
      7  C5'       31.1760   61.2670   18.8650 C.2   600  TPP600      0.0654
      8  C6'       31.3030   61.0570   20.2400 C.2   600  TPP600      0.1115
      9  C7'       32.2870   60.8740   17.8770 C.3   600  TPP600      0.1237
     10  N3        31.5420   60.1040   16.9290 N.pl3 600  TPP600     -0.2970
     11  C2        30.8550   60.6390   15.8550 C.3   600  TPP600      0.1543
     12  S1        30.0180   59.5610   15.0230 S.3   600  TPP600     -0.0951
     13  C5        30.5210   58.3800   15.9990 C.2   600  TPP600      0.0164
     14  C4        31.3410   58.7780   17.0460 C.2   600  TPP600      0.0279
     15  CM4       31.9400   57.9140   18.1300 C.3   600  TPP600      0.0473
     16  C6        29.9930   57.0270   15.6360 C.3   600  TPP600      0.0661
     17  C7        30.8470   56.3610   14.5680 C.3   600  TPP600      0.1544
     18  O7        30.5100   54.9850   14.5600 O.3   600  TPP600     -0.3134
     19  PA        29.2270   54.4210   13.7710 P.3   600  TPP600      0.2230
     20  O1A       29.2760   52.9140   13.8820 O.2   600  TPP600     -0.5169
     21  O2A       27.9290   54.9800   14.2840 O.3   600  TPP600     -0.4370
     22  O3A       29.4440   54.8830   12.2560 O.3   600  TPP600     -0.2261
     23  PB        30.7300   54.4910   11.3730 P.3   600  TPP600      0.5373
     24  O1B       30.2160   54.3450    9.9760 O.2   600  TPP600     -0.2221
     25  O2B       31.7300   55.6100   11.4310 O.3   600  TPP600     -0.1143
     26  O3B       31.3360   53.1970   11.8670 O.3   600  TPP600     -0.1143
@<TRIPOS>BOND
     1    24    23    2
     2    23    25    1
     3    23    26    1
     4    23    22    1
     5    22    19    1
     6    19    20    2
     7    19    21    1
     8    19    18    1
     9    18    17    1
    10    17    16    1
    11    12    11    1
    12    12    13    1
    13    16    13    1
    14    11    10    1
    15    13    14    2
    16    10    14    1
    17    10     9    1
    18    14    15    1
    19     6     5    1
    20     9     7    1
    21     5     7    1
    22     5     4    2
    23     7     8    2
    24     4     2    2
    25     8     1    1
    26     2     1    2
    27     2     3    1
