@<TRIPOS>MOLECULE
2ihu_TP9_A_1.pdb
 25 25 0 0 0
SMALL
GASTEIGER

@<TRIPOS>ATOM
      1  N1'       29.8670   61.7330   20.6920 N.2   600  TP9600     -0.1861
      2  C2'       28.7560   62.3690   20.2590 C.1   600  TP9600      0.0663
      3  CM2       27.6200   62.6320   21.2080 C.3   600  TP9600      0.1291
      4  N3'       28.6570   62.7740   18.9710 N.2   600  TP9600     -0.3368
      5  C4'       29.6820   62.5730   18.1030 C.2   600  TP9600      0.2295
      6  N4'       29.5360   63.0190   16.8270 N.pl3 600  TP9600     -0.0924
      7  C5'       30.8290   61.9070   18.5430 C.2   600  TP9600      0.0698
      8  C6'       30.8960   61.4920   19.8700 C.2   600  TP9600      0.1118
      9  C7'       32.0150   61.6350   17.6390 C.3   600  TP9600      0.1570
     10  N3        31.5850   60.7220   16.5960 N.2   600  TP9600     -0.2695
     11  S1        30.8900   59.8020   14.1030 S.2   600  TP9600     -0.0541
     12  C5        31.0560   58.8180   15.4760 C.2   600  TP9600      0.0291
     13  C4        31.5100   59.3850   16.5990 C.2   600  TP9600      0.0570
     14  CM4       31.9270   58.6030   17.8190 C.3   600  TP9600      0.0519
     15  C6        30.6900   57.3470   15.4490 C.3   600  TP9600      0.0671
     16  C7        30.2710   56.8410   14.0710 C.3   600  TP9600      0.1544
     17  O7        30.1300   55.4120   14.1270 O.3   600  TP9600     -0.3134
     18  PA        28.8990   54.6870   13.3980 P.3   600  TP9600      0.2230
     19  O1A       29.0890   53.1920   13.5200 O.2   600  TP9600     -0.5169
     20  O2A       27.6010   55.3010   13.8530 O.3   600  TP9600     -0.4370
     21  O3A       29.1170   55.1510   11.8630 O.3   600  TP9600     -0.2261
     22  PB        30.3920   54.7920   10.9230 P.3   600  TP9600      0.5373
     23  O1B       29.7220   54.6910    9.5800 O.2   600  TP9600     -0.2221
     24  O2B       31.3340   55.9640   10.9770 O.3   600  TP9600     -0.1143
     25  O3B       30.9430   53.4720   11.4410 O.3   600  TP9600     -0.1143
@<TRIPOS>BOND
     1    23    22    2
     2    22    24    1
     3    22    25    1
     4    22    21    1
     5    21    18    1
     6    18    19    2
     7    18    20    1
     8    18    17    1
     9    16    17    1
    10    16    15    1
    11    11    12    2
    12    15    12    1
    13    12    13    1
    14    10    13    2
    15    10     9    1
    16    13    14    1
    17     6     5    1
    18     9     7    1
    19     5     7    1
    20     5     4    2
    21     7     8    2
    22     4     2    2
    23     8     1    1
    24     2     1    2
    25     2     3    1
