@<TRIPOS>MOLECULE
2ihu_TP8_C_1.pdb
 35 36 0 0 0
SMALL
GASTEIGER

@<TRIPOS>ATOM
      1  C8        19.9040  108.8620   41.4750 C.2   600  TP8600      0.1818
      2  C5        22.1430  111.6480   43.1750 C.2   600  TP8600      0.0167
      3  C4        22.6820  110.3210   43.5460 C.2   600  TP8600      0.0281
      4  N3        21.9600  109.3070   43.0010 N.pl3 600  TP8600     -0.2933
      5  C2        20.9150  109.6860   42.2190 C.3   600  TP8600      0.1837
      6  C6        22.6600  113.0040   43.5660 C.3   600  TP8600      0.0661
      7  O3C       14.5780  107.9220   40.4160 O.3   600  TP8600     -0.1145
      8  PC        15.7290  108.1120   39.4570 P.3   600  TP8600      0.5326
      9  O1C       16.2690  106.8370   38.8590 O.3   600  TP8600     -0.1145
     10  O2C       15.5290  109.2310   38.4530 O.2   600  TP8600     -0.2224
     11  O10       16.9270  108.6680   40.3870 O.3   600  TP8600     -0.2698
     12  C10       17.6010  107.8690   41.3540 C.3   600  TP8600      0.1616
     13  C9        18.6820  108.6960   42.0130 C.3   600  TP8600      0.0998
     14  O8        20.1870  108.3130   40.4200 O.2   600  TP8600     -0.2933
     15  C7,       22.3390  107.9190   43.2210 C.3   600  TP8600      0.1240
     16  C5,       23.5590  107.6210   42.3570 C.2   600  TP8600      0.0654
     17  C4,       23.6540  107.9420   40.9960 C.2   600  TP8600      0.2292
     18  N4,       22.6570  108.5490   40.3180 N.pl3 600  TP8600     -0.0925
     19  N3,       24.7730  107.6360   40.3000 N.2   600  TP8600     -0.3368
     20  C2,       25.8100  107.0250   40.9080 C.1   600  TP8600      0.0663
     21  CM2       27.0490  106.6810   40.1230 C.3   600  TP8600      0.1291
     22  N1,       25.7390  106.7200   42.2220 N.2   600  TP8600     -0.1861
     23  C6,       24.6510  107.0060   42.9500 C.2   600  TP8600      0.1115
     24  CM4       23.8900  110.1740   44.4440 C.3   600  TP8600      0.0473
     25  S1        20.7660  111.4230   42.1440 S.3   600  TP8600     -0.0904
     26  C7        21.6920  114.1330   43.3450 C.3   600  TP8600      0.1544
     27  O7        22.3120  115.2510   43.9640 O.3   600  TP8600     -0.3134
     28  PA        22.7800  116.5200   43.0990 P.3   600  TP8600      0.2230
     29  O1A       23.4250  117.4820   44.0670 O.3   600  TP8600     -0.4370
     30  O2A       23.5800  116.0620   41.9090 O.2   600  TP8600     -0.5169
     31  O3A       21.3650  117.0730   42.5480 O.3   600  TP8600     -0.2261
     32  PB        20.0070  117.2800   43.4070 P.3   600  TP8600      0.5373
     33  O2B       19.3080  115.9440   43.4870 O.3   600  TP8600     -0.1143
     34  O3B       20.4960  117.7870   44.7480 O.3   600  TP8600     -0.1143
     35  O1B       19.2680  118.2820   42.5590 O.2   600  TP8600     -0.2221
@<TRIPOS>BOND
     1    10     8    2
     2     9     8    1
     3     8    11    1
     4     8     7    1
     5    21    20    1
     6    19    20    2
     7    19    17    2
     8    18    17    1
     9    11    12    1
    10    14     1    2
    11    20    22    2
    12    17    16    1
    13    12    13    1
    14     1    13    1
    15     1     5    1
    16    30    28    2
    17    25     5    1
    18    25     2    1
    19     5     4    1
    20    22    23    1
    21    16    23    2
    22    16    15    1
    23    31    28    1
    24    31    32    1
    25    35    32    2
    26     4    15    1
    27     4     3    1
    28    28    27    1
    29    28    29    1
    30     2     3    2
    31     2     6    1
    32    26     6    1
    33    26    27    1
    34    32    33    1
    35    32    34    1
    36     3    24    1
