@<TRIPOS>MOLECULE
2ihv_TPP_A_1.pdb
 26 27 0 0 0
SMALL
GASTEIGER

@<TRIPOS>ATOM
      1  N1'       30.2770   61.9560   20.2140 N.2   600  TPP600     -0.1861
      2  C2'       29.1220   62.5700   19.7850 C.1   600  TPP600      0.0663
      3  CM2       28.0270   62.9330   20.7410 C.3   600  TPP600      0.1291
      4  N3'       28.9600   62.8460   18.4510 N.2   600  TPP600     -0.3368
      5  C4'       29.9590   62.5290   17.5600 C.2   600  TPP600      0.2292
      6  N4'       29.7080   62.8630   16.3010 N.pl3 600  TPP600     -0.0925
      7  C5'       31.1740   61.9190   17.9750 C.2   600  TPP600      0.0654
      8  C6'       31.2980   61.6250   19.3300 C.2   600  TPP600      0.1115
      9  C7'       32.3010   61.5440   17.0050 C.3   600  TPP600      0.1237
     10  N3        31.5710   60.7300   16.0790 N.pl3 600  TPP600     -0.2970
     11  C2        30.8490   61.2510   15.0190 C.3   600  TPP600      0.1543
     12  S1        30.0300   60.1620   14.1850 S.3   600  TPP600     -0.0951
     13  C5        30.5910   58.9730   15.1350 C.2   600  TPP600      0.0164
     14  C4        31.4140   59.3910   16.1750 C.2   600  TPP600      0.0279
     15  CM4       32.0340   58.4960   17.2110 C.3   600  TPP600      0.0473
     16  C6        30.1080   57.5820   14.8140 C.3   600  TPP600      0.0661
     17  C7        30.8130   56.9410   13.6330 C.3   600  TPP600      0.1544
     18  O7        30.4560   55.5730   13.6460 O.3   600  TPP600     -0.3134
     19  PA        29.1820   54.9750   12.8580 P.3   600  TPP600      0.2230
     20  O1A       29.2460   53.4720   12.9830 O.2   600  TPP600     -0.5169
     21  O2A       27.8630   55.4920   13.3700 O.3   600  TPP600     -0.4370
     22  O3A       29.3600   55.4710   11.3380 O.3   600  TPP600     -0.2261
     23  PB        30.6720   55.2640   10.4290 P.3   600  TPP600      0.5373
     24  O1B       30.1610   55.2110    9.0260 O.2   600  TPP600     -0.2221
     25  O2B       31.5950   56.4490   10.5020 O.3   600  TPP600     -0.1143
     26  O3B       31.3660   53.9650   10.8180 O.3   600  TPP600     -0.1143
@<TRIPOS>BOND
     1    24    23    2
     2    23    25    1
     3    23    26    1
     4    23    22    1
     5    22    19    1
     6    19    20    2
     7    19    21    1
     8    19    18    1
     9    17    18    1
    10    17    16    1
    11    12    11    1
    12    12    13    1
    13    16    13    1
    14    11    10    1
    15    13    14    2
    16    10    14    1
    17    10     9    1
    18    14    15    1
    19     6     5    1
    20     9     7    1
    21     5     7    1
    22     5     4    2
    23     7     8    2
    24     4     2    2
    25     8     1    1
    26     2     1    2
    27     2     3    1
