@<TRIPOS>MOLECULE
2ihv_GVA_A_1.pdb
 11 10 0 0 0
SMALL
GASTEIGER

@<TRIPOS>ATOM
      1  OB        30.3630   64.7970   11.0470 O.co2 603  GVA603     -0.2457
      2  C         31.4310   65.2950   10.6440 C.2   603  GVA603      0.3649
      3  OA        31.9860   64.9280    9.5810 O.co2 603  GVA603     -0.2457
      4  CA        32.0590   66.3730   11.5050 C.3   603  GVA603      0.1142
      5  CB        33.3850   66.8570   10.9350 C.3   603  GVA603      0.0155
      6  CG        33.1600   67.9560    9.9140 C.3   603  GVA603      0.0475
      7  CD        34.4750   68.6400    9.5740 C.3   603  GVA603      0.2204
      8  NE        34.3610   69.3800    8.3300 N.pl3 603  GVA603     -0.0865
      9  CZ        35.3950   69.9920    7.7790 C.cat 603  GVA603      0.5346
     10  NH2       36.6340   69.6220    8.1250 N.pl3 603  GVA603      0.1354
     11  NH1       35.1930   70.9130    6.9300 N.pl3 603  GVA603      0.1354
@<TRIPOS>BOND
     1    11     9    1
     2     9    10    1
     3     9     8    2
     4     8     7    1
     5     7     6    1
     6     3     2   ar
     7     6     5    1
     8     2     1   ar
     9     2     4    1
    10     5     4    1
