@<TRIPOS>MOLECULE
2ihz_CSF_A_1.pdb
 42 44 0 0 0
SMALL
GASTEIGER

@<TRIPOS>ATOM
      1  C5A       10.4220    4.2280    1.3020 C.3   1741  CSF1741     0.1582
      2  C4A       11.2390    3.4590    2.3530 C.3   1741  CSF1741     0.2121
      3  C2A        9.8290    1.5260    2.2640 C.3   1741  CSF1741     0.3216
      4  O6A        9.1370    2.1560    1.1660 O.3   1741  CSF1741    -0.3217
      5  C6A        9.8600    3.1250    0.3880 C.3   1741  CSF1741     0.1735
      6  C3A       10.2820    2.6160    3.2090 C.3   1741  CSF1741     0.2551
      7  O4A       12.1600    4.2090    3.1540 O.3   1741  CSF1741    -0.2181
      8  N5A       11.3780    5.0080    0.5270 N.am  1741  CSF1741    -0.2019
      9  C7A        8.9290    3.5930   -0.7330 C.3   1741  CSF1741     0.2135
     10  C8A        8.3620    2.4100   -1.5290 C.3   1741  CSF1741     0.2173
     11  C9A        7.4480    2.8870   -2.6550 C.3   1741  CSF1741     0.2175
     12  O9A        8.2320    3.0590   -3.8480 O.3   1741  CSF1741    -0.2175
     13  O8A        9.4240    1.6150   -2.0840 O.3   1741  CSF1741    -0.2175
     14  O7A        7.8540    4.3500   -0.1600 O.3   1741  CSF1741    -0.2176
     15  C1A        8.8810    0.6290    3.0060 C.2   1741  CSF1741     0.4183
     16  OBA        9.2520    0.1500    4.0810 O.co2 1741  CSF1741    -0.2401
     17  OAA        7.7480    0.4170    2.5360 O.co2 1741  CSF1741    -0.2401
     18  O1A       11.0560    0.8380    1.9370 O.3   1741  CSF1741    -0.2813
     19  O2A       12.5060    0.5050   -0.0820 O.2   1741  CSF1741    -0.5171
     20  N1        11.3350   -5.3550    1.3790 N.am  1741  CSF1741    -0.1778
     21  C2        11.3750   -6.7130    0.9990 C.1   1741  CSF1741     0.2756
     22  N3        11.2000   -7.0730   -0.2960 N.2   1741  CSF1741    -0.3024
     23  C4        10.9740   -6.1290   -1.2470 C.2   1741  CSF1741     0.2346
     24  C5        10.9360   -4.7820   -0.8920 C.2   1741  CSF1741     0.0687
     25  C6        11.1180   -4.4140    0.4400 C.2   1741  CSF1741     0.0836
     26  C3'       13.3650   -3.4920    2.9250 C.3   1741  CSF1741     0.2158
     27  C2'       13.0010   -4.9490    3.1480 C.3   1741  CSF1741     0.2319
     28  C1'       11.5240   -4.9930    2.7980 C.3   1741  CSF1741     0.2400
     29  O4'       11.0440   -3.6630    3.0580 O.3   1741  CSF1741    -0.3320
     30  C4'       12.1280   -2.8090    3.4530 C.3   1741  CSF1741     0.1799
     31  PA        11.3660   -0.1320    0.6860 P.3   1741  CSF1741     0.2163
     32  O5'       11.9790   -1.4080    1.4650 O.3   1741  CSF1741    -0.3113
     33  C5'       11.9210   -1.4070    2.8940 C.3   1741  CSF1741     0.1813
     34  O3'       14.5570   -3.0900    3.6070 O.3   1741  CSF1741    -0.2175
     35  O2'       13.1350   -5.2920    4.5270 O.3   1741  CSF1741    -0.2157
     36  N4        10.8030   -6.4800   -2.5520 N.pl3 1741  CSF1741    -0.0921
     37  O2        11.5770   -7.5740    1.8750 O.2   1741  CSF1741    -0.1925
     38  O3A       10.0240   -0.4300    0.1390 O.3   1741  CSF1741    -0.4372
     39  C10       11.1350    6.1750   -0.0840 C.2   1741  CSF1741     0.2420
     40  O10       10.0520    6.7540   -0.0700 O.2   1741  CSF1741    -0.2733
     41  C11       12.3150    6.7400   -0.8190 C.3   1741  CSF1741     0.0964
     42  F3A        9.1680    3.2860    3.6870 F     1741  CSF1741    -0.2285
@<TRIPOS>BOND
     1    12    11    1
     2    11    10    1
     3    36    23    1
     4    13    10    1
     5    10     9    1
     6    23    24    1
     7    23    22    2
     8    24    25    2
     9    41    39    1
    10     9    14    1
    11     9     5    1
    12    22    21    2
    13    39    40    2
    14    39     8   am
    15    19    31    2
    16    38    31    1
    17     5     4    1
    18     5     1    1
    19    25    20    1
    20     8     1    1
    21    31    32    1
    22    31    18    1
    23    21    20   am
    24    21    37    2
    25     4     3    1
    26     1     2    1
    27    20    28    1
    28    32    33    1
    29    18     3    1
    30     3    15    1
    31     3     6    1
    32     2     7    1
    33     2     6    1
    34    17    15   ar
    35    28    29    1
    36    28    27    1
    37    33    30    1
    38    26    27    1
    39    26    30    1
    40    26    34    1
    41    15    16   ar
    42    29    30    1
    43    27    35    1
    44     6    42    1
