@<TRIPOS>MOLECULE
2ii3_CAO_A_1.pdb
 49 51 0 0 0
SMALL
GASTEIGER

@<TRIPOS>ATOM
      1  N1A       62.9070  -22.9050   -0.3210 N.2   500  CAO500      0.0021
      2  C2A       63.2270  -23.5470    0.8260 C.3   500  CAO500      0.5254
      3  N3A       63.0390  -23.0180    2.0560 N.2   500  CAO500     -0.0055
      4  C4A       62.4620  -21.7980    2.1970 C.2   500  CAO500      0.3518
      5  C5A       62.0750  -21.0280    0.9970 C.2   500  CAO500      0.2526
      6  C6A       62.3360  -21.6600   -0.3420 C.2   500  CAO500      0.4393
      7  N6A       62.0010  -21.0090   -1.5070 N.pl3 500  CAO500      0.2180
      8  N7A       61.5390  -19.8660    1.4250 N.2   500  CAO500     -0.2095
      9  C8A       61.5780  -19.8980    2.7750 C.3   500  CAO500      0.3377
     10  N9A       62.1090  -21.0460    3.2360 N.pl3 500  CAO500     -0.1439
     11  C1B       62.3280  -21.4030    4.6660 C.3   500  CAO500      0.3185
     12  C2B       63.1810  -20.3330    5.3430 C.3   500  CAO500      0.2543
     13  O2B       64.5130  -20.7220    5.1300 O.3   500  CAO500     -0.2131
     14  C3B       62.8600  -20.4880    6.8090 C.3   500  CAO500      0.1928
     15  O3B       63.6350  -21.5920    7.2930 O.3   500  CAO500     -0.2673
     16  P3B       64.2160  -21.7750    8.7930 P.3   500  CAO500      0.5327
     17  O7A       62.9370  -21.6430    9.6150 O.3   500  CAO500     -0.1145
     18  O8A       65.1810  -20.6270    9.0140 O.3   500  CAO500     -0.1145
     19  O9A       64.9150  -23.0940    8.7360 O.2   500  CAO500     -0.2224
     20  C4B       61.4130  -20.9610    6.7860 C.3   500  CAO500      0.1795
     21  O4B       61.1270  -21.4640    5.4670 O.3   500  CAO500     -0.3136
     22  C5B       60.5040  -19.7940    7.1190 C.3   500  CAO500      0.1812
     23  O5B       60.4060  -18.8290    6.0600 O.3   500  CAO500     -0.3112
     24  P1A       59.1700  -17.7760    6.1810 P.3   500  CAO500      0.2189
     25  O1A       59.0180  -17.4430    7.6600 O.3   500  CAO500     -0.4371
     26  O2A       57.9530  -18.2300    5.4010 O.2   500  CAO500     -0.5170
     27  O3A       59.7250  -16.3830    5.5880 O.3   500  CAO500     -0.2703
     28  P2A       60.1510  -15.9940    4.0810 P.3   500  CAO500      0.2188
     29  O4A       60.9910  -17.1240    3.5180 O.2   500  CAO500     -0.5170
     30  O5A       60.6660  -14.5440    4.2220 O.3   500  CAO500     -0.4371
     31  O6A       58.8120  -15.8210    3.1910 O.3   500  CAO500     -0.3138
     32  CBP       56.6350  -14.8370    2.7250 C.3   500  CAO500      0.0645
     33  CCP       57.8920  -14.7980    3.5890 C.3   500  CAO500      0.1519
     34  CDP       57.0630  -14.3970    1.3200 C.3   500  CAO500      0.0056
     35  CEP       55.6300  -13.8490    3.3030 C.3   500  CAO500      0.0056
     36  CAP       56.0660  -16.2850    2.7370 C.3   500  CAO500      0.2312
     37  OAP       55.8260  -16.8160    4.0750 O.3   500  CAO500     -0.2131
     38  C9P       54.8100  -16.4120    1.8850 C.2   500  CAO500      0.2719
     39  O9P       53.6870  -16.0910    2.3140 O.2   500  CAO500     -0.2706
     40  N8P       55.0550  -16.8910    0.6500 N.am  500  CAO500     -0.2028
     41  C7P       54.0430  -17.4790   -0.2030 C.3   500  CAO500      0.1249
     42  C6P       54.1570  -16.9950   -1.6470 C.3   500  CAO500      0.1105
     43  C5P       52.8190  -17.2710   -2.2740 C.2   500  CAO500      0.2471
     44  O5P       51.8940  -17.6700   -1.5510 O.2   500  CAO500     -0.2729
     45  N4P       52.7210  -17.0710   -3.5970 N.am  500  CAO500     -0.1815
     46  C3P       51.6450  -17.7080   -4.3780 C.2   500  CAO500      0.0777
     47  C2P       51.3420  -17.1140   -5.7650 C.3   500  CAO500      0.1491
     48  S1P       49.7230  -16.3520   -6.0260 S.3   500  CAO500      0.1277
     49  O1P       48.6840  -16.1590   -4.6050 O.2   500  CAO500     -0.2425
@<TRIPOS>BOND
     1    48    47    1
     2    48    49    2
     3    47    46    1
     4    46    45    2
     5    45    43    1
     6    43    42    1
     7    43    44    2
     8    42    41    1
     9     7     6    1
    10     6     1    2
    11     6     5    1
    12     1     2    1
    13    41    40    1
    14    40    38   am
    15     2     3    1
    16     5     8    2
    17     5     4    1
    18    34    32    1
    19     8     9    1
    20    38    39    2
    21    38    36    1
    22     3     4    2
    23     4    10    1
    24    32    36    1
    25    32    35    1
    26    32    33    1
    27    36    37    1
    28     9    10    1
    29    31    33    1
    30    31    28    1
    31    10    11    1
    32    29    28    2
    33    28    30    1
    34    28    27    1
    35    11    12    1
    36    11    21    1
    37    13    12    1
    38    12    14    1
    39    26    24    2
    40    21    20    1
    41    27    24    1
    42    23    24    1
    43    23    22    1
    44    24    25    1
    45    20    14    1
    46    20    22    1
    47    14    15    1
    48    15    16    1
    49    19    16    2
    50    16    18    1
    51    16    17    1
