@<TRIPOS>MOLECULE
2ii4_COA_A_1.pdb
 48 50 0 0 0
SMALL
GASTEIGER

@<TRIPOS>ATOM
      1  N1A       63.1370  -22.9680   -0.2190 N.2   500  COA500      0.0021
      2  C2A       63.3240  -23.7120    0.9280 C.3   500  COA500      0.5254
      3  N3A       63.0520  -23.1860    2.1780 N.2   500  COA500     -0.0055
      4  C4A       62.5900  -21.9180    2.2870 C.2   500  COA500      0.3518
      5  C5A       62.3640  -21.1400    1.1470 C.2   500  COA500      0.2526
      6  C6A       62.6350  -21.6560   -0.1410 C.2   500  COA500      0.4393
      7  N6A       62.1500  -21.0310   -1.2520 N.pl3 500  COA500      0.2180
      8  N7A       61.8810  -19.9530    1.5570 N.2   500  COA500     -0.2095
      9  C8A       61.7830  -19.9650    2.8890 C.3   500  COA500      0.3377
     10  N9A       62.1920  -21.1740    3.3600 N.pl3 500  COA500     -0.1439
     11  C1B       62.4230  -21.4770    4.7710 C.3   500  COA500      0.3185
     12  C2B       63.5060  -20.5210    5.2940 C.3   500  COA500      0.2543
     13  O2B       64.8050  -21.0440    5.1690 O.3   500  COA500     -0.2131
     14  C3B       63.1690  -20.4540    6.7440 C.3   500  COA500      0.1928
     15  O3B       63.6740  -21.6890    7.1830 O.3   500  COA500     -0.2673
     16  P3B       64.1660  -21.9570    8.6870 P.3   500  COA500      0.5327
     17  O7A       63.0430  -21.4340    9.5590 O.3   500  COA500     -0.1145
     18  O8A       65.4850  -21.2790    8.9420 O.3   500  COA500     -0.1145
     19  O9A       64.2920  -23.4650    8.8550 O.2   500  COA500     -0.2224
     20  C4B       61.6660  -20.5100    6.7500 C.3   500  COA500      0.1795
     21  O4B       61.2710  -21.1950    5.5590 O.3   500  COA500     -0.3136
     22  C5B       61.2340  -19.0540    6.7370 C.3   500  COA500      0.1812
     23  O5B       60.0400  -18.9390    6.0180 O.3   500  COA500     -0.3112
     24  P1A       59.0610  -17.6780    6.2360 P.3   500  COA500      0.2189
     25  O1A       58.9660  -17.3870    7.7220 O.3   500  COA500     -0.4371
     26  O2A       57.6860  -17.8460    5.5970 O.2   500  COA500     -0.5170
     27  O3A       59.8100  -16.4040    5.6470 O.3   500  COA500     -0.2703
     28  P2A       60.1840  -16.0470    4.1300 P.3   500  COA500      0.2188
     29  O4A       61.0180  -17.1360    3.4960 O.2   500  COA500     -0.5170
     30  O5A       60.8080  -14.6670    4.2940 O.3   500  COA500     -0.4371
     31  O6A       58.7820  -15.9110    3.3110 O.3   500  COA500     -0.3138
     32  CBP       56.6430  -15.0120    2.7990 C.3   500  COA500      0.0645
     33  CCP       57.8860  -14.8770    3.6540 C.3   500  COA500      0.1519
     34  CDP       57.0390  -14.7350    1.3430 C.3   500  COA500      0.0056
     35  CEP       55.6780  -13.9150    3.2610 C.3   500  COA500      0.0056
     36  CAP       56.1310  -16.4730    2.9090 C.3   500  COA500      0.2312
     37  OAP       55.8060  -16.8180    4.2360 O.3   500  COA500     -0.2131
     38  C9P       54.9450  -16.7630    2.0180 C.2   500  COA500      0.2719
     39  O9P       53.6910  -16.2690    2.3410 O.2   500  COA500     -0.2706
     40  N8P       55.1160  -17.4730    0.9170 N.am  500  COA500     -0.2028
     41  C7P       54.0000  -17.6150   -0.0110 C.3   500  COA500      0.1248
     42  C6P       54.2180  -16.9630   -1.3760 C.3   500  COA500      0.1102
     43  C5P       52.9570  -17.0890   -2.1970 C.2   500  COA500      0.2432
     44  O5P       51.8570  -17.1310   -1.6370 O.2   500  COA500     -0.2733
     45  N4P       53.0740  -17.1270   -3.5340 N.am  500  COA500     -0.2044
     46  C3P       51.9850  -17.3870   -4.4690 C.3   500  COA500      0.1276
     47  C2P       51.4370  -16.1130   -5.0860 C.3   500  COA500      0.0920
     48  S1P       50.0600  -16.4600   -6.2280 S.3   500  COA500     -0.0802
@<TRIPOS>BOND
     1    48    47    1
     2    47    46    1
     3    46    45    1
     4    45    43   am
     5    43    44    2
     6    43    42    1
     7    42    41    1
     8     7     6    1
     9     1     6    2
    10     1     2    1
    11     6     5    1
    12    41    40    1
    13    40    38   am
    14     2     3    1
    15     5     8    2
    16     5     4    1
    17    34    32    1
    18     8     9    1
    19    38    39    2
    20    38    36    1
    21     3     4    2
    22     4    10    1
    23    32    36    1
    24    32    35    1
    25    32    33    1
    26     9    10    1
    27    36    37    1
    28    31    33    1
    29    31    28    1
    30    10    11    1
    31    29    28    2
    32    28    30    1
    33    28    27    1
    34    11    12    1
    35    11    21    1
    36    13    12    1
    37    12    14    1
    38    21    20    1
    39    26    24    2
    40    27    24    1
    41    23    24    1
    42    23    22    1
    43    24    25    1
    44    22    20    1
    45    14    20    1
    46    14    15    1
    47    15    16    1
    48    16    19    2
    49    16    18    1
    50    16    17    1
