@<TRIPOS>MOLECULE
2ii5_CO6_A_1.pdb
 31 33 0 0 0
SMALL
GASTEIGER

@<TRIPOS>ATOM
      1  N1A       63.0240  -23.1940   -0.1480 N.2   500  CO6500      0.0021
      2  C2A       63.2070  -23.9970    0.9670 C.3   500  CO6500      0.5254
      3  N3A       62.8520  -23.5390    2.2220 N.2   500  CO6500     -0.0055
      4  C4A       62.3290  -22.3050    2.3710 C.2   500  CO6500      0.3518
      5  C5A       62.1380  -21.4720    1.2690 C.2   500  CO6500      0.2526
      6  C6A       62.4900  -21.9140   -0.0150 C.2   500  CO6500      0.4393
      7  N6A       61.9990  -21.2210   -1.1430 N.pl3 500  CO6500      0.2180
      8  N7A       61.6020  -20.3110    1.7020 N.2   500  CO6500     -0.2095
      9  C8A       61.4430  -20.3940    3.0340 C.3   500  CO6500      0.3377
     10  N9A       61.8940  -21.6210    3.4690 N.pl3 500  CO6500     -0.1439
     11  C1B       62.2510  -21.9360    4.8620 C.3   500  CO6500      0.3185
     12  C2B       62.8640  -20.7260    5.5710 C.3   500  CO6500      0.2543
     13  O2B       64.2470  -20.6210    5.3200 O.3   500  CO6500     -0.2131
     14  C3B       62.6420  -21.1060    7.0060 C.3   500  CO6500      0.1928
     15  O3B       63.6720  -22.0280    7.2700 O.3   500  CO6500     -0.2673
     16  P3B       64.1570  -22.4500    8.7340 P.3   500  CO6500      0.5327
     17  O7A       63.1300  -21.9150    9.7260 O.3   500  CO6500     -0.1145
     18  O8A       65.5410  -21.8860    8.9800 O.3   500  CO6500     -0.1145
     19  O9A       64.2040  -23.9590    8.7710 O.2   500  CO6500     -0.2224
     20  C4B       61.2980  -21.8280    6.9690 C.3   500  CO6500      0.1795
     21  O4B       61.1200  -22.2990    5.6450 O.3   500  CO6500     -0.3136
     22  C5B       60.2000  -20.8130    7.2810 C.3   500  CO6500      0.1812
     23  O5B       60.5990  -19.5650    6.7080 O.3   500  CO6500     -0.3111
     24  P1A       59.4990  -18.4120    6.3910 P.3   500  CO6500      0.2231
     25  O1A       58.9410  -17.9990    7.7520 O.3   500  CO6500     -0.4370
     26  O2A       58.4550  -18.9790    5.4220 O.2   500  CO6500     -0.5169
     27  O3A       60.3210  -17.1700    5.7430 O.3   500  CO6500     -0.2261
     28  P2A       59.9550  -16.3270    4.3930 P.3   500  CO6500      0.5373
     29  O4A       60.8210  -16.9240    3.2800 O.2   500  CO6500     -0.2221
     30  O5A       60.2340  -14.8080    4.5810 O.3   500  CO6500     -0.1143
     31  O6A       58.3720  -16.5780    4.0210 O.3   500  CO6500     -0.1143
@<TRIPOS>BOND
     1     7     6    1
     2     1     6    2
     3     1     2    1
     4     6     5    1
     5     2     3    1
     6     5     8    2
     7     5     4    1
     8     8     9    1
     9     3     4    2
    10     4    10    1
    11     9    10    1
    12    29    28    2
    13    10    11    1
    14    31    28    1
    15    28    30    1
    16    28    27    1
    17    11    12    1
    18    11    21    1
    19    13    12    1
    20    26    24    2
    21    12    14    1
    22    21    20    1
    23    27    24    1
    24    24    23    1
    25    24    25    1
    26    23    22    1
    27    20    14    1
    28    20    22    1
    29    14    15    1
    30    15    16    1
    31    16    19    2
    32    16    18    1
    33    16    17    1
