@<TRIPOS>MOLECULE
2ii6_C5P_A_1.pdb
 21 22 0 0 0
SMALL
GASTEIGER

@<TRIPOS>ATOM
      1  O3P       10.8240   -3.5160   -6.8390 O.2   1427  C5P1427    -0.2224
      2  P         10.9590   -4.2940   -5.4690 P.3   1427  C5P1427     0.5327
      3  O1P        9.7170   -3.9720   -4.5190 O.3   1427  C5P1427    -0.1145
      4  O2P       11.1330   -5.8590   -5.6790 O.3   1427  C5P1427    -0.1145
      5  O5'       12.3060   -3.7440   -4.8130 O.3   1427  C5P1427    -0.2675
      6  C5'       12.6040   -4.2540   -3.5190 C.3   1427  C5P1427     0.1859
      7  C4'       13.8390   -3.5190   -3.0400 C.3   1427  C5P1427     0.1801
      8  O4'       15.0190   -3.7690   -3.8170 O.3   1427  C5P1427    -0.3320
      9  C3'       13.7110   -2.0160   -2.8300 C.3   1427  C5P1427     0.2158
     10  O3'       13.2530   -1.5850   -1.5470 O.3   1427  C5P1427    -0.2175
     11  C2'       15.0310   -1.4410   -3.2660 C.3   1427  C5P1427     0.2319
     12  O2'       15.7320   -1.2440   -2.0380 O.3   1427  C5P1427    -0.2157
     13  C1'       15.7990   -2.5720   -3.9360 C.3   1427  C5P1427     0.2400
     14  N1        16.2070   -2.2210   -5.3190 N.am  1427  C5P1427    -0.1778
     15  C2        17.4470   -1.5560   -5.4790 C.1   1427  C5P1427     0.2756
     16  N3        17.8780   -1.2280   -6.7230 N.2   1427  C5P1427    -0.3024
     17  C4        17.1250   -1.5430   -7.8080 C.2   1427  C5P1427     0.2346
     18  C5        15.9110   -2.2150   -7.6720 C.2   1427  C5P1427     0.0687
     19  C6        15.4660   -2.5580   -6.3910 C.2   1427  C5P1427     0.0836
     20  O2        18.1370   -1.2310   -4.4750 O.2   1427  C5P1427    -0.1925
     21  N4        17.5740   -1.2050   -9.0420 N.pl3 1427  C5P1427    -0.0921
@<TRIPOS>BOND
     1    21    17    1
     2    17    18    1
     3    17    16    2
     4    18    19    2
     5     1     2    2
     6    16    15    2
     7    19    14    1
     8     4     2    1
     9    15    14   am
    10    15    20    2
    11     2     5    1
    12     2     3    1
    13    14    13    1
    14     5     6    1
    15    13     8    1
    16    13    11    1
    17     8     7    1
    18     6     7    1
    19    11     9    1
    20    11    12    1
    21     7     9    1
    22     9    10    1
