@<TRIPOS>MOLECULE
2iib_C5P_A_1.pdb
 21 22 0 0 0
SMALL
GASTEIGER

@<TRIPOS>ATOM
      1  O3P       11.6980   -1.1780   -1.0860 O.2   1427  C5P1427    -0.2224
      2  P         11.7390   -0.4540    0.3280 P.3   1427  C5P1427     0.5327
      3  O1P       10.2920    0.0480    0.7150 O.3   1427  C5P1427    -0.1145
      4  O2P       12.7790    0.7350    0.3600 O.3   1427  C5P1427    -0.1145
      5  O5'       12.2540   -1.5400    1.3700 O.3   1427  C5P1427    -0.2675
      6  C5'       12.1790   -1.3040    2.7560 C.3   1427  C5P1427     0.1859
      7  C4'       12.3860   -2.6450    3.4250 C.3   1427  C5P1427     0.1801
      8  O4'       11.3430   -3.6140    3.1650 O.3   1427  C5P1427    -0.3320
      9  C3'       13.7110   -3.3520    3.1570 C.3   1427  C5P1427     0.2158
     10  O3'       14.8570   -3.0050    3.9050 O.3   1427  C5P1427    -0.2175
     11  C2'       13.3720   -4.8140    3.0570 C.3   1427  C5P1427     0.2319
     12  O2'       13.5220   -5.2930    4.3940 O.3   1427  C5P1427    -0.2157
     13  C1'       11.8820   -4.9180    2.9110 C.3   1427  C5P1427     0.2400
     14  N1        11.6780   -5.3370    1.5060 N.am  1427  C5P1427    -0.1778
     15  C2        11.7120   -6.7140    1.1950 C.1   1427  C5P1427     0.2756
     16  N3        11.5230   -7.1530   -0.0860 N.2   1427  C5P1427    -0.3024
     17  C4        11.3070   -6.2630   -1.0940 C.2   1427  C5P1427     0.2346
     18  C5        11.2790   -4.8960   -0.8120 C.2   1427  C5P1427     0.0687
     19  C6        11.4580   -4.4570    0.5020 C.2   1427  C5P1427     0.0836
     20  O2        11.9080   -7.5120    2.1310 O.2   1427  C5P1427    -0.1925
     21  N4        11.1280   -6.6830   -2.3730 N.pl3 1427  C5P1427    -0.0921
@<TRIPOS>BOND
     1    21    17    1
     2    17    18    1
     3    17    16    2
     4     1     2    2
     5    18    19    2
     6    16    15    2
     7     2     4    1
     8     2     3    1
     9     2     5    1
    10    19    14    1
    11    15    14   am
    12    15    20    2
    13     5     6    1
    14    14    13    1
    15     6     7    1
    16    13    11    1
    17    13     8    1
    18    11     9    1
    19    11    12    1
    20     9     7    1
    21     9    10    1
    22     8     7    1
