@<TRIPOS>MOLECULE
2iip_SAH_A_1.pdb
 26 28 0 0 0
SMALL
GASTEIGER

@<TRIPOS>ATOM
      1  N          1.4620   -2.5910   -1.8870 N.3   4001  SAH4001    -0.1159
      2  CA         2.6750   -3.3890   -2.3360 C.3   4001  SAH4001     0.2168
      3  CB         2.7370   -3.4790   -3.8660 C.2   4001  SAH4001     0.0105
      4  CG         3.1090   -2.2310   -4.6570 C.2   4001  SAH4001     0.0284
      5  SD         3.6690   -2.4940   -6.3840 S.3   4001  SAH4001    -0.1108
      6  C          3.9180   -2.7660   -1.7510 C.2   4001  SAH4001     0.3860
      7  O          3.7750   -1.8970   -0.8800 O.co2 4001  SAH4001    -0.2437
      8  OXT        5.0720   -3.0740   -2.0870 O.co2 4001  SAH4001    -0.2437
      9  C5'        2.1680   -1.8640   -7.1450 C.3   4001  SAH4001     0.0945
     10  C4'        0.9670   -2.7690   -7.0890 C.3   4001  SAH4001     0.1634
     11  O4'        0.0160   -2.0740   -7.8070 O.3   4001  SAH4001    -0.3152
     12  C3'        1.1400   -4.1110   -7.7790 C.3   4001  SAH4001     0.2168
     13  O3'        0.6890   -5.0370   -6.8340 O.3   4001  SAH4001    -0.2175
     14  C2'        0.2440   -4.0650   -9.0030 C.3   4001  SAH4001     0.2569
     15  O2'       -0.3760   -5.2930   -9.3140 O.3   4001  SAH4001    -0.2130
     16  C1'       -0.7490   -2.9970   -8.5680 C.3   4001  SAH4001     0.3185
     17  N9        -1.5710   -2.3640   -9.5860 N.pl3 4001  SAH4001    -0.1439
     18  C8        -1.2000   -1.9270  -10.8360 C.3   4001  SAH4001     0.3377
     19  N7        -2.2850   -1.4460  -11.4530 N.2   4001  SAH4001    -0.2095
     20  C5        -3.3410   -1.5020  -10.5950 C.2   4001  SAH4001     0.2526
     21  C6        -4.6880   -1.1090  -10.7260 C.2   4001  SAH4001     0.4393
     22  N6        -5.1690   -0.5000  -11.8010 N.pl3 4001  SAH4001     0.2180
     23  N1        -5.5240   -1.3070   -9.6730 N.2   4001  SAH4001     0.0021
     24  C2        -5.0810   -1.9110   -8.5070 C.3   4001  SAH4001     0.5254
     25  N3        -3.7740   -2.3140   -8.3840 N.2   4001  SAH4001    -0.0055
     26  C4        -2.9160   -2.0950   -9.4260 C.2   4001  SAH4001     0.3518
@<TRIPOS>BOND
     1    22    21    1
     2    19    18    1
     3    19    20    2
     4    18    17    1
     5    21    20    1
     6    21    23    2
     7    20    26    1
     8    23    24    1
     9    17    26    1
    10    17    16    1
    11    26    25    2
    12    15    14    1
    13    14    16    1
    14    14    12    1
    15    16    11    1
    16    24    25    1
    17    11    10    1
    18    12    10    1
    19    12    13    1
    20     9    10    1
    21     9     5    1
    22     5     4    1
    23     4     3    2
    24     3     2    1
    25     2     1    1
    26     2     6    1
    27     8     6   ar
    28     6     7   ar
