@<TRIPOS>MOLECULE
2iiq_C5P_A_1.pdb
 21 22 0 0 0
SMALL
GASTEIGER

@<TRIPOS>ATOM
      1  O3P       10.8380   -4.5430   -7.6700 O.3   1427  C5P1427    -0.1145
      2  P         11.4280   -5.7010   -6.7480 P.3   1427  C5P1427     0.5327
      3  O1P       11.9360   -6.8930   -7.6830 O.2   1427  C5P1427    -0.2224
      4  O2P       10.2970   -6.1100   -5.7010 O.3   1427  C5P1427    -0.1145
      5  O5'       12.6660   -5.1510   -5.9080 O.3   1427  C5P1427    -0.2675
      6  C5'       13.3000   -5.9730   -4.9390 C.3   1427  C5P1427     0.1859
      7  C4'       13.9980   -5.0020   -4.0070 C.3   1427  C5P1427     0.1801
      8  O4'       15.2210   -4.5350   -4.5650 O.3   1427  C5P1427    -0.3320
      9  C3'       13.1620   -3.7660   -3.7130 C.3   1427  C5P1427     0.2158
     10  O3'       12.9230   -3.7580   -2.3160 O.3   1427  C5P1427    -0.2175
     11  C2'       13.9670   -2.5460   -4.1120 C.3   1427  C5P1427     0.2319
     12  O2'       14.2240   -1.7570   -2.9750 O.3   1427  C5P1427    -0.2157
     13  C1'       15.2910   -3.0960   -4.6070 C.3   1427  C5P1427     0.2400
     14  N1        15.7830   -2.6130   -5.9050 N.am  1427  C5P1427    -0.1778
     15  C2        16.9700   -1.8570   -5.9280 C.1   1427  C5P1427     0.2756
     16  N3        17.4590   -1.4360   -7.1000 N.2   1427  C5P1427    -0.3024
     17  C4        16.8380   -1.7190   -8.2640 C.2   1427  C5P1427     0.2346
     18  C5        15.6700   -2.4750   -8.2690 C.2   1427  C5P1427     0.0687
     19  C6        15.1640   -2.9210   -7.0570 C.2   1427  C5P1427     0.0836
     20  O2        17.5760   -1.5790   -4.8750 O.2   1427  C5P1427    -0.1925
     21  N4        17.3680   -1.2550   -9.4250 N.pl3 1427  C5P1427    -0.0921
@<TRIPOS>BOND
     1    21    17    1
     2    18    17    1
     3    18    19    2
     4    17    16    2
     5     3     2    2
     6     1     2    1
     7    16    15    2
     8    19    14    1
     9     2     5    1
    10     2     4    1
    11    15    14   am
    12    15    20    2
    13     5     6    1
    14    14    13    1
    15     6     7    1
    16    13     8    1
    17    13    11    1
    18     8     7    1
    19    11     9    1
    20    11    12    1
    21     7     9    1
    22     9    10    1
