@<TRIPOS>MOLECULE
2iit_872_A_1.pdb
 28 29 0 0 0
SMALL
GASTEIGER

@<TRIPOS>ATOM
      1  C1        34.5060   50.2940   36.6290 C.ar  9001  8729001     0.0612
      2  C2        35.8380   50.8090   36.6640 C.ar  9001  8729001     0.1386
      3  C3        37.0040   49.9930   36.3950 C.ar  9001  8729001     0.0091
      4  C4        36.8100   48.6200   36.0840 C.ar  9001  8729001     0.0300
      5  C5        35.4910   48.0950   36.0480 C.ar  9001  8729001     0.1672
      6  C6        34.3490   48.9130   36.3110 C.ar  9001  8729001     0.1696
      7  F9        35.3270   46.8250   35.7560 F     9001  8729001    -0.2018
      8  F10       36.0070   52.0830   36.9620 F     9001  8729001    -0.2044
      9  C11       38.3900   50.5640   36.4280 C.3   9001  8729001     0.0482
     10  C12       39.0600   50.8350   34.9990 C.3   9001  8729001     0.1053
     11  C15       40.3430   51.6390   35.2880 C.3   9001  8729001     0.1046
     12  C16       41.5090   50.8440   36.0310 C.2   9001  8729001     0.2278
     13  N19       42.6970   51.5460   36.3720 N.am  9001  8729001    -0.2671
     14  N20       38.2160   51.5680   34.3990 N.3   9001  8729001    -0.1320
     15  O22       41.3470   49.6470   36.3160 O.2   9001  8729001    -0.2748
     16  C25       43.2020   52.6530   35.4770 C.3   9001  8729001     0.0965
     17  C26       44.1280   52.1160   34.3920 C.3   9001  8729001     0.0487
     18  C27       45.3350   51.3840   34.9880 C.3   9001  8729001     0.1394
     19  N28       45.0380   50.6120   36.1920 N.2   9001  8729001    -0.2049
     20  C29       44.8420   50.5180   37.4650 C.1   9001  8729001     0.1444
     21  C30       43.3710   51.0860   37.6760 C.3   9001  8729001     0.1908
     22  C37       42.9910   51.0400   39.2170 C.3   9001  8729001     0.1402
     23  O39       45.5080   50.1230   38.3960 O.2   9001  8729001    -0.2254
     24  F41       33.1400   48.3780   36.2630 F     9001  8729001    -0.2017
     25  C42       41.7010   50.3040   39.6050 C.3   9001  8729001     0.4005
     26  F45       41.5430   50.3580   40.9130 F     9001  8729001    -0.1699
     27  F46       41.7610   49.0300   39.2640 F     9001  8729001    -0.1699
     28  F47       40.6390   50.8310   39.0300 F     9001  8729001    -0.1699
@<TRIPOS>BOND
     1    17    18    1
     2    17    16    1
     3    14    10    1
     4    18    19    1
     5    10    11    1
     6    10     9    1
     7    11    12    1
     8    16    13    1
     9     7     5    1
    10    12    15    2
    11    12    13   am
    12     5     4   ar
    13     5     6   ar
    14     4     3   ar
    15    19    20    2
    16    24     6    1
    17     6     1   ar
    18    13    21    1
    19     3     9    1
    20     3     2   ar
    21     1     2   ar
    22     2     8    1
    23    20    21    1
    24    20    23    2
    25    21    22    1
    26    28    25    1
    27    22    25    1
    28    27    25    1
    29    25    26    1
