@<TRIPOS>MOLECULE
2iit_NAG_A_1.pdb
 14 14 0 0 0
SMALL
GASTEIGER

@<TRIPOS>ATOM
      1  C1        69.9670   74.2580   56.5590 C.3   1085  NAG1085     0.1665
      2  C2        69.6690   75.4490   55.6100 C.3   1085  NAG1085     0.1576
      3  C3        70.9300   75.9000   54.8550 C.3   1085  NAG1085     0.2069
      4  C4        71.9330   76.2520   55.9480 C.3   1085  NAG1085     0.2134
      5  C5        72.2820   74.9780   56.7160 C.3   1085  NAG1085     0.1809
      6  C6        73.3620   75.2180   57.7770 C.3   1085  NAG1085     0.2141
      7  C7        67.3800   75.4540   54.8760 C.2   1085  NAG1085     0.2420
      8  C8        66.3410   75.0420   53.8470 C.3   1085  NAG1085     0.0964
      9  N2        68.6380   75.0830   54.6580 N.am  1085  NAG1085    -0.2019
     10  O3        70.6190   77.0330   54.0480 O.3   1085  NAG1085    -0.2184
     11  O4        73.1360   76.9300   55.4950 O.3   1085  NAG1085    -0.2176
     12  O5        71.1020   74.5080   57.4110 O.3   1085  NAG1085    -0.3489
     13  O6        74.2930   74.1410   57.8280 O.3   1085  NAG1085    -0.2176
     14  O7        67.0350   76.1110   55.8690 O.2   1085  NAG1085    -0.2733
@<TRIPOS>BOND
     1     8     7    1
     2    10     3    1
     3     9     7   am
     4     9     2    1
     5     3     2    1
     6     3     4    1
     7     7    14    2
     8    11     4    1
     9     2     1    1
    10     4     5    1
    11     1    12    1
    12     5    12    1
    13     5     6    1
    14     6    13    1
