@<TRIPOS>MOLECULE
2iiv_NAG_A_1.pdb
 14 14 0 0 0
SMALL
GASTEIGER

@<TRIPOS>ATOM
      1  C1        70.1010   74.4370   56.5690 C.3   1085  NAG1085     0.1665
      2  C2        69.7670   75.6600   55.6870 C.3   1085  NAG1085     0.1576
      3  C3        70.9920   76.2080   54.9330 C.3   1085  NAG1085     0.2069
      4  C4        72.0810   76.4500   55.9640 C.3   1085  NAG1085     0.2134
      5  C5        72.4420   75.0990   56.5780 C.3   1085  NAG1085     0.1809
      6  C6        73.6290   75.1870   57.5390 C.3   1085  NAG1085     0.2141
      7  C7        67.4770   75.6650   54.9220 C.2   1085  NAG1085     0.2420
      8  C8        66.4680   75.2330   53.8730 C.3   1085  NAG1085     0.0964
      9  N2        68.7390   75.2900   54.7320 N.am  1085  NAG1085    -0.2019
     10  O3        70.6530   77.4320   54.2770 O.3   1085  NAG1085    -0.2184
     11  O4        73.2450   77.1470   55.4300 O.3   1085  NAG1085    -0.2176
     12  O5        71.3090   74.6170   57.3390 O.3   1085  NAG1085    -0.3489
     13  O6        73.9800   73.9100   58.0740 O.3   1085  NAG1085    -0.2176
     14  O7        67.1060   76.3370   55.8940 O.2   1085  NAG1085    -0.2733
@<TRIPOS>BOND
     1     8     7    1
     2    10     3    1
     3     9     7   am
     4     9     2    1
     5     7    14    2
     6     3     2    1
     7     3     4    1
     8    11     4    1
     9     2     1    1
    10     4     5    1
    11     1    12    1
    12     5    12    1
    13     5     6    1
    14     6    13    1
