@<TRIPOS>MOLECULE
2iiv_565_A_1.pdb
 24 25 0 0 0
SMALL
GASTEIGER

@<TRIPOS>ATOM
      1  C1        34.7000   50.5500   36.5840 C.ar  9001  5659001     0.0612
      2  C2        36.0540   51.0710   36.7240 C.ar  9001  5659001     0.1386
      3  C3        37.2430   50.2260   36.5190 C.ar  9001  5659001     0.0091
      4  C4        37.0720   48.7950   36.1500 C.ar  9001  5659001     0.0300
      5  C5        35.7340   48.2770   36.0150 C.ar  9001  5659001     0.1672
      6  C6        34.5550   49.1490   36.2190 C.ar  9001  5659001     0.1696
      7  F9        35.5850   47.0200   35.6890 F     9001  5659001    -0.2018
      8  F10       36.2030   52.3330   37.0530 F     9001  5659001    -0.2044
      9  C11       38.5740   50.8570   36.6630 C.3   9001  5659001     0.0482
     10  C12       39.1390   51.0660   35.1800 C.3   9001  5659001     0.1053
     11  C15       40.3530   51.6800   35.4530 C.3   9001  5659001     0.1046
     12  C16       41.5560   50.7780   36.0350 C.2   9001  5659001     0.2278
     13  N19       42.7820   51.3560   36.2440 N.am  9001  5659001    -0.2673
     14  N20       38.1960   51.9020   34.3830 N.3   9001  5659001    -0.1320
     15  O22       41.3270   49.6030   36.2840 O.2   9001  5659001    -0.2748
     16  C25       43.1670   52.8320   35.9440 C.3   9001  5659001     0.0965
     17  C26       43.4840   52.7220   34.5340 C.3   9001  5659001     0.0487
     18  C27       44.7480   51.9710   34.1250 C.3   9001  5659001     0.1394
     19  N28       45.5590   51.4650   35.3340 N.2   9001  5659001    -0.2049
     20  C29       45.2520   50.7720   36.5430 C.1   9001  5659001     0.1441
     21  C30       43.7280   50.3240   36.8810 C.3   9001  5659001     0.1823
     22  C37       43.8140   50.2170   38.4110 C.3   9001  5659001     0.0399
     23  O42       46.1800   50.5780   37.2490 O.2   9001  5659001    -0.2254
     24  F44       33.3870   48.6660   36.0840 F     9001  5659001    -0.2017
@<TRIPOS>BOND
     1    18    17    1
     2    18    19    1
     3    14    10    1
     4    17    16    1
     5    10    11    1
     6    10     9    1
     7    19    20    2
     8    11    12    1
     9     7     5    1
    10    16    13    1
    11     5     4   ar
    12     5     6   ar
    13    12    13   am
    14    12    15    2
    15    24     6    1
    16     4     3   ar
    17     6     1   ar
    18    13    21    1
    19     3     9    1
    20     3     2   ar
    21    20    21    1
    22    20    23    2
    23     1     2   ar
    24     2     8    1
    25    21    22    1
