@<TRIPOS>MOLECULE
2iiz_HEM_A_1.pdb
 43 50 0 0 0
SMALL
GASTEIGER

@<TRIPOS>ATOM
      1  CHA      -31.7580  -14.1270  -21.3780 C.2   400  HEM400      0.0000
      2  CHB      -30.2190  -12.2260  -17.2280 C.2   400  HEM400      0.0000
      3  CHC      -25.9710  -11.2210  -19.1830 C.2   400  HEM400      0.0000
      4  CHD      -27.2690  -13.5950  -23.1430 C.2   400  HEM400      0.0000
      5  C1A      -31.7230  -13.6670  -20.0880 C.2   400  HEM400      0.0000
      6  C2A      -32.8370  -13.6800  -19.1640 C.2   400  HEM400      0.0000
      7  C3A      -32.3890  -13.1470  -18.0130 C.2   400  HEM400      0.0000
      8  C4A      -31.0040  -12.7980  -18.1860 C.2   400  HEM400      0.0000
      9  CMA      -33.1760  -12.9250  -16.7110 C.3   400  HEM400      0.0000
     10  CAA      -34.2560  -14.2140  -19.4780 C.3   400  HEM400      0.0000
     11  CBA      -34.4010  -15.7080  -19.1240 C.3   400  HEM400      0.0000
     12  CGA      -33.7560  -16.5840  -20.1750 C.2   400  HEM400      0.0000
     13  O1A      -32.6640  -17.1700  -19.9130 O.co2 400  HEM400      0.0000
     14  O2A      -34.3280  -16.7130  -21.2920 O.co2 400  HEM400      0.0000
     15  C1B      -28.9480  -11.7790  -17.4110 C.ar  400  HEM400      0.0000
     16  C2B      -28.1620  -11.0960  -16.4060 C.ar  400  HEM400      0.0000
     17  C3B      -26.9740  -10.8160  -16.9550 C.ar  400  HEM400      0.0000
     18  C4B      -26.9940  -11.3190  -18.3070 C.ar  400  HEM400      0.0000
     19  CMB      -28.6830  -10.7890  -14.9830 C.3   400  HEM400      0.0000
     20  CAB      -25.7530  -10.1040  -16.3520 C.2   400  HEM400      0.0000
     21  CBB      -25.9010   -9.1150  -15.4820 C.2   400  HEM400      0.0000
     22  C1C      -25.9760  -11.7600  -20.4310 C.2   400  HEM400      0.0000
     23  C2C      -24.8910  -11.6350  -21.3680 C.2   400  HEM400      0.0000
     24  C3C      -25.2430  -12.2930  -22.4760 C.2   400  HEM400      0.0000
     25  C4C      -26.5620  -12.8500  -22.2470 C.2   400  HEM400      0.0000
     26  CMC      -23.6020  -10.8580  -21.0560 C.3   400  HEM400      0.0000
     27  CAC      -24.4500  -12.4710  -23.7850 C.2   400  HEM400      0.0000
     28  CBC      -23.2410  -11.9430  -24.0200 C.2   400  HEM400      0.0000
     29  C1D      -28.5770  -13.9790  -23.0320 C.ar  400  HEM400      0.0000
     30  C2D      -29.2760  -14.7700  -24.0100 C.ar  400  HEM400      0.0000
     31  C3D      -30.6800  -14.9360  -23.4600 C.ar  400  HEM400      0.0000
     32  C4D      -30.6780  -14.2270  -22.2070 C.ar  400  HEM400      0.0000
     33  CMD      -28.7080  -15.3170  -25.3370 C.3   400  HEM400      0.0000
     34  CAD      -31.8670  -15.6860  -24.0860 C.3   400  HEM400      0.0000
     35  CBD      -32.7190  -14.6670  -24.8250 C.3   400  HEM400      0.0000
     36  CGD      -33.7430  -15.3180  -25.7250 C.2   400  HEM400      0.0000
     37  O1D      -34.9580  -15.2970  -25.3570 O.co2 400  HEM400      0.0000
     38  O2D      -33.3390  -15.8450  -26.7940 O.co2 400  HEM400      0.0000
     39  NA       -30.6140  -13.1220  -19.4660 N.2   400  HEM400      0.0000
     40  NB       -28.2070  -11.9050  -18.5660 N.ar  400  HEM400      0.0000
     41  NC       -26.9890  -12.5090  -20.9820 N.2   400  HEM400      0.0000
     42  ND       -29.4280  -13.6780  -21.9860 N.ar  400  HEM400      0.0000
     43 FE        -28.8840  -12.6160  -20.2930 Fe    400  HEM400      0.0000
@<TRIPOS>BOND
     1    38    36   ar
     2    36    37   ar
     3    36    35    1
     4    33    30    1
     5    35    34    1
     6    34    31    1
     7    28    27    2
     8    30    31   ar
     9    30    29   ar
    10    27    24    1
    11    31    32   ar
    12     4    29    2
    13     4    25    1
    14    29    42   ar
    15    24    25    1
    16    24    23    2
    17    25    41    2
    18    32    42   ar
    19    32     1    2
    20    42    43    1
    21     1     5    1
    22    23    26    1
    23    23    22    1
    24    14    12   ar
    25    41    22    1
    26    41    43    1
    27    22     3    2
    28    43    39    1
    29    43    40    1
    30    12    13   ar
    31    12    11    1
    32     5    39    2
    33     5     6    1
    34    10     6    1
    35    10    11    1
    36    39     8    1
    37     3    18    1
    38     6     7    2
    39    40    18   ar
    40    40    15   ar
    41    18    17   ar
    42     8     7    1
    43     8     2    2
    44     7     9    1
    45    15     2    1
    46    15    16   ar
    47    17    16   ar
    48    17    20    1
    49    16    19    1
    50    20    21    2
