@<TRIPOS>MOLECULE
2ij2_HEM_A_1.pdb
 43 50 0 0 0
SMALL
GASTEIGER

@<TRIPOS>ATOM
      1 FE         48.2460   26.5060   35.6340 Fe    999  HEM999      0.0000
      2  CHA       47.1850   24.1370   33.3880 C.2   999  HEM999      0.0000
      3  CHB       47.8220   24.2570   38.1680 C.2   999  HEM999      0.0000
      4  CHC       49.1010   28.8850   37.8930 C.2   999  HEM999      0.0000
      5  CHD       48.2190   28.8830   33.1480 C.2   999  HEM999      0.0000
      6  NA        47.5860   24.5390   35.7580 N.2   999  HEM999      0.0000
      7  C1A       47.2340   23.7300   34.7030 C.2   999  HEM999      0.0000
      8  C2A       46.9810   22.4120   35.2310 C.2   999  HEM999      0.0000
      9  C3A       47.1490   22.4480   36.5430 C.2   999  HEM999      0.0000
     10  C4A       47.5210   23.7790   36.8990 C.2   999  HEM999      0.0000
     11  CMA       46.9550   21.3040   37.5520 C.3   999  HEM999      0.0000
     12  CAA       46.5600   21.2010   34.3760 C.3   999  HEM999      0.0000
     13  CBA       45.0440   21.1390   34.2080 C.3   999  HEM999      0.0000
     14  CGA       44.4690   19.9020   33.5520 C.2   999  HEM999      0.0000
     15  O1A       45.1820   18.8930   33.3720 O.co2 999  HEM999      0.0000
     16  O2A       43.2550   19.9630   33.1980 O.co2 999  HEM999      0.0000
     17  NB        48.3160   26.5980   37.6690 N.ar  999  HEM999      0.0000
     18  C1B       48.2320   25.5360   38.5450 C.ar  999  HEM999      0.0000
     19  C2B       48.6170   25.9720   39.8610 C.ar  999  HEM999      0.0000
     20  C3B       48.9890   27.2370   39.7640 C.ar  999  HEM999      0.0000
     21  C4B       48.8200   27.6450   38.3990 C.ar  999  HEM999      0.0000
     22  CMB       48.5760   25.0620   41.0430 C.3   999  HEM999      0.0000
     23  CAB       49.4910   28.1700   40.8430 C.2   999  HEM999      0.0000
     24  CBB       50.0920   27.7770   41.9590 C.2   999  HEM999      0.0000
     25  NC        48.5670   28.5430   35.5390 N.2   999  HEM999      0.0000
     26  C1C       49.0580   29.3240   36.5710 C.2   999  HEM999      0.0000
     27  C2C       49.3580   30.6380   36.0550 C.2   999  HEM999      0.0000
     28  C3C       49.1050   30.6430   34.7470 C.2   999  HEM999      0.0000
     29  C4C       48.6140   29.3370   34.4130 C.2   999  HEM999      0.0000
     30  CMC       49.9030   31.7710   36.8870 C.3   999  HEM999      0.0000
     31  CAC       49.2570   31.7480   33.7300 C.2   999  HEM999      0.0000
     32  CBC       50.0840   32.7730   33.8620 C.2   999  HEM999      0.0000
     33  ND        47.7540   26.5060   33.6230 N.ar  999  HEM999      0.0000
     34  C1D       47.8590   27.6050   32.7890 C.ar  999  HEM999      0.0000
     35  C2D       47.5750   27.1790   31.4530 C.ar  999  HEM999      0.0000
     36  C3D       47.2860   25.7750   31.5090 C.ar  999  HEM999      0.0000
     37  C4D       47.3890   25.4060   32.8740 C.ar  999  HEM999      0.0000
     38  CMD       47.5150   28.0340   30.2110 C.3   999  HEM999      0.0000
     39  CAD       46.9900   24.8760   30.3330 C.3   999  HEM999      0.0000
     40  CBD       48.2790   24.3190   29.7170 C.3   999  HEM999      0.0000
     41  CGD       48.0320   23.4130   28.5350 C.2   999  HEM999      0.0000
     42  O1D       48.6490   23.6130   27.4580 O.co2 999  HEM999      0.0000
     43  O2D       47.1750   22.5000   28.6710 O.co2 999  HEM999      0.0000
@<TRIPOS>BOND
     1    42    41   ar
     2    41    43   ar
     3    41    40    1
     4    40    39    1
     5    38    35    1
     6    39    36    1
     7    35    36   ar
     8    35    34   ar
     9    36    37   ar
    10    34     5    2
    11    34    33   ar
    12    37     2    2
    13    37    33   ar
    14     5    29    1
    15    16    14   ar
    16    15    14   ar
    17     2     7    1
    18    14    13    1
    19    33     1    1
    20    31    32    2
    21    31    28    1
    22    13    12    1
    23    12     8    1
    24    29    28    1
    25    29    25    2
    26     7     8    1
    27     7     6    2
    28    28    27    2
    29     8     9    2
    30    25     1    1
    31    25    26    1
    32     1     6    1
    33     1    17    1
    34     6    10    1
    35    27    26    1
    36    27    30    1
    37     9    10    1
    38     9    11    1
    39    26     4    2
    40    10     3    2
    41    17    21   ar
    42    17    18   ar
    43     4    21    1
    44     3    18    1
    45    21    20   ar
    46    18    19   ar
    47    20    19   ar
    48    20    23    1
    49    19    22    1
    50    23    24    2
