@<TRIPOS>MOLECULE
2ij3_HEM_A_1.pdb
 43 50 0 0 0
SMALL
GASTEIGER

@<TRIPOS>ATOM
      1 FE          0.9570   -1.7000   16.3760 Fe    999  HEM999      0.0000
      2  CHA       -1.2310   -3.8440   17.9560 C.2   999  HEM999      0.0000
      3  CHB        3.6110   -3.6850   17.4650 C.2   999  HEM999      0.0000
      4  CHC        3.1840    0.4120   14.8420 C.2   999  HEM999      0.0000
      5  CHD       -1.6360    0.3460   15.4400 C.2   999  HEM999      0.0000
      6  NA         1.1610   -3.4440   17.5120 N.2   999  HEM999      0.0000
      7  C1A        0.1130   -4.1580   18.0690 C.2   999  HEM999      0.0000
      8  C2A        0.6830   -5.2990   18.7640 C.2   999  HEM999      0.0000
      9  C3A        2.0180   -5.2560   18.6220 C.2   999  HEM999      0.0000
     10  C4A        2.3440   -4.0840   17.8380 C.2   999  HEM999      0.0000
     11  CMA        3.0590   -6.2550   19.1890 C.3   999  HEM999      0.0000
     12  CAA       -0.1180   -6.3780   19.5420 C.3   999  HEM999      0.0000
     13  CBA       -0.3010   -5.9090   20.9850 C.3   999  HEM999      0.0000
     14  CGA       -0.9390   -6.9420   21.8830 C.2   999  HEM999      0.0000
     15  O1A       -1.1220   -8.1030   21.4560 O.co2 999  HEM999      0.0000
     16  O2A       -1.2690   -6.5760   23.0510 O.co2 999  HEM999      0.0000
     17  NB         3.0120   -1.6470   16.2320 N.ar  999  HEM999      0.0000
     18  C1B        3.9180   -2.5730   16.7040 C.ar  999  HEM999      0.0000
     19  C2B        5.2320   -2.1970   16.2410 C.ar  999  HEM999      0.0000
     20  C3B        5.1030   -1.0640   15.5200 C.ar  999  HEM999      0.0000
     21  C4B        3.7030   -0.6890   15.4990 C.ar  999  HEM999      0.0000
     22  CMB        6.5290   -2.9890   16.5690 C.3   999  HEM999      0.0000
     23  CAB        6.1780   -0.2280   14.8040 C.2   999  HEM999      0.0000
     24  CBB        7.2470   -0.7830   14.2160 C.2   999  HEM999      0.0000
     25  NC         0.8140    0.0720   15.3360 N.2   999  HEM999      0.0000
     26  C1C        1.8510    0.7780   14.7560 C.2   999  HEM999      0.0000
     27  C2C        1.2870    1.9420   14.0800 C.2   999  HEM999      0.0000
     28  C3C       -0.0530    1.9050   14.2660 C.2   999  HEM999      0.0000
     29  C4C       -0.3690    0.7170   15.0360 C.2   999  HEM999      0.0000
     30  CMC        2.1090    3.0130   13.3070 C.3   999  HEM999      0.0000
     31  CAC       -1.1840    2.8510   13.7830 C.2   999  HEM999      0.0000
     32  CBC       -0.9960    3.9570   13.0470 C.2   999  HEM999      0.0000
     33  ND        -1.1480   -1.7430   16.6450 N.ar  999  HEM999      0.0000
     34  C1D       -2.0020   -0.7570   16.1930 C.ar  999  HEM999      0.0000
     35  C2D       -3.3490   -1.0900   16.6000 C.ar  999  HEM999      0.0000
     36  C3D       -3.2140   -2.3960   17.3780 C.ar  999  HEM999      0.0000
     37  C4D       -1.8090   -2.7320   17.3610 C.ar  999  HEM999      0.0000
     38  CMD       -4.6480   -0.2840   16.3160 C.3   999  HEM999      0.0000
     39  CAD       -4.3470   -3.1900   18.0200 C.3   999  HEM999      0.0000
     40  CBD       -4.8730   -4.1010   16.8970 C.3   999  HEM999      0.0000
     41  CGD       -6.0090   -4.9730   17.3720 C.2   999  HEM999      0.0000
     42  O1D       -7.0700   -5.0200   16.6830 O.co2 999  HEM999      0.0000
     43  O2D       -5.8400   -5.6270   18.4300 O.co2 999  HEM999      0.0000
@<TRIPOS>BOND
     1    32    31    2
     2    30    27    1
     3    31    28    1
     4    27    28    2
     5    27    26    1
     6    24    23    2
     7    28    29    1
     8    26     4    2
     9    26    25    1
    10    23    20    1
    11     4    21    1
    12    29    25    2
    13    29     5    1
    14    25     1    1
    15     5    34    2
    16    21    20   ar
    17    21    17   ar
    18    20    19   ar
    19    34    35   ar
    20    34    33   ar
    21    17     1    1
    22    17    18   ar
    23    19    22    1
    24    19    18   ar
    25    38    35    1
    26     1    33    1
    27     1     6    1
    28    35    36   ar
    29    33    37   ar
    30    42    41   ar
    31    18     3    1
    32    40    41    1
    33    40    39    1
    34    37    36   ar
    35    37     2    2
    36    41    43   ar
    37    36    39    1
    38     3    10    2
    39     6    10    1
    40     6     7    2
    41    10     9    1
    42     2     7    1
    43     7     8    1
    44     9     8    2
    45     9    11    1
    46     8    12    1
    47    12    13    1
    48    13    14    1
    49    15    14   ar
    50    14    16   ar
