@<TRIPOS>MOLECULE
2ij4_HEM_A_1.pdb
 43 50 0 0 0
SMALL
GASTEIGER

@<TRIPOS>ATOM
      1 FE         11.8930   38.7400   15.2980 Fe    471  HEM471      0.0000
      2  CHA       14.0610   40.0320   12.8250 C.2   471  HEM471      0.0000
      3  CHB        9.3080   38.9740   13.0980 C.2   471  HEM471      0.0000
      4  CHC        9.7740   37.4170   17.6840 C.2   471  HEM471      0.0000
      5  CHD       14.3530   39.2060   17.6450 C.2   471  HEM471      0.0000
      6  NA        11.7370   39.3570   13.3420 N.ar  471  HEM471      0.0000
      7  C1A       12.7300   39.8770   12.4950 C.ar  471  HEM471      0.0000
      8  C2A       12.1370   40.2260   11.2170 C.ar  471  HEM471      0.0000
      9  C3A       10.8310   39.9080   11.2970 C.ar  471  HEM471      0.0000
     10  C4A       10.5550   39.3670   12.6250 C.ar  471  HEM471      0.0000
     11  CMA        9.8050   40.0910   10.1670 C.3   471  HEM471      0.0000
     12  CAA       12.8690   40.8030    9.9750 C.3   471  HEM471      0.0000
     13  CBA       12.8060   42.3350    9.9200 C.3   471  HEM471      0.0000
     14  CGA       13.3320   42.9070    8.6200 C.2   471  HEM471      0.0000
     15  O1A       13.6680   42.1580    7.6680 O.co2 471  HEM471      0.0000
     16  O2A       13.4330   44.1640    8.5080 O.co2 471  HEM471      0.0000
     17  NB         9.8460   38.3500   15.4080 N.2   471  HEM471      0.0000
     18  C1B        8.9950   38.4120   14.3310 C.2   471  HEM471      0.0000
     19  C2B        7.7410   37.8080   14.7250 C.2   471  HEM471      0.0000
     20  C3B        7.8720   37.3630   15.9920 C.2   471  HEM471      0.0000
     21  C4B        9.2090   37.6940   16.4500 C.2   471  HEM471      0.0000
     22  CMB        6.5110   37.7060   13.7860 C.3   471  HEM471      0.0000
     23  CAB        6.8410   36.6430   16.9020 C.2   471  HEM471      0.0000
     24  CBB        5.7690   36.0050   16.4490 C.2   471  HEM471      0.0000
     25  NC        12.0090   38.4330   17.2880 N.ar  471  HEM471      0.0000
     26  C1C       11.0760   37.7130   18.0500 C.ar  471  HEM471      0.0000
     27  C2C       11.7230   37.3380   19.3020 C.ar  471  HEM471      0.0000
     28  C3C       12.9930   37.8650   19.3000 C.ar  471  HEM471      0.0000
     29  C4C       13.1880   38.5570   18.0290 C.ar  471  HEM471      0.0000
     30  CMC       10.9840   36.5140   20.4010 C.3   471  HEM471      0.0000
     31  CAC       14.1420   37.7590   20.3640 C.2   471  HEM471      0.0000
     32  CBC       14.0560   36.9040   21.4050 C.2   471  HEM471      0.0000
     33  ND        13.9460   39.5140   15.2290 N.2   471  HEM471      0.0000
     34  C1D       14.7210   39.6300   16.3840 C.2   471  HEM471      0.0000
     35  C2D       15.9630   40.2630   16.0250 C.2   471  HEM471      0.0000
     36  C3D       15.8730   40.5010   14.5210 C.2   471  HEM471      0.0000
     37  C4D       14.5760   40.0140   14.1090 C.2   471  HEM471      0.0000
     38  CMD       17.1630   40.6330   16.9150 C.3   471  HEM471      0.0000
     39  CAD       16.9640   41.1140   13.6360 C.3   471  HEM471      0.0000
     40  CBD       17.7040   39.8670   13.1330 C.3   471  HEM471      0.0000
     41  CGD       18.8850   40.2610   12.2600 C.2   471  HEM471      0.0000
     42  O1D       20.0220   39.7970   12.5450 O.co2 471  HEM471      0.0000
     43  O2D       18.6930   41.0500   11.2900 O.co2 471  HEM471      0.0000
@<TRIPOS>BOND
     1    15    14   ar
     2    16    14   ar
     3    14    13    1
     4    13    12    1
     5    12     8    1
     6    11     9    1
     7     8     9   ar
     8     8     7   ar
     9    43    41   ar
    10     9    10   ar
    11    41    42   ar
    12    41    40    1
    13     7     2    2
    14     7     6   ar
    15    10     3    2
    16    10     6   ar
    17     2    37    1
    18     3    18    1
    19    40    39    1
    20     6     1    1
    21    39    36    1
    22    22    19    1
    23    37    36    1
    24    37    33    2
    25    18    19    1
    26    18    17    2
    27    36    35    2
    28    19    20    2
    29    33     1    1
    30    33    34    1
    31     1    17    1
    32     1    25    1
    33    17    21    1
    34    20    21    1
    35    20    23    1
    36    35    34    1
    37    35    38    1
    38    34     5    2
    39    24    23    2
    40    21     4    2
    41    25    29   ar
    42    25    26   ar
    43     5    29    1
    44     4    26    1
    45    29    28   ar
    46    26    27   ar
    47    28    27   ar
    48    28    31    1
    49    27    30    1
    50    31    32    2
