@<TRIPOS>MOLECULE
2ij5_HEM_A_1.pdb
 43 50 0 0 0
SMALL
GASTEIGER

@<TRIPOS>ATOM
      1 FE         13.3870   41.4800  130.2640 Fe    462  HEM462      0.0000
      2  CHA       12.9440   43.4680  127.5860 C.2   462  HEM462      0.0000
      3  CHB        9.9710   41.4430  130.8130 C.2   462  HEM462      0.0000
      4  CHC       13.8350   39.4220  132.8900 C.2   462  HEM462      0.0000
      5  CHD       16.7290   42.2180  130.3060 C.2   462  HEM462      0.0000
      6  NA        11.7860   42.3070  129.3660 N.2   462  HEM462      0.0000
      7  C1A       11.8120   43.0430  128.2070 C.2   462  HEM462      0.0000
      8  C2A       10.4720   43.2700  127.7390 C.2   462  HEM462      0.0000
      9  C3A        9.6510   42.7120  128.6500 C.2   462  HEM462      0.0000
     10  C4A       10.4350   42.1230  129.6930 C.2   462  HEM462      0.0000
     11  CMA        8.1300   42.7410  128.6070 C.3   462  HEM462      0.0000
     12  CAA       10.0990   44.0070  126.4140 C.3   462  HEM462      0.0000
     13  CBA       10.0890   45.5190  126.5750 C.3   462  HEM462      0.0000
     14  CGA        9.5750   46.1840  125.3410 C.2   462  HEM462      0.0000
     15  O1A        9.3890   45.5280  124.2810 O.co2 462  HEM462      0.0000
     16  O2A        9.3770   47.4390  125.3950 O.co2 462  HEM462      0.0000
     17  NB        12.1210   40.6730  131.6560 N.ar  462  HEM462      0.0000
     18  C1B       10.7460   40.6870  131.6550 C.ar  462  HEM462      0.0000
     19  C2B       10.2750   39.8050  132.7270 C.ar  462  HEM462      0.0000
     20  C3B       11.3660   39.2340  133.3080 C.ar  462  HEM462      0.0000
     21  C4B       12.5430   39.7670  132.6070 C.ar  462  HEM462      0.0000
     22  CMB        8.7920   39.6520  133.0290 C.3   462  HEM462      0.0000
     23  CAB       11.4470   38.2370  134.4860 C.2   462  HEM462      0.0000
     24  CBB       10.3640   37.5620  134.8680 C.2   462  HEM462      0.0000
     25  NC        14.9510   40.9750  131.4060 N.2   462  HEM462      0.0000
     26  C1C       14.9740   39.9480  132.3440 C.2   462  HEM462      0.0000
     27  C2C       16.3420   39.5970  132.6930 C.2   462  HEM462      0.0000
     28  C3C       17.1250   40.4030  131.9610 C.2   462  HEM462      0.0000
     29  C4C       16.2860   41.2550  131.1570 C.2   462  HEM462      0.0000
     30  CMC       16.7110   38.4730  133.6750 C.3   462  HEM462      0.0000
     31  CAC       18.6650   40.4650  131.8880 C.2   462  HEM462      0.0000
     32  CBC       19.4330   39.8430  132.7750 C.2   462  HEM462      0.0000
     33  ND        14.6210   42.6660  129.1690 N.ar  462  HEM462      0.0000
     34  C1D       16.0000   42.8480  129.3760 C.ar  462  HEM462      0.0000
     35  C2D       16.5180   43.8210  128.4410 C.ar  462  HEM462      0.0000
     36  C3D       15.3330   44.1850  127.5990 C.ar  462  HEM462      0.0000
     37  C4D       14.1900   43.4330  128.1090 C.ar  462  HEM462      0.0000
     38  CMD       17.9610   44.3720  128.3470 C.3   462  HEM462      0.0000
     39  CAD       15.3310   45.2030  126.4670 C.3   462  HEM462      0.0000
     40  CBD       15.4380   44.4530  125.1520 C.3   462  HEM462      0.0000
     41  CGD       15.3570   45.4020  123.9740 C.2   462  HEM462      0.0000
     42  O1D       15.4120   44.8740  122.8460 O.co2 462  HEM462      0.0000
     43  O2D       15.3320   46.6460  124.1910 O.co2 462  HEM462      0.0000
@<TRIPOS>BOND
     1    42    41   ar
     2    41    43   ar
     3    41    40    1
     4    15    14   ar
     5    40    39    1
     6    14    16   ar
     7    14    13    1
     8    12    13    1
     9    12     8    1
    10    39    36    1
    11     2    37    2
    12     2     7    1
    13    36    37   ar
    14    36    35   ar
    15     8     7    1
    16     8     9    2
    17    37    33   ar
    18     7     6    2
    19    38    35    1
    20    35    34   ar
    21    11     9    1
    22     9    10    1
    23    33    34   ar
    24    33     1    1
    25     6    10    1
    26     6     1    1
    27    34     5    2
    28    10     3    2
    29     1    25    1
    30     1    17    1
    31     5    29    1
    32     3    18    1
    33    29    25    2
    34    29    28    1
    35    25    26    1
    36    18    17   ar
    37    18    19   ar
    38    17    21   ar
    39    31    28    1
    40    31    32    2
    41    28    27    2
    42    26    27    1
    43    26     4    2
    44    21     4    1
    45    21    20   ar
    46    27    30    1
    47    19    22    1
    48    19    20   ar
    49    20    23    1
    50    23    24    2
