@<TRIPOS>MOLECULE
2ij7_HEM_A_1.pdb
 43 50 0 0 0
SMALL
GASTEIGER

@<TRIPOS>ATOM
      1 FE         13.5410   41.6540  130.0770 Fe    462  HEM462      0.0000
      2  CHA       13.0940   43.4580  127.1550 C.2   462  HEM462      0.0000
      3  CHB       10.1890   41.5840  130.5740 C.2   462  HEM462      0.0000
      4  CHC       13.9360   39.4770  132.7140 C.2   462  HEM462      0.0000
      5  CHD       16.8010   42.2580  130.0290 C.2   462  HEM462      0.0000
      6  NA        11.9920   42.3720  129.0620 N.2   462  HEM462      0.0000
      7  C1A       11.9710   43.0670  127.8630 C.2   462  HEM462      0.0000
      8  C2A       10.6210   43.2940  127.4660 C.2   462  HEM462      0.0000
      9  C3A        9.8180   42.7630  128.4090 C.2   462  HEM462      0.0000
     10  C4A       10.6420   42.2180  129.4420 C.2   462  HEM462      0.0000
     11  CMA        8.2620   42.8580  128.4240 C.3   462  HEM462      0.0000
     12  CAA       10.1870   44.0160  126.1610 C.3   462  HEM462      0.0000
     13  CBA       10.1580   45.5240  126.3700 C.3   462  HEM462      0.0000
     14  CGA        9.6540   46.2610  125.1670 C.2   462  HEM462      0.0000
     15  O1A        9.4620   45.6420  124.1100 O.co2 462  HEM462      0.0000
     16  O2A        9.4910   47.5010  125.2370 O.co2 462  HEM462      0.0000
     17  NB        12.3080   40.7460  131.4070 N.ar  462  HEM462      0.0000
     18  C1B       10.9330   40.8390  131.4350 C.ar  462  HEM462      0.0000
     19  C2B       10.4110   39.9930  132.5180 C.ar  462  HEM462      0.0000
     20  C3B       11.4630   39.4030  133.0820 C.ar  462  HEM462      0.0000
     21  C4B       12.6620   39.8740  132.4020 C.ar  462  HEM462      0.0000
     22  CMB        8.9330   39.8090  132.9500 C.3   462  HEM462      0.0000
     23  CAB       11.5410   38.4650  134.2880 C.2   462  HEM462      0.0000
     24  CBB       10.5230   37.7430  134.7980 C.2   462  HEM462      0.0000
     25  NC        15.0240   41.0000  131.2180 N.2   462  HEM462      0.0000
     26  C1C       15.0560   40.0240  132.1610 C.2   462  HEM462      0.0000
     27  C2C       16.4340   39.6620  132.4810 C.2   462  HEM462      0.0000
     28  C3C       17.2030   40.4730  131.7390 C.2   462  HEM462      0.0000
     29  C4C       16.3440   41.3200  130.9300 C.2   462  HEM462      0.0000
     30  CMC       16.7640   38.5510  133.5110 C.3   462  HEM462      0.0000
     31  CAC       18.7430   40.5960  131.6050 C.2   462  HEM462      0.0000
     32  CBC       19.5780   39.8630  132.3170 C.2   462  HEM462      0.0000
     33  ND        14.7710   42.6800  128.7570 N.ar  462  HEM462      0.0000
     34  C1D       16.1210   42.8620  129.0130 C.ar  462  HEM462      0.0000
     35  C2D       16.6780   43.7480  128.0060 C.ar  462  HEM462      0.0000
     36  C3D       15.5190   44.1090  127.1220 C.ar  462  HEM462      0.0000
     37  C4D       14.3780   43.3970  127.6620 C.ar  462  HEM462      0.0000
     38  CMD       18.1570   44.2110  127.8590 C.3   462  HEM462      0.0000
     39  CAD       15.4770   45.0230  125.8640 C.3   462  HEM462      0.0000
     40  CBD       15.5140   44.1450  124.6380 C.3   462  HEM462      0.0000
     41  CGD       15.5820   44.9420  123.3490 C.2   462  HEM462      0.0000
     42  O1D       15.8280   44.3240  122.2820 O.co2 462  HEM462      0.0000
     43  O2D       15.4230   46.1840  123.3620 O.co2 462  HEM462      0.0000
@<TRIPOS>BOND
     1    42    41   ar
     2    41    43   ar
     3    41    40    1
     4    15    14   ar
     5    40    39    1
     6    14    16   ar
     7    14    13    1
     8    39    36    1
     9    12    13    1
    10    12     8    1
    11    36    37   ar
    12    36    35   ar
    13     2    37    2
    14     2     7    1
    15     8     7    1
    16     8     9    2
    17    37    33   ar
    18    38    35    1
    19     7     6    2
    20    35    34   ar
    21     9    11    1
    22     9    10    1
    23    33    34   ar
    24    33     1    1
    25    34     5    2
    26     6    10    1
    27     6     1    1
    28    10     3    2
    29     5    29    1
    30     1    25    1
    31     1    17    1
    32     3    18    1
    33    29    25    2
    34    29    28    1
    35    25    26    1
    36    17    18   ar
    37    17    21   ar
    38    18    19   ar
    39    31    28    1
    40    31    32    2
    41    28    27    2
    42    26    27    1
    43    26     4    2
    44    21     4    1
    45    21    20   ar
    46    27    30    1
    47    19    22    1
    48    19    20   ar
    49    20    23    1
    50    23    24    2
