@<TRIPOS>MOLECULE
2ij7_TPF_A_1.pdb
 22 24 0 0 0
SMALL
GASTEIGER

@<TRIPOS>ATOM
      1  O         12.2930   47.3570  128.3350 O.3   2472  TPF2472    -0.2169
      2  C1        12.8790   47.9980  129.4860 C.3   2472  TPF2472     0.1922
      3  C2        12.4360   47.2740  130.7600 C.3   2472  TPF2472     0.1658
      4  C5        12.3710   49.4350  129.5570 C.3   2472  TPF2472     0.1658
      5  C8        14.3990   47.8920  129.3120 C.ar  2472  TPF2472     0.0365
      6  N1        12.8980   45.9040  130.9160 N.ar  2472  TPF2472    -0.2271
      7  C3        12.2880   44.7820  130.2620 C.ar  2472  TPF2472     0.1973
      8  N3        13.9320   45.4620  131.7610 N.ar  2472  TPF2472    -0.1451
      9  N2        13.0290   43.8070  130.7490 N.ar  2472  TPF2472    -0.2007
     10  C4        13.9920   44.1510  131.6260 C.ar  2472  TPF2472     0.2210
     11  N4        11.1040   49.4380  130.3060 N.ar  2472  TPF2472    -0.2271
     12  C6         9.8920   49.4900  129.7480 C.ar  2472  TPF2472     0.1973
     13  N6        11.0150   49.3500  131.7020 N.ar  2472  TPF2472    -0.1451
     14  N5         9.0840   49.4290  130.9450 N.ar  2472  TPF2472    -0.2007
     15  C7         9.7760   49.3480  132.0820 C.ar  2472  TPF2472     0.2210
     16  C9        14.8630   47.2830  128.1190 C.ar  2472  TPF2472     0.0027
     17  C13       15.3450   48.3570  130.2850 C.ar  2472  TPF2472     0.1408
     18  C10       16.2570   47.1510  127.8800 C.ar  2472  TPF2472     0.0295
     19  C11       17.2100   47.5970  128.8320 C.ar  2472  TPF2472     0.1424
     20  F1        18.5420   47.4430  128.5360 F     2472  TPF2472    -0.2041
     21  C12       16.7530   48.2210  130.0360 C.ar  2472  TPF2472     0.0590
     22  F2        14.9200   48.9640  131.4450 F     2472  TPF2472    -0.2043
@<TRIPOS>BOND
     1    18    16   ar
     2    18    19   ar
     3    16     5   ar
     4     1     2    1
     5    20    19    1
     6    19    21   ar
     7     5     2    1
     8     5    17   ar
     9     2     4    1
    10     2     3    1
    11     4    11    1
    12    12    11   ar
    13    12    14   ar
    14    21    17   ar
    15     7     9   ar
    16     7     6   ar
    17    17    22    1
    18    11    13   ar
    19     9    10   ar
    20     3     6    1
    21     6     8   ar
    22    14    15   ar
    23    10     8   ar
    24    13    15   ar
