@<TRIPOS>MOLECULE
2ijg_MHF_X_1.pdb
 33 36 0 0 0
SMALL
GASTEIGER

@<TRIPOS>ATOM
      1  N1       -39.0480   40.7330    2.0890 N.2   527  MHF527     -0.2726
      2  C2       -40.1610   40.2220    2.7200 C.1   527  MHF527      0.2603
      3  NA2      -40.5710   38.9530    2.4270 N.pl3 527  MHF527     -0.0221
      4  N3       -40.8490   40.9450    3.6100 N.2   527  MHF527     -0.2515
      5  C4       -40.4830   42.2220    3.9240 C.1   527  MHF527      0.2219
      6  O4       -41.1420   42.8680    4.7480 O.2   527  MHF527     -0.2109
      7  C4A      -39.3380   42.7980    3.2820 C.3   527  MHF527      0.2774
      8  N5       -38.8750   44.1190    3.5020 N.3   527  MHF527     -0.2275
      9  C6       -37.9490   44.8100    2.5380 C.3   527  MHF527      0.1058
     10  C7       -36.8210   43.7990    2.2320 C.3   527  MHF527      0.1547
     11  N8       -37.4900   42.5560    1.7310 N.2   527  MHF527     -0.2096
     12  C8A      -38.6170   42.0230    2.3590 C.1   527  MHF527      0.1050
     13  C9       -37.4720   46.0980    3.2330 C.3   527  MHF527      0.1101
     14  N10      -37.9650   45.9400    4.6240 N.pl3 527  MHF527     -0.2923
     15  C11      -39.2010   45.1260    4.5140 C.3   527  MHF527      0.1706
     16  C12      -38.6760   49.6880    6.6160 C.ar  527  MHF527      0.0551
     17  C13      -37.4040   49.3760    6.0420 C.ar  527  MHF527      0.0058
     18  C14      -37.1960   48.1640    5.3840 C.ar  527  MHF527      0.0147
     19  C15      -38.2460   47.2120    5.2650 C.ar  527  MHF527      0.0488
     20  C16      -39.5430   47.5330    5.8300 C.ar  527  MHF527      0.0147
     21  C17      -39.7540   48.7570    6.4950 C.ar  527  MHF527      0.0058
     22  C        -38.8380   50.9690    7.3500 C.2   527  MHF527      0.2652
     23  O        -37.8870   51.7250    7.4450 O.2   527  MHF527     -0.2684
     24  N        -40.0100   51.3100    7.9390 N.am  527  MHF527     -0.1918
     25  CA       -40.0790   52.5800    8.6910 C.3   527  MHF527      0.1986
     26  CB       -41.2830   53.4350    8.2940 C.3   527  MHF527      0.0451
     27  CG       -41.1880   53.7480    6.7880 C.3   527  MHF527      0.1164
     28  CD       -42.3270   54.6140    6.3220 C.2   527  MHF527      0.3649
     29  OE1      -43.1800   54.9850    7.0990 O.co2 527  MHF527     -0.2457
     30  OE2      -42.3930   54.9820    5.0240 O.co2 527  MHF527     -0.2457
     31  CT       -40.0870   52.2530   10.1800 C.2   527  MHF527      0.3842
     32  O1       -40.1970   51.1080   10.5570 O.co2 527  MHF527     -0.2437
     33  O2       -39.9340   53.2340   11.0820 O.co2 527  MHF527     -0.2437
@<TRIPOS>BOND
     1    11    10    1
     2    11    12    2
     3     1    12    2
     4     1     2    2
     5    10     9    1
     6    12     7    1
     7     3     2    1
     8     9    13    1
     9     9     8    1
    10     2     4    2
    11    13    14    1
    12     7     8    1
    13     7     5    1
    14     8    15    1
    15     4     5    2
    16     5     6    2
    17    15    14    1
    18    14    19    1
    19    30    28   ar
    20    19    18   ar
    21    19    20   ar
    22    18    17   ar
    23    20    21   ar
    24    17    16   ar
    25    28    27    1
    26    28    29   ar
    27    21    16   ar
    28    16    22    1
    29    27    26    1
    30    22    23    2
    31    22    24   am
    32    24    25    1
    33    26    25    1
    34    25    31    1
    35    31    32   ar
    36    31    33   ar
