@<TRIPOS>MOLECULE
2ijm_ATP_A_1.pdb
 31 33 0 0 0
SMALL
GASTEIGER

@<TRIPOS>ATOM
      1  PG         5.0980    2.1140    7.3490 P.3   690  ATP690      0.5373
      2  O1G        6.1930    2.6230    6.4370 O.2   690  ATP690     -0.2221
      3  O2G        5.3460    0.7150    7.8860 O.3   690  ATP690     -0.1143
      4  O3G        3.7000    2.3950    6.8280 O.3   690  ATP690     -0.1143
      5  PB         4.2210    3.0230    9.8930 P.3   690  ATP690      0.2277
      6  O1B        3.5480    1.6740    9.9970 O.2   690  ATP690     -0.5168
      7  O2B        4.9770    3.5800   11.0590 O.3   690  ATP690     -0.4368
      8  O3B        5.2570    3.0420    8.6600 O.3   690  ATP690     -0.2258
      9  PA         3.6790    5.4570    8.7670 P.3   690  ATP690      0.2189
     10  O1A        4.8200    5.9220    9.6360 O.3   690  ATP690     -0.4371
     11  O2A        3.9010    5.2450    7.2910 O.2   690  ATP690     -0.5170
     12  O3A        3.1290    4.0970    9.4040 O.3   690  ATP690     -0.2700
     13  O5'        2.4700    6.4830    8.9660 O.3   690  ATP690     -0.3112
     14  C5'        2.1320    6.9480   10.2630 C.3   690  ATP690      0.1813
     15  C4'        0.8850    7.7910   10.1270 C.3   690  ATP690      0.1821
     16  O4'        1.2670    9.1130    9.7570 O.3   690  ATP690     -0.3135
     17  C3'       -0.0180    7.3070    9.0040 C.3   690  ATP690      0.2184
     18  O3'       -1.0110    6.3840    9.4520 O.3   690  ATP690     -0.2174
     19  C2'       -0.6630    8.5800    8.5430 C.3   690  ATP690      0.2570
     20  O2'       -1.7230    8.8240    9.4710 O.3   690  ATP690     -0.2130
     21  C1'        0.4310    9.6220    8.7110 C.3   690  ATP690      0.3186
     22  N9         1.2550    9.7600    7.4750 N.pl3 690  ATP690     -0.1439
     23  C8         2.3900    9.0630    7.2140 C.3   690  ATP690      0.3377
     24  N7         2.9200    9.4150    6.0240 N.2   690  ATP690     -0.2095
     25  C5         2.1350   10.3530    5.4910 C.2   690  ATP690      0.2526
     26  C6         2.1370   11.1450    4.2460 C.2   690  ATP690      0.4393
     27  N6         3.1100   10.9860    3.3140 N.pl3 690  ATP690      0.2180
     28  N1         1.1350   12.0320    4.0680 N.2   690  ATP690      0.0021
     29  C2         0.1610   12.1900    4.9850 C.3   690  ATP690      0.5254
     30  N3         0.1060   11.5020    6.1280 N.2   690  ATP690     -0.0055
     31  C4         1.0450   10.5910    6.4450 C.2   690  ATP690      0.3518
@<TRIPOS>BOND
     1    27    26    1
     2    28    26    2
     3    28    29    1
     4    26    25    1
     5    29    30    1
     6    25    24    2
     7    25    31    1
     8    24    23    1
     9    30    31    2
    10     2     1    2
    11    31    22    1
    12     4     1    1
    13    23    22    1
    14    11     9    2
    15     1     3    1
    16     1     8    1
    17    22    21    1
    18    19    21    1
    19    19    17    1
    20    19    20    1
    21     8     5    1
    22    21    16    1
    23     9    13    1
    24     9    12    1
    25     9    10    1
    26    13    14    1
    27    17    18    1
    28    17    15    1
    29    12     5    1
    30    16    15    1
    31     5     6    2
    32     5     7    1
    33    15    14    1
