@<TRIPOS>MOLECULE
2ijm_ADP_B_1.pdb
 27 29 0 0 0
SMALL
GASTEIGER

@<TRIPOS>ATOM
      1  PB        -6.4100    6.9200   35.8140 P.3   800  ADP800      0.5373
      2  O1B       -6.5140    5.5550   36.4540 O.3   800  ADP800     -0.1143
      3  O2B       -5.0650    7.1790   35.1680 O.2   800  ADP800     -0.2221
      4  O3B       -6.9580    8.0230   36.6800 O.3   800  ADP800     -0.1143
      5  PA        -7.8090    8.1010   33.6290 P.3   800  ADP800      0.2231
      6  O1A       -9.1060    8.7000   34.1080 O.3   800  ADP800     -0.4370
      7  O2A       -6.6280    9.0090   33.4330 O.2   800  ADP800     -0.5169
      8  O3A       -7.4370    6.8390   34.5670 O.3   800  ADP800     -0.2261
      9  O5'       -8.0600    7.2880   32.2610 O.3   800  ADP800     -0.3111
     10  C5'       -6.9740    6.8310   31.4570 C.3   800  ADP800      0.1813
     11  C4'       -7.0520    7.4700   30.0810 C.3   800  ADP800      0.1821
     12  O4'       -8.2930    7.1650   29.4370 O.3   800  ADP800     -0.3135
     13  C3'       -7.0350    8.9910   30.1380 C.3   800  ADP800      0.2184
     14  O3'       -5.7230    9.5440   30.3310 O.3   800  ADP800     -0.2174
     15  C2'       -7.6480    9.3410   28.8100 C.3   800  ADP800      0.2570
     16  O2'       -6.6440    9.1280   27.8200 O.3   800  ADP800     -0.2130
     17  C1'       -8.7390    8.2940   28.6720 C.3   800  ADP800      0.3186
     18  N9       -10.0220    8.7940   29.2510 N.pl3 800  ADP800     -0.1439
     19  C8       -10.3770    8.6380   30.5400 C.3   800  ADP800      0.3377
     20  N7       -11.5720    9.1810   30.8030 N.2   800  ADP800     -0.2095
     21  C5       -12.0320    9.7150   29.6620 C.2   800  ADP800      0.2526
     22  C6       -13.2560   10.4450   29.2590 C.2   800  ADP800      0.4393
     23  N6       -14.2350   10.7110   30.1570 N.pl3 800  ADP800      0.2180
     24  N1       -13.3520   10.8460   27.9770 N.2   800  ADP800      0.0021
     25  C2       -12.3810   10.5840   27.0890 C.3   800  ADP800      0.5254
     26  N3       -11.2490    9.9290   27.3890 N.2   800  ADP800     -0.0055
     27  C4       -11.0100    9.4670   28.6360 C.2   800  ADP800      0.3518
@<TRIPOS>BOND
     1    25    26    1
     2    25    24    1
     3    26    27    2
     4    16    15    1
     5    24    22    2
     6    27    18    1
     7    27    21    1
     8    17    15    1
     9    17    18    1
    10    17    12    1
    11    15    13    1
    12    18    19    1
    13    22    21    1
    14    22    23    1
    15    12    11    1
    16    21    20    2
    17    11    13    1
    18    11    10    1
    19    13    14    1
    20    19    20    1
    21    10     9    1
    22     9     5    1
    23     7     5    2
    24     5     6    1
    25     5     8    1
    26     8     1    1
    27     3     1    2
    28     1     2    1
    29     1     4    1
