@<TRIPOS>MOLECULE
2ijn_221_A_1.pdb
 23 23 0 0 0
SMALL
GASTEIGER

@<TRIPOS>ATOM
      1  C1         8.5070   42.2000   52.2910 C.ar  9366  2219366     0.0078
      2  C2         9.7230   42.0330   51.5020 C.ar  9366  2219366     0.0727
      3  C3         9.7120   42.5020   50.1260 C.ar  9366  2219366     0.0203
      4  C4         8.5470   43.1090   49.5590 C.ar  9366  2219366     0.0707
      5  C5         7.3710   43.2610   50.3430 C.ar  9366  2219366     0.0203
      6  C6         7.3160   42.8180   51.7150 C.ar  9366  2219366     0.0727
      7  C7        11.0270   41.3760   52.0620 C.3   9366  2219366     0.4186
      8  C8         6.0280   42.9750   52.5660 C.3   9366  2219366     0.4186
      9  N9         8.5970   43.5460   48.1970 N.am  9366  2219366    -0.2083
     10  C10        8.6950   42.8490   46.9120 C.2   9366  2219366     0.1062
     11  C11        9.2740   43.4960   45.7960 C.3   9366  2219366     0.2143
     12  C12        9.7840   44.8380   45.8700 C.2   9366  2219366     0.2807
     13  N13       10.3400   45.3350   44.7240 N.am  9366  2219366    -0.0865
     14  S14        8.0960   41.1970   46.7830 S.2   9366  2219366    -0.0359
     15  O15        9.7400   45.5920   47.0330 O.2   9366  2219366    -0.2701
     16  C16        9.3610   42.8070   44.5530 C.1   9366  2219366     0.0880
     17  N17        9.4320   42.2580   43.5450 N.1   9366  2219366    -0.1950
     18  F18       11.8930   42.4050   52.3960 F     9366  2219366    -0.1659
     19  F19       11.6320   40.5810   51.0990 F     9366  2219366    -0.1659
     20  F20       10.8340   40.6010   53.1740 F     9366  2219366    -0.1659
     21  F21        5.3970   41.7570   52.6050 F     9366  2219366    -0.1659
     22  F22        5.1540   43.8790   52.0030 F     9366  2219366    -0.1659
     23  F23        6.3050   43.4170   53.8510 F     9366  2219366    -0.1659
@<TRIPOS>BOND
     1    17    16    3
     2    16    11    1
     3    13    12   am
     4    11    12    1
     5    11    10    1
     6    12    15    2
     7    14    10    2
     8    10     9    1
     9     9     4    1
    10     4     3   ar
    11     4     5   ar
    12     3     2   ar
    13     5     6   ar
    14    19     7    1
    15     2     7    1
    16     2     1   ar
    17     6     1   ar
    18     6     8    1
    19    22     8    1
    20     7    18    1
    21     7    20    1
    22     8    21    1
    23     8    23    1
