@<TRIPOS>MOLECULE
2ik8_GDP_A_1.pdb
 28 30 0 0 0
SMALL
GASTEIGER

@<TRIPOS>ATOM
      1  PB       -10.4440   30.3140  -23.4340 P.3   401  GDP401      0.5373
      2  O1B       -9.4640   31.4290  -23.5940 O.3   401  GDP401     -0.1143
      3  O2B      -10.6350   30.0000  -21.9720 O.3   401  GDP401     -0.1143
      4  O3B      -11.8010   30.6740  -23.9910 O.2   401  GDP401     -0.2221
      5  O3A      -10.0400   28.9900  -24.2440 O.3   401  GDP401     -0.2261
      6  PA        -8.6900   28.7900  -25.0780 P.3   401  GDP401      0.2231
      7  O1A       -7.5400   28.4560  -24.1440 O.3   401  GDP401     -0.4370
      8  O2A       -8.4390   29.9770  -25.9640 O.2   401  GDP401     -0.5169
      9  O5'       -9.0420   27.5170  -25.9830 O.3   401  GDP401     -0.3111
     10  C5'       -9.4180   26.2880  -25.3630 C.3   401  GDP401      0.1813
     11  C4'       -8.6310   25.1210  -25.9540 C.3   401  GDP401      0.1799
     12  O4'       -9.3180   24.6790  -27.1290 O.3   401  GDP401     -0.3326
     13  C3'       -7.1860   25.4520  -26.3630 C.3   401  GDP401      0.2158
     14  O3'       -6.3170   24.3390  -26.0990 O.3   401  GDP401     -0.2175
     15  C2'       -7.2840   25.7150  -27.8500 C.3   401  GDP401      0.2310
     16  O2'       -6.1350   25.3010  -28.5800 O.3   401  GDP401     -0.2158
     17  C1'       -8.4900   24.8970  -28.2820 C.3   401  GDP401      0.2293
     18  N9        -9.3170   25.5940  -29.2800 N.pl3 401  GDP401     -0.2354
     19  C8        -9.8780   26.8060  -29.1510 C.3   401  GDP401      0.2246
     20  N7       -10.5880   27.1110  -30.2580 N.2   401  GDP401     -0.2322
     21  C5       -10.5060   26.0780  -31.0990 C.2   401  GDP401      0.2182
     22  C6       -11.0360   25.7520  -32.4300 C.1   401  GDP401      0.2372
     23  O6       -11.7610   26.5460  -33.0660 O.2   401  GDP401     -0.2069
     24  N1       -10.7050   24.5660  -32.9400 N.2   401  GDP401     -0.2485
     25  C2        -9.9250   23.6770  -32.2850 C.1   401  GDP401      0.2531
     26  N2        -9.6280   22.4910  -32.8670 N.pl3 401  GDP401     -0.0226
     27  N3        -9.4190   23.9120  -31.0570 N.2   401  GDP401     -0.3074
     28  C4        -9.6730   25.0760  -30.4410 C.2   401  GDP401      0.2300
@<TRIPOS>BOND
     1    23    22    2
     2    24    22    2
     3    24    25    2
     4    26    25    1
     5    22    21    1
     6    25    27    2
     7    21    28    1
     8    21    20    2
     9    27    28    2
    10    28    18    1
    11    20    19    1
    12    18    19    1
    13    18    17    1
    14    16    15    1
    15    17    15    1
    16    17    12    1
    17    15    13    1
    18    12    11    1
    19    13    14    1
    20    13    11    1
    21     9    10    1
    22     9     6    1
    23     8     6    2
    24    11    10    1
    25     6     5    1
    26     6     7    1
    27     5     1    1
    28     4     1    2
    29     2     1    1
    30     1     3    1
