@<TRIPOS>MOLECULE
2ikc_HEM_A_1.pdb
 43 50 0 0 0
SMALL
GASTEIGER

@<TRIPOS>ATOM
      1  CHA        3.0360    1.2390    5.8930 C.2   605  HEM605      0.0000
      2  CHB        5.3710   -2.9070    6.1600 C.2   605  HEM605      0.0000
      3  CHC        1.5820   -4.6350    3.3540 C.2   605  HEM605      0.0000
      4  CHD       -0.8460   -0.3920    3.2940 C.2   605  HEM605      0.0000
      5  C1A        3.9870    0.3000    6.2360 C.2   605  HEM605      0.0000
      6  C2A        5.1180    0.5620    7.0500 C.2   605  HEM605      0.0000
      7  C3A        5.8410   -0.5490    7.1790 C.2   605  HEM605      0.0000
      8  C4A        5.1270   -1.5640    6.4140 C.2   605  HEM605      0.0000
      9  CMA        7.1500   -0.6260    8.0000 C.3   605  HEM605      0.0000
     10  CAA        5.4150    1.9470    7.6630 C.3   605  HEM605      0.0000
     11  CBA        4.5360    1.9960    8.9190 C.3   605  HEM605      0.0000
     12  CGA        4.6760    3.3250    9.6940 C.2   605  HEM605      0.0000
     13  O1A        5.8440    3.8110    9.9630 O.co2 605  HEM605      0.0000
     14  O2A        3.5660    3.8350   10.0040 O.co2 605  HEM605      0.0000
     15  C1B        4.5280   -3.7470    5.3600 C.ar  605  HEM605      0.0000
     16  C2B        4.7850   -5.1190    4.9990 C.ar  605  HEM605      0.0000
     17  C3B        3.7690   -5.5680    4.2380 C.ar  605  HEM605      0.0000
     18  C4B        2.7790   -4.5340    4.0690 C.ar  605  HEM605      0.0000
     19  CMB        5.9840   -6.0140    5.3720 C.3   605  HEM605      0.0000
     20  CAB        3.7530   -7.0190    3.6890 C.3   605  HEM605      0.0000
     21  CBB        3.3930   -7.9600    4.6090 C.3   605  HEM605      0.0000
     22  C1C        0.5600   -3.6780    3.1010 C.2   605  HEM605      0.0000
     23  C2C       -0.7180   -3.8380    2.3350 C.2   605  HEM605      0.0000
     24  C3C       -1.4000   -2.6190    2.3200 C.2   605  HEM605      0.0000
     25  C4C       -0.5560   -1.7200    3.0760 C.2   605  HEM605      0.0000
     26  CMC       -1.2240   -5.1610    1.6480 C.3   605  HEM605      0.0000
     27  CAC       -2.7620   -2.1850    1.6850 C.2   605  HEM605      0.0000
     28  CBC       -3.7330   -3.0850    1.4870 C.2   605  HEM605      0.0000
     29  C1D        0.0520    0.4270    3.9900 C.ar  605  HEM605      0.0000
     30  C2D       -0.1610    1.8380    4.0890 C.ar  605  HEM605      0.0000
     31  C3D        1.0360    2.3920    4.8710 C.ar  605  HEM605      0.0000
     32  C4D        1.8460    1.1990    5.1740 C.ar  605  HEM605      0.0000
     33  CMD       -1.3450    2.5170    3.5130 C.3   605  HEM605      0.0000
     34  CAD        1.3120    3.8900    5.2260 C.3   605  HEM605      0.0000
     35  CBD        1.6470    4.7510    3.9960 C.3   605  HEM605      0.0000
     36  CGD        1.8860    6.1030    4.5560 C.2   605  HEM605      0.0000
     37  O1D        0.9290    6.8140    4.8580 O.co2 605  HEM605      0.0000
     38  O2D        3.0400    6.5320    4.7050 O.co2 605  HEM605      0.0000
     39  NA         4.0210   -0.9810    5.8700 N.2   605  HEM605      0.0000
     40  NB         3.2890   -3.4440    4.7570 N.ar  605  HEM605      0.0000
     41  NC         0.6220   -2.3580    3.5250 N.2   605  HEM605      0.0000
     42  ND         1.2390    0.0770    4.6400 N.ar  605  HEM605      0.0000
     43 FE          2.1690   -1.6780    4.8600 Fe    605  HEM605      0.0000
@<TRIPOS>BOND
     1    28    27    2
     2    26    23    1
     3    27    24    1
     4    24    23    2
     5    24    25    1
     6    23    22    1
     7    25     4    1
     8    25    41    2
     9    22     3    2
    10    22    41    1
    11     4    29    2
    12     3    18    1
    13    33    30    1
    14    41    43    1
    15    20    17    1
    16    20    21    1
    17    29    30   ar
    18    29    42   ar
    19    35    36    1
    20    35    34    1
    21    18    17   ar
    22    18    40   ar
    23    30    31   ar
    24    17    16   ar
    25    36    38   ar
    26    36    37   ar
    27    42    43    1
    28    42    32   ar
    29    40    43    1
    30    40    15   ar
    31    43    39    1
    32    31    32   ar
    33    31    34    1
    34    16    15   ar
    35    16    19    1
    36    32     1    2
    37    15     2    1
    38    39     5    2
    39    39     8    1
    40     1     5    1
    41     2     8    2
    42     5     6    1
    43     8     7    1
    44     6     7    2
    45     6    10    1
    46     7     9    1
    47    10    11    1
    48    11    12    1
    49    12    13   ar
    50    12    14   ar
