@<TRIPOS>MOLECULE
2ikf_UTP_A_1.pdb
 29 30 0 0 0
SMALL
GASTEIGER

@<TRIPOS>ATOM
      1  PA        23.2270   24.0380  -46.3500 P.3   501  UTP501      0.2189
      2  O1A       22.0100   24.8540  -46.7820 O.2   501  UTP501     -0.5170
      3  O2A       24.5580   24.8680  -46.3730 O.3   501  UTP501     -0.4371
      4  O3A       23.0680   23.4720  -44.8790 O.3   501  UTP501     -0.2700
      5  O5'       23.2810   22.7520  -47.2710 O.3   501  UTP501     -0.3112
      6  PB        21.8800   23.3060  -43.9130 P.3   501  UTP501      0.2277
      7  O1B       20.7080   22.6680  -44.6230 O.2   501  UTP501     -0.5168
      8  O2B       22.3020   22.4050  -42.7920 O.3   501  UTP501     -0.4368
      9  O3B       21.5350   24.7010  -43.2490 O.3   501  UTP501     -0.2258
     10  PG        20.5990   25.9160  -43.6100 P.3   501  UTP501      0.5373
     11  O1G       21.4800   27.1980  -43.7870 O.3   501  UTP501     -0.1143
     12  O2G       19.6130   26.0440  -42.4590 O.3   501  UTP501     -0.1143
     13  O3G       19.8880   25.6730  -44.8850 O.2   501  UTP501     -0.2221
     14  C5'       22.1890   21.8320  -47.3950 C.3   501  UTP501      0.1813
     15  C4'       22.8150   20.5010  -47.6040 C.3   501  UTP501      0.1799
     16  O4'       23.4430   20.4530  -48.8890 O.3   501  UTP501     -0.3320
     17  C1'       24.6670   19.7550  -48.7670 C.3   501  UTP501      0.2401
     18  C2'       24.7910   19.2320  -47.3310 C.3   501  UTP501      0.2319
     19  O2'       24.3290   17.9010  -47.3500 O.3   501  UTP501     -0.2157
     20  C3'       23.8740   20.1040  -46.5200 C.3   501  UTP501      0.2158
     21  O3'       23.4820   19.3050  -45.3760 O.3   501  UTP501     -0.2175
     22  N1        25.8750   20.5450  -49.0880 N.am  501  UTP501     -0.1766
     23  C6        25.8550   21.8540  -48.9110 C.2   501  UTP501      0.0929
     24  C2        26.9960   19.9410  -49.5760 C.1   501  UTP501      0.2845
     25  O2        27.1180   18.7130  -49.7830 O.2   501  UTP501     -0.1918
     26  N3        28.0950   20.6810  -49.8950 N.2   501  UTP501     -0.2452
     27  C4        28.1010   21.9760  -49.7330 C.1   501  UTP501      0.2182
     28  O4        29.2180   22.6450  -50.0740 O.2   501  UTP501     -0.2085
     29  C5        26.9750   22.6370  -49.2250 C.2   501  UTP501      0.1242
@<TRIPOS>BOND
     1    28    27    2
     2    26    27    2
     3    26    24    2
     4    25    24    2
     5    27    29    1
     6    24    22   am
     7    29    23    2
     8    22    23    1
     9    22    17    1
    10    16    17    1
    11    16    15    1
    12    17    18    1
    13    15    14    1
    14    15    20    1
    15    14     5    1
    16    19    18    1
    17    18    20    1
    18     5     1    1
    19     2     1    2
    20    20    21    1
    21     3     1    1
    22     1     4    1
    23    13    10    2
    24     4     6    1
    25     7     6    2
    26     6     9    1
    27     6     8    1
    28    11    10    1
    29    10     9    1
    30    10    12    1
