@<TRIPOS>MOLECULE
2ikg_BTO_A_1.pdb
 20 21 0 0 0
SMALL
GASTEIGER

@<TRIPOS>ATOM
      1  C1        14.5990   -5.2950   11.4120 C.ar  317  BTO317      0.0024
      2  C2        15.2200   -4.3330   10.5700 C.ar  317  BTO317      0.0241
      3  C3        16.6170   -4.0490   10.7260 C.ar  317  BTO317      0.1436
      4  C4        17.4080   -4.6810   11.7230 C.ar  317  BTO317      0.0352
      5  C5        16.8590   -5.6570   12.5850 C.ar  317  BTO317      0.0787
      6  C6        15.3480   -5.9410   12.4100 C.ar  317  BTO317      0.0112
      7  N         17.2900   -3.1280    9.9260 N.pl3 317  BTO317      0.0577
      8  O         18.4840   -2.9850   10.1740 O.2   317  BTO317     -0.1261
      9  O1        16.6490   -2.5540    9.0660 O.2   317  BTO317     -0.1261
     10  C7        17.7440   -6.0660   13.7480 C.1   317  BTO317      0.1268
     11  N1        17.2930   -6.7410   14.9120 N.2   317  BTO317     -0.3127
     12  C8        18.2520   -6.9820   15.6660 C.2   317  BTO317      0.2938
     13  C9        18.2140   -7.8660   16.8540 C.3   317  BTO317      0.1031
     14  C10       16.9030   -7.9370   17.6860 C.3   317  BTO317      0.0228
     15  C11       16.8720   -6.6070   18.4880 C.3   317  BTO317      0.1146
     16  C12       15.4890   -6.1830   18.9680 C.2   317  BTO317      0.3649
     17  O13       15.3580   -5.7710   20.1150 O.co2 317  BTO317     -0.2457
     18  O14       14.5200   -6.2440   18.2500 O.co2 317  BTO317     -0.2457
     19  O15       19.3790   -6.4930   15.0660 O.2   317  BTO317     -0.3156
     20  N2        19.0150   -5.9130   13.8370 N.2   317  BTO317     -0.0072
@<TRIPOS>BOND
     1     9     7    2
     2     7     8    2
     3     7     3    1
     4     2     3   ar
     5     2     1   ar
     6     3     4   ar
     7     1     6   ar
     8     4     5   ar
     9     6     5   ar
    10     5    10    1
    11    10    20    2
    12    10    11    2
    13    20    19    1
    14    11    12    2
    15    19    12    1
    16    12    13    1
    17    13    14    1
    18    14    15    1
    19    18    16   ar
    20    15    16    1
    21    16    17   ar
