@<TRIPOS>MOLECULE
2ikg_NAP_A_1.pdb
 48 52 0 0 0
SMALL
GASTEIGER

@<TRIPOS>ATOM
      1  PA        22.5060   -4.8770   26.9680 P.3   316  NAP316      0.2189
      2  O1A       23.4200   -3.8040   26.5060 O.2   316  NAP316     -0.5170
      3  O2A       21.4390   -4.4920   27.9200 O.3   316  NAP316     -0.4371
      4  O5B       23.4320   -6.0570   27.4920 O.3   316  NAP316     -0.3112
      5  C5B       22.8840   -7.2780   27.9720 C.3   316  NAP316      0.1813
      6  C4B       24.0630   -8.2140   28.3190 C.3   316  NAP316      0.1820
      7  O4B       24.7730   -7.6570   29.4040 O.3   316  NAP316     -0.3136
      8  C3B       23.5970   -9.6110   28.8210 C.3   316  NAP316      0.2157
      9  O3B       24.5640  -10.5500   28.3300 O.3   316  NAP316     -0.2175
     10  C2B       23.6080   -9.4440   30.3430 C.3   316  NAP316      0.2314
     11  O2B       23.9990  -10.7210   30.8980 O.3   316  NAP316     -0.2630
     12  C1B       24.8330   -8.5460   30.4850 C.3   316  NAP316      0.3158
     13  N9A       24.8200   -7.7870   31.6780 N.pl3 316  NAP316     -0.1439
     14  C8A       23.7210   -7.1510   32.2690 C.3   316  NAP316      0.3377
     15  N7A       23.9860   -6.5350   33.3910 N.2   316  NAP316     -0.2095
     16  C5A       25.3310   -6.7640   33.5600 C.2   316  NAP316      0.2526
     17  C6A       26.1540   -6.3230   34.6290 C.2   316  NAP316      0.4393
     18  N6A       25.7910   -5.5990   35.6830 N.pl3 316  NAP316      0.2180
     19  N1A       27.4930   -6.7210   34.5410 N.2   316  NAP316      0.0021
     20  C2A       28.0000   -7.4950   33.4760 C.3   316  NAP316      0.5254
     21  N3A       27.1750   -7.9140   32.4470 N.2   316  NAP316     -0.0055
     22  C4A       25.8310   -7.5280   32.5130 C.2   316  NAP316      0.3518
     23  O3        21.8780   -5.6110   25.7190 O.3   316  NAP316     -0.2703
     24  PN        20.5540   -5.6870   24.8320 P.3   316  NAP316      0.2189
     25  O1N       19.7090   -6.8060   25.3560 O.3   316  NAP316     -0.4371
     26  O2N       20.9540   -5.6950   23.4100 O.2   316  NAP316     -0.5170
     27  O5D       19.8070   -4.2790   25.0410 O.3   316  NAP316     -0.3112
     28  C5D       18.9850   -4.0400   26.2420 C.3   316  NAP316      0.1813
     29  C4D       17.5180   -4.1410   25.8420 C.3   316  NAP316      0.1799
     30  O4D       17.2160   -3.1700   24.7820 O.3   316  NAP316     -0.3327
     31  C3D       17.0860   -5.4650   25.0990 C.3   316  NAP316      0.2158
     32  O3D       17.0360   -6.5810   25.9630 O.3   316  NAP316     -0.2175
     33  C2D       15.7350   -4.9990   24.4930 C.3   316  NAP316      0.2309
     34  O2D       14.7880   -4.9600   25.5770 O.3   316  NAP316     -0.2158
     35  C1D       16.0710   -3.5960   24.0140 C.3   316  NAP316      0.2263
     36  N1N       16.5300   -3.5180   22.5690 N.pl3 316  NAP316     -0.2787
     37  C2N       15.5920   -2.9620   21.6740 C.3   316  NAP316      0.1244
     38  C3N       15.9910   -3.0200   20.3360 C.2   316  NAP316      0.0544
     39  C7N       15.0410   -2.4360   19.2590 C.2   316  NAP316      0.2818
     40  O7N       15.2820   -2.6290   18.0890 O.2   316  NAP316     -0.2670
     41  N7N       14.2920   -1.4580   19.7340 N.am  316  NAP316     -0.0839
     42  C4N       17.2340   -3.5900   19.9140 C.2   316  NAP316      0.0033
     43  C5N       18.1730   -4.1520   20.8380 C.2   316  NAP316      0.0157
     44  C6N       17.7760   -4.0900   22.1990 C.2   316  NAP316      0.0633
     45  P2B       22.9460  -11.6480   31.7440 P.3   316  NAP316      0.5328
     46  O1X       23.1040  -11.1360   33.1810 O.3   316  NAP316     -0.1145
     47  O2X       21.6120  -11.4120   31.1350 O.2   316  NAP316     -0.2224
     48  O3X       23.4910  -13.0470   31.5460 O.3   316  NAP316     -0.1145
@<TRIPOS>BOND
     1    40    39    2
     2    39    41   am
     3    39    38    1
     4    42    38    2
     5    42    43    1
     6    38    37    1
     7    43    44    2
     8    37    36    1
     9    44    36    1
    10    36    35    1
    11    26    24    2
    12    35    33    1
    13    35    30    1
    14    33    31    1
    15    33    34    1
    16    30    29    1
    17    24    27    1
    18    24    25    1
    19    24    23    1
    20    27    28    1
    21    31    29    1
    22    31    32    1
    23    23     1    1
    24    29    28    1
    25     2     1    2
    26     1     4    1
    27     1     3    1
    28     4     5    1
    29     5     6    1
    30     6     8    1
    31     6     7    1
    32     9     8    1
    33     8    10    1
    34     7    12    1
    35    10    12    1
    36    10    11    1
    37    12    13    1
    38    11    45    1
    39    47    45    2
    40    48    45    1
    41    13    14    1
    42    13    22    1
    43    45    46    1
    44    14    15    1
    45    21    22    2
    46    21    20    1
    47    22    16    1
    48    15    16    2
    49    20    19    1
    50    16    17    1
    51    19    17    2
    52    17    18    1
