@<TRIPOS>MOLECULE
2ikh_LIT_A_1.pdb
 18 19 0 0 0
SMALL
GASTEIGER

@<TRIPOS>ATOM
      1  C1        16.2700   -4.2610   10.6880 C.ar  600  LIT600      0.2890
      2  C2        15.0170   -4.6900   10.7070 C.ar  600  LIT600      0.0662
      3  C3        15.0110   -5.5940   11.8700 C.ar  600  LIT600      0.0474
      4  C4        16.2620   -5.5190   12.3050 C.ar  600  LIT600      0.2022
      5  C5        16.8670   -6.2090   13.4510 C.ar  600  LIT600      0.2851
      6  N6        18.0390   -5.8980   13.8650 N.ar  600  LIT600     -0.1032
      7  N7        18.1560   -6.5720   15.1020 N.ar  600  LIT600     -0.1005
      8  C8        17.0630   -7.1940   15.2840 C.ar  600  LIT600      0.2788
      9  S9        16.5930   -8.2270   16.6460 S.3   600  LIT600     -0.0432
     10  C10       16.8620   -7.0390   18.0080 C.3   600  LIT600      0.1803
     11  C11       15.7570   -6.0130   17.9590 C.2   600  LIT600      0.3761
     12  O12       15.2050   -5.6500   19.1230 O.co2 600  LIT600     -0.2447
     13  O13       15.2820   -5.7330   16.8740 O.co2 600  LIT600     -0.2447
     14  O14       16.1960   -7.0070   14.2720 O.2   600  LIT600     -0.4083
     15  O15       17.0900   -4.7200   11.6270 O.2   600  LIT600     -0.4280
     16  N16       16.7690   -3.4080    9.8020 N.pl3 600  LIT600      0.0932
     17  O17       16.1680   -2.8780    8.8620 O.2   600  LIT600     -0.1230
     18  O18       17.9750   -3.2530   10.1140 O.2   600  LIT600     -0.1230
@<TRIPOS>BOND
     1    17    16    2
     2    16    18    2
     3    16     1    1
     4     1     2   ar
     5     1    15   ar
     6     2     3   ar
     7    15     4   ar
     8     3     4   ar
     9     4     5    1
    10     5     6   ar
    11     5    14   ar
    12     6     7   ar
    13    14     8   ar
    14     7     8   ar
    15     8     9    1
    16     9    10    1
    17    13    11   ar
    18    11    10    1
    19    11    12   ar
