@<TRIPOS>MOLECULE
2ikh_NAP_A_1.pdb
 48 52 0 0 0
SMALL
GASTEIGER

@<TRIPOS>ATOM
      1  PA        22.7240   -4.8270   27.0520 P.3   500  NAP500      0.2189
      2  O1A       23.6030   -3.7940   26.5690 O.2   500  NAP500     -0.5170
      3  O2A       21.6380   -4.4860   28.0020 O.3   500  NAP500     -0.4371
      4  O5B       23.6670   -6.0050   27.5870 O.3   500  NAP500     -0.3112
      5  C5B       23.0980   -7.2330   28.0470 C.3   500  NAP500      0.1813
      6  C4B       24.2940   -8.1680   28.3900 C.3   500  NAP500      0.1820
      7  O4B       24.9630   -7.6060   29.4720 O.3   500  NAP500     -0.3136
      8  C3B       23.8390   -9.5730   28.8650 C.3   500  NAP500      0.2157
      9  O3B       24.8060  -10.4830   28.3300 O.3   500  NAP500     -0.2175
     10  C2B       23.9030   -9.4150   30.4010 C.3   500  NAP500      0.2314
     11  O2B       24.1840  -10.7000   30.9790 O.3   500  NAP500     -0.2630
     12  C1B       25.0660   -8.4730   30.5770 C.3   500  NAP500      0.3158
     13  N9A       25.0140   -7.7570   31.8050 N.pl3 500  NAP500     -0.1439
     14  C8A       23.9270   -7.1280   32.4020 C.3   500  NAP500      0.3377
     15  N7A       24.1820   -6.4990   33.5040 N.2   500  NAP500     -0.2095
     16  C5A       25.5430   -6.7170   33.6650 C.2   500  NAP500      0.2526
     17  C6A       26.3830   -6.2630   34.7010 C.2   500  NAP500      0.4393
     18  N6A       26.0290   -5.5290   35.7500 N.pl3 500  NAP500      0.2180
     19  N1A       27.7290   -6.6550   34.5880 N.2   500  NAP500      0.0021
     20  C2A       28.2230   -7.4300   33.5280 C.3   500  NAP500      0.5254
     21  N3A       27.3700   -7.8660   32.5160 N.2   500  NAP500     -0.0055
     22  C4A       26.0290   -7.4780   32.6280 C.2   500  NAP500      0.3518
     23  O3        22.1140   -5.5650   25.7620 O.3   500  NAP500     -0.2703
     24  PN        20.7370   -5.6300   24.9300 P.3   500  NAP500      0.2189
     25  O1N       19.9470   -6.7830   25.4440 O.3   500  NAP500     -0.4371
     26  O2N       21.1680   -5.6390   23.5090 O.2   500  NAP500     -0.5170
     27  O5D       19.9960   -4.2360   25.1600 O.3   500  NAP500     -0.3112
     28  C5D       19.1720   -3.9220   26.3340 C.3   500  NAP500      0.1813
     29  C4D       17.7130   -4.0760   25.9360 C.3   500  NAP500      0.1799
     30  O4D       17.3270   -3.0870   24.9090 O.3   500  NAP500     -0.3327
     31  C3D       17.2890   -5.4030   25.2040 C.3   500  NAP500      0.2158
     32  O3D       17.2590   -6.5120   26.0730 O.3   500  NAP500     -0.2175
     33  C2D       15.9420   -4.9830   24.5960 C.3   500  NAP500      0.2309
     34  O2D       14.9700   -4.9110   25.6710 O.3   500  NAP500     -0.2158
     35  C1D       16.2560   -3.5810   24.0960 C.3   500  NAP500      0.2263
     36  N1N       16.7420   -3.4710   22.6470 N.pl3 500  NAP500     -0.2787
     37  C2N       15.8290   -2.9340   21.7370 C.3   500  NAP500      0.1244
     38  C3N       16.2170   -3.0140   20.3880 C.2   500  NAP500      0.0544
     39  C7N       15.2590   -2.4350   19.3190 C.2   500  NAP500      0.2818
     40  O7N       15.5640   -2.5960   18.1410 O.2   500  NAP500     -0.2670
     41  N7N       14.4530   -1.5070   19.7820 N.am  500  NAP500     -0.0839
     42  C4N       17.4570   -3.6130   19.9610 C.2   500  NAP500      0.0033
     43  C5N       18.3740   -4.1420   20.9220 C.2   500  NAP500      0.0157
     44  C6N       18.0080   -4.0660   22.2970 C.2   500  NAP500      0.0633
     45  P2B       23.1140  -11.6170   31.7790 P.3   500  NAP500      0.5328
     46  O1X       23.2490  -11.1800   33.2640 O.3   500  NAP500     -0.1145
     47  O2X       21.7680  -11.3750   31.2270 O.2   500  NAP500     -0.2224
     48  O3X       23.6920  -13.0490   31.6190 O.3   500  NAP500     -0.1145
@<TRIPOS>BOND
     1    40    39    2
     2    39    41   am
     3    39    38    1
     4    42    38    2
     5    42    43    1
     6    38    37    1
     7    43    44    2
     8    37    36    1
     9    44    36    1
    10    36    35    1
    11    26    24    2
    12    35    33    1
    13    35    30    1
    14    33    31    1
    15    33    34    1
    16    30    29    1
    17    24    27    1
    18    24    25    1
    19    24    23    1
    20    27    28    1
    21    31    29    1
    22    31    32    1
    23    23     1    1
    24    29    28    1
    25     2     1    2
    26     1     4    1
    27     1     3    1
    28     4     5    1
    29     5     6    1
    30     9     8    1
    31     6     8    1
    32     6     7    1
    33     8    10    1
    34     7    12    1
    35    10    12    1
    36    10    11    1
    37    12    13    1
    38    11    45    1
    39    47    45    2
    40    48    45    1
    41    45    46    1
    42    13    14    1
    43    13    22    1
    44    14    15    1
    45    21    22    2
    46    21    20    1
    47    22    16    1
    48    15    16    2
    49    20    19    1
    50    16    17    1
    51    19    17    2
    52    17    18    1
