@<TRIPOS>MOLECULE
2iki_388_A_1.pdb
 24 25 0 0 0
SMALL
GASTEIGER

@<TRIPOS>ATOM
      1  C1        18.6740   -6.0750   13.9390 C.3   600  388600      0.1440
      2  N10       18.0150   -6.8950   14.9580 N.am  600  388600     -0.1966
      3  C11       17.8980   -8.2250   14.8050 C.2   600  388600      0.2680
      4  O12       18.4990   -8.8510   13.9020 O.2   600  388600     -0.2682
      5  C2        17.6490   -5.5890   12.8990 C.ar  600  388600      0.0270
      6  C7        18.0950   -4.6020   12.0100 C.ar  600  388600      0.1383
      7  F9        19.3150   -4.0790   12.2190 F     600  388600     -0.2044
      8  C6        17.1940   -3.9930   11.1020 C.ar  600  388600      0.0361
      9  C5        15.9020   -4.4980   10.9950 C.ar  600  388600      0.0368
     10 BR8        14.7810   -3.7450    9.7250 Br    600  388600     -0.0489
     11  C4        15.4670   -5.5670   11.7800 C.ar  600  388600      0.0066
     12  C3        16.3530   -6.0560   12.7630 C.ar  600  388600      0.0002
     13  C8        17.0340   -8.9910   15.7690 C.ar  600  388600      0.0890
     14  C9        16.5540  -10.2330   15.3340 C.ar  600  388600      0.0085
     15  C10       15.6680  -10.9810   16.1270 C.ar  600  388600      0.0117
     16  C12       15.4560  -10.5420   17.4490 C.ar  600  388600      0.0607
     17 CL1        14.3220  -11.4280   18.4180 Cl    600  388600     -0.0821
     18  C14       15.9500   -9.3280   17.8960 C.ar  600  388600      0.0484
     19  C15       16.8010   -8.5660   17.0840 C.ar  600  388600      0.1446
     20  O20       17.4760   -7.4520   17.5480 O.3   600  388600     -0.4635
     21  C21       16.9170   -6.7640   18.6780 C.3   600  388600      0.3186
     22  C22       15.6950   -5.9950   18.3010 C.2   600  388600      0.4084
     23  O24       15.5110   -5.8010   16.9980 O.co2 600  388600     -0.2415
     24  O23       14.8970   -5.5010   19.0780 O.co2 600  388600     -0.2415
@<TRIPOS>BOND
     1    10     9    1
     2     9     8   ar
     3     9    11   ar
     4     8     6   ar
     5    11    12   ar
     6     6     7    1
     7     6     5   ar
     8    12     5   ar
     9     5     1    1
    10     4     3    2
    11     1     2    1
    12     3     2   am
    13     3    13    1
    14    14    13   ar
    15    14    15   ar
    16    13    19   ar
    17    15    16   ar
    18    23    22   ar
    19    19    20    1
    20    19    18   ar
    21    16    18   ar
    22    16    17    1
    23    20    21    1
    24    22    21    1
    25    22    24   ar
