@<TRIPOS>MOLECULE
2iki_NAP_A_1.pdb
 48 52 0 0 0
SMALL
GASTEIGER

@<TRIPOS>ATOM
      1  PA        22.6040   -4.8040   26.9990 P.3   500  NAP500      0.2189
      2  O1A       23.5450   -3.7680   26.5060 O.2   500  NAP500     -0.5170
      3  O2A       21.5200   -4.4720   27.9290 O.3   500  NAP500     -0.4371
      4  O5B       23.5450   -6.0020   27.4750 O.3   500  NAP500     -0.3112
      5  C5B       22.9220   -7.2110   27.9370 C.3   500  NAP500      0.1813
      6  C4B       24.1010   -8.1260   28.3520 C.3   500  NAP500      0.1820
      7  O4B       24.8590   -7.5170   29.4290 O.3   500  NAP500     -0.3136
      8  C3B       23.7110   -9.5480   28.8230 C.3   500  NAP500      0.2157
      9  O3B       24.7190  -10.4300   28.3040 O.3   500  NAP500     -0.2175
     10  C2B       23.8050   -9.3870   30.3680 C.3   500  NAP500      0.2314
     11  O2B       24.1840  -10.6670   30.9510 O.3   500  NAP500     -0.2630
     12  C1B       25.0070   -8.4320   30.5050 C.3   500  NAP500      0.3158
     13  N9A       24.9370   -7.6880   31.7150 N.pl3 500  NAP500     -0.1439
     14  C8A       23.8680   -7.0720   32.3320 C.3   500  NAP500      0.3377
     15  N7A       24.1600   -6.4540   33.4520 N.2   500  NAP500     -0.2095
     16  C5A       25.5080   -6.6700   33.5850 C.2   500  NAP500      0.2526
     17  C6A       26.3340   -6.2280   34.6370 C.2   500  NAP500      0.4393
     18  N6A       25.9420   -5.4970   35.6810 N.pl3 500  NAP500      0.2180
     19  N1A       27.6540   -6.5870   34.5130 N.2   500  NAP500      0.0021
     20  C2A       28.0950   -7.3460   33.4380 C.3   500  NAP500      0.5254
     21  N3A       27.3010   -7.7850   32.4250 N.2   500  NAP500     -0.0055
     22  C4A       25.9750   -7.4230   32.5380 C.2   500  NAP500      0.3518
     23  O3        22.0210   -5.5140   25.6810 O.3   500  NAP500     -0.2703
     24  PN        20.6170   -5.6390   24.8600 P.3   500  NAP500      0.2189
     25  O1N       19.8760   -6.7800   25.4560 O.3   500  NAP500     -0.4371
     26  O2N       20.9420   -5.6180   23.4280 O.2   500  NAP500     -0.5170
     27  O5D       19.8820   -4.2580   25.1090 O.3   500  NAP500     -0.3112
     28  C5D       19.0060   -4.0020   26.2460 C.3   500  NAP500      0.1813
     29  C4D       17.5540   -4.0910   25.8260 C.3   500  NAP500      0.1799
     30  O4D       17.1570   -3.1070   24.7940 O.3   500  NAP500     -0.3327
     31  C3D       17.1080   -5.4220   25.1560 C.3   500  NAP500      0.2158
     32  O3D       17.0320   -6.5300   25.9890 O.3   500  NAP500     -0.2175
     33  C2D       15.7740   -5.0070   24.5200 C.3   500  NAP500      0.2309
     34  O2D       14.7900   -4.9510   25.5660 O.3   500  NAP500     -0.2158
     35  C1D       16.0560   -3.6180   24.0060 C.3   500  NAP500      0.2263
     36  N1N       16.5530   -3.5150   22.5930 N.pl3 500  NAP500     -0.2787
     37  C2N       15.7030   -2.9520   21.6630 C.3   500  NAP500      0.1244
     38  C3N       16.1030   -2.9620   20.3270 C.2   500  NAP500      0.0544
     39  C7N       15.1630   -2.3280   19.3040 C.2   500  NAP500      0.2818
     40  O7N       15.3710   -2.5500   18.1240 O.2   500  NAP500     -0.2670
     41  N7N       14.2860   -1.4550   19.7660 N.am  500  NAP500     -0.0839
     42  C4N       17.3510   -3.5520   19.9710 C.2   500  NAP500      0.0033
     43  C5N       18.2240   -4.1250   20.9350 C.2   500  NAP500      0.0157
     44  C6N       17.8050   -4.0810   22.2710 C.2   500  NAP500      0.0633
     45  P2B       23.0510  -11.5530   31.7530 P.3   500  NAP500      0.5328
     46  O1X       23.2610  -11.0650   33.2450 O.3   500  NAP500     -0.1145
     47  O2X       21.6930  -11.3500   31.1750 O.2   500  NAP500     -0.2224
     48  O3X       23.6870  -12.9640   31.6120 O.3   500  NAP500     -0.1145
@<TRIPOS>BOND
     1    40    39    2
     2    39    41   am
     3    39    38    1
     4    42    38    2
     5    42    43    1
     6    38    37    1
     7    43    44    2
     8    37    36    1
     9    44    36    1
    10    36    35    1
    11    26    24    2
    12    35    33    1
    13    35    30    1
    14    33    31    1
    15    33    34    1
    16    30    29    1
    17    24    27    1
    18    24    25    1
    19    24    23    1
    20    27    28    1
    21    31    29    1
    22    31    32    1
    23    23     1    1
    24    29    28    1
    25     2     1    2
    26     1     4    1
    27     1     3    1
    28     4     5    1
    29     5     6    1
    30     9     8    1
    31     6     8    1
    32     6     7    1
    33     8    10    1
    34     7    12    1
    35    10    12    1
    36    10    11    1
    37    12    13    1
    38    11    45    1
    39    47    45    2
    40    48    45    1
    41    13    14    1
    42    13    22    1
    43    45    46    1
    44    14    15    1
    45    21    22    2
    46    21    20    1
    47    22    16    1
    48    20    19    1
    49    15    16    2
    50    16    17    1
    51    19    17    2
    52    17    18    1
