@<TRIPOS>MOLECULE
2ikj_393_A_1.pdb
 25 26 0 0 0
SMALL
GASTEIGER

@<TRIPOS>ATOM
      1  C1        16.8590   -4.1080   10.9020 C.ar  600  393600      0.1426
      2  N2        17.3190   -3.2000    9.9490 N.pl3 600  393600      0.0577
      3  O3        16.5830   -2.7590    9.0560 O.2   600  393600     -0.1261
      4  O4        18.4950   -2.9250   10.1330 O.2   600  393600     -0.1261
      5  C5        17.7220   -4.5610   11.8930 C.ar  600  393600      0.0215
      6  C6        17.2690   -5.4730   12.8480 C.ar  600  393600      0.0011
      7  C7        18.2410   -5.9500   13.9360 C.3   600  393600      0.1418
      8  N8        17.5770   -6.7550   14.9410 N.am  600  393600     -0.1967
      9  C9        17.7260   -8.0900   14.9480 C.2   600  393600      0.2680
     10  C10       16.9100   -8.9590   15.8720 C.ar  600  393600      0.0890
     11  C11       16.2640  -10.0990   15.4220 C.ar  600  393600      0.0085
     12  C12       15.5090  -10.8960   16.2890 C.ar  600  393600      0.0117
     13  C13       15.3980  -10.5470   17.6410 C.ar  600  393600      0.0607
     14 CL1        14.4010  -11.4280   18.6810 Cl    600  393600     -0.0821
     15  C15       16.0460   -9.3950   18.0990 C.ar  600  393600      0.0484
     16  C16       16.8030   -8.5960   17.2350 C.ar  600  393600      0.1446
     17  O17       17.4910   -7.4400   17.5760 O.3   600  393600     -0.4635
     18  C18       16.9960   -6.7000   18.7220 C.3   600  393600      0.3186
     19  C19       15.7920   -5.8910   18.2740 C.2   600  393600      0.4084
     20  O20       15.0080   -5.4440   19.2310 O.co2 600  393600     -0.2415
     21  O21       15.5150   -5.7160   17.0960 O.co2 600  393600     -0.2415
     22  O22       18.3400   -8.6430   14.0400 O.2   600  393600     -0.2682
     23  C23       15.9350   -5.9020   12.7810 C.ar  600  393600     -0.0025
     24  C24       15.0790   -5.4480   11.7700 C.ar  600  393600      0.0014
     25  C25       15.5380   -4.5300   10.8230 C.ar  600  393600      0.0241
@<TRIPOS>BOND
     1     3     2    2
     2     2     4    2
     3     2     1    1
     4    25     1   ar
     5    25    24   ar
     6     1     5   ar
     7    24    23   ar
     8     5     6   ar
     9    23     6   ar
    10     6     7    1
    11     7     8    1
    12    22     9    2
    13     8     9   am
    14     9    10    1
    15    11    10   ar
    16    11    12   ar
    17    10    16   ar
    18    12    13   ar
    19    21    19   ar
    20    16    17    1
    21    16    15   ar
    22    17    18    1
    23    13    15   ar
    24    13    14    1
    25    19    18    1
    26    19    20   ar
