@<TRIPOS>MOLECULE
2ikj_NAP_A_1.pdb
 48 52 0 0 0
SMALL
GASTEIGER

@<TRIPOS>ATOM
      1  PA        22.6520   -4.7770   27.0600 P.3   500  NAP500      0.2189
      2  O1A       23.5910   -3.7480   26.5560 O.2   500  NAP500     -0.5170
      3  O2A       21.6070   -4.5010   28.0320 O.3   500  NAP500     -0.4371
      4  O5B       23.6170   -5.9690   27.5600 O.3   500  NAP500     -0.3112
      5  C5B       23.0630   -7.2070   28.0060 C.3   500  NAP500      0.1813
      6  C4B       24.2650   -8.1280   28.3560 C.3   500  NAP500      0.1820
      7  O4B       24.9630   -7.5460   29.5070 O.3   500  NAP500     -0.3136
      8  C3B       23.8300   -9.5390   28.8710 C.3   500  NAP500      0.2157
      9  O3B       24.7620  -10.4520   28.3480 O.3   500  NAP500     -0.2175
     10  C2B       23.8830   -9.3500   30.4260 C.3   500  NAP500      0.2314
     11  O2B       24.1840  -10.5930   31.0500 O.3   500  NAP500     -0.2630
     12  C1B       25.0730   -8.4020   30.5800 C.3   500  NAP500      0.3158
     13  N9A       25.0070   -7.6390   31.7740 N.pl3 500  NAP500     -0.1439
     14  C8A       23.9290   -6.9970   32.3420 C.3   500  NAP500      0.3377
     15  N7A       24.1690   -6.3740   33.4560 N.2   500  NAP500     -0.2095
     16  C5A       25.5220   -6.6230   33.6410 C.2   500  NAP500      0.2526
     17  C6A       26.3210   -6.1880   34.6950 C.2   500  NAP500      0.4393
     18  N6A       25.9380   -5.4520   35.7280 N.pl3 500  NAP500      0.2180
     19  N1A       27.6530   -6.5770   34.6540 N.2   500  NAP500      0.0021
     20  C2A       28.1500   -7.3510   33.6150 C.3   500  NAP500      0.5254
     21  N3A       27.3440   -7.7750   32.5750 N.2   500  NAP500     -0.0055
     22  C4A       26.0190   -7.3870   32.6260 C.2   500  NAP500      0.3518
     23  O3        22.0370   -5.4550   25.7580 O.3   500  NAP500     -0.2703
     24  PN        20.6610   -5.5630   24.9380 P.3   500  NAP500      0.2189
     25  O1N       19.9110   -6.7220   25.5210 O.3   500  NAP500     -0.4371
     26  O2N       20.9920   -5.6130   23.4910 O.2   500  NAP500     -0.5170
     27  O5D       19.9070   -4.1960   25.1730 O.3   500  NAP500     -0.3112
     28  C5D       19.0750   -3.8710   26.3370 C.3   500  NAP500      0.1813
     29  C4D       17.6260   -4.0380   25.9140 C.3   500  NAP500      0.1799
     30  O4D       17.2900   -3.0490   24.8860 O.3   500  NAP500     -0.3327
     31  C3D       17.1840   -5.3560   25.2340 C.3   500  NAP500      0.2158
     32  O3D       17.1690   -6.4540   26.0910 O.3   500  NAP500     -0.2175
     33  C2D       15.8480   -4.9460   24.5960 C.3   500  NAP500      0.2309
     34  O2D       14.8930   -4.9190   25.6850 O.3   500  NAP500     -0.2158
     35  C1D       16.1560   -3.5250   24.1270 C.3   500  NAP500      0.2263
     36  N1N       16.6500   -3.4390   22.6870 N.pl3 500  NAP500     -0.2787
     37  C2N       15.7880   -2.9070   21.7620 C.3   500  NAP500      0.1244
     38  C3N       16.1410   -2.9440   20.4240 C.2   500  NAP500      0.0544
     39  C7N       15.1700   -2.3380   19.3850 C.2   500  NAP500      0.2818
     40  O7N       15.5040   -2.5110   18.2200 O.2   500  NAP500     -0.2670
     41  N7N       14.3740   -1.4230   19.8670 N.am  500  NAP500     -0.0839
     42  C4N       17.3500   -3.5230   20.0140 C.2   500  NAP500      0.0033
     43  C5N       18.2490   -4.0660   20.9740 C.2   500  NAP500      0.0157
     44  C6N       17.9130   -4.0290   22.3380 C.2   500  NAP500      0.0633
     45  P2B       23.1150  -11.5160   31.8730 P.3   500  NAP500      0.5328
     46  O1X       23.2910  -11.0350   33.3580 O.3   500  NAP500     -0.1145
     47  O2X       21.7800  -11.3220   31.2910 O.2   500  NAP500     -0.2224
     48  O3X       23.7120  -12.9440   31.7030 O.3   500  NAP500     -0.1145
@<TRIPOS>BOND
     1    40    39    2
     2    39    41   am
     3    39    38    1
     4    42    38    2
     5    42    43    1
     6    38    37    1
     7    43    44    2
     8    37    36    1
     9    44    36    1
    10    36    35    1
    11    26    24    2
    12    35    33    1
    13    35    30    1
    14    33    31    1
    15    33    34    1
    16    30    29    1
    17    24    27    1
    18    24    25    1
    19    24    23    1
    20    27    28    1
    21    31    29    1
    22    31    32    1
    23    23     1    1
    24    29    28    1
    25     2     1    2
    26     1     4    1
    27     1     3    1
    28     4     5    1
    29     5     6    1
    30     9     8    1
    31     6     8    1
    32     6     7    1
    33     8    10    1
    34     7    12    1
    35    10    12    1
    36    10    11    1
    37    12    13    1
    38    11    45    1
    39    47    45    2
    40    48    45    1
    41    13    14    1
    42    13    22    1
    43    45    46    1
    44    14    15    1
    45    21    22    2
    46    21    20    1
    47    22    16    1
    48    15    16    2
    49    20    19    1
    50    16    17    1
    51    19    17    2
    52    17    18    1
