@<TRIPOS>MOLECULE
2iko_7IG_A_1.pdb
 26 28 0 0 0
SMALL
GASTEIGER

@<TRIPOS>ATOM
      1  C1       -10.6750   27.5920  -34.9490 C.2   601  7IG601      0.2201
      2  N1        -9.6280   28.0920  -34.2470 N.2   601  7IG601     -0.3112
      3  C2        -9.4740   27.8010  -32.9260 C.1   601  7IG601      0.2419
      4  N2       -10.3490   27.0210  -32.2540 N.2   601  7IG601     -0.3339
      5  C3       -11.4310   26.4480  -32.8330 C.2   601  7IG601      0.1122
      6  C4       -11.6750   26.7170  -34.2630 C.3   601  7IG601      0.1421
      7  N3       -10.8030   27.8930  -36.2590 N.pl3 601  7IG601     -0.0962
      8  N4        -8.4280   28.3300  -32.2490 N.pl3 601  7IG601     -0.0232
      9  C5       -12.3320   25.5720  -31.9970 C.3   601  7IG601      0.0563
     10  C6       -11.7550   24.1820  -31.8960 C.3   601  7IG601      0.0075
     11  C7       -13.3060   24.2540  -36.5100 C.ar  601  7IG601      0.0158
     12  C8       -12.4060   24.9870  -35.7530 C.ar  601  7IG601     -0.0021
     13  C9       -12.8070   26.0850  -35.0030 C.ar  601  7IG601     -0.0080
     14  C10      -14.1460   26.4810  -35.0040 C.ar  601  7IG601     -0.0021
     15  C11      -15.0620   25.7490  -35.7700 C.ar  601  7IG601      0.0158
     16  C12      -14.6460   24.6320  -36.5210 C.ar  601  7IG601      0.0657
     17  N5       -15.5390   23.9210  -37.2610 N.pl3 601  7IG601     -0.2328
     18  C13      -14.3550   22.3330  -41.6920 C.ar  601  7IG601      0.1421
     19  C14      -14.7750   22.0920  -40.3950 C.ar  601  7IG601      0.0272
     20  C15      -14.6630   23.0830  -39.4340 C.ar  601  7IG601      0.0038
     21  C16      -14.1300   24.3400  -39.7850 C.ar  601  7IG601      0.0272
     22  C17      -13.7210   24.5900  -41.0940 C.ar  601  7IG601      0.1421
     23  C18      -13.8320   23.5790  -42.0440 C.ar  601  7IG601      0.0592
     24  F1       -14.4690   21.3530  -42.6100 F     601  7IG601     -0.2041
     25  C19      -15.1600   22.7420  -38.0430 C.3   601  7IG601      0.1387
     26  F2       -13.2040   25.7960  -41.4360 F     601  7IG601     -0.2041
@<TRIPOS>BOND
     1    24    18    1
     2    23    18   ar
     3    23    22   ar
     4    18    19   ar
     5    26    22    1
     6    22    21   ar
     7    19    20   ar
     8    21    20   ar
     9    20    25    1
    10    25    17    1
    11    17    16    1
    12    16    11   ar
    13    16    15   ar
    14    11    12   ar
    15     7     1    1
    16    15    14   ar
    17    12    13   ar
    18    14    13   ar
    19    13     6    1
    20     1     6    1
    21     1     2    2
    22     6     5    1
    23     2     3    2
    24     3     4    2
    25     3     8    1
    26     5     4    2
    27     5     9    1
    28     9    10    1
