@<TRIPOS>MOLECULE
2iku_LIY_A_1.pdb
 31 34 0 0 0
SMALL
GASTEIGER

@<TRIPOS>ATOM
      1  N1        -9.6520   28.0120  -34.2670 N.2   336  LIY336     -0.3112
      2  N3       -10.7850   27.7760  -36.2880 N.pl3 336  LIY336     -0.0962
      3  C4       -11.6130   26.6000  -34.2870 C.3   336  LIY336      0.1421
      4  C6       -12.2430   25.4260  -32.0240 C.3   336  LIY336      0.0563
      5  C7       -14.0190   26.2270  -35.0350 C.ar  336  LIY336     -0.0037
      6  C8       -14.8920   25.4520  -35.8030 C.ar  336  LIY336     -0.0033
      7  C10      -13.0110   24.0520  -36.5590 C.ar  336  LIY336      0.0437
      8  C13      -15.3710   23.5660  -37.3940 C.3   336  LIY336      0.0297
      9  C15      -13.3670   22.2390  -38.2960 C.3   336  LIY336      0.0956
     10  C17      -10.7670   21.8740  -35.9850 C.3   336  LIY336      0.0535
     11  C20      -11.8670   23.9880  -32.3150 C.3   336  LIY336      0.0075
     12  C21      -13.3990   22.8230  -39.6630 C.ar  336  LIY336     -0.0044
     13  C22      -13.8150   21.9950  -40.7150 C.ar  336  LIY336     -0.0027
     14  C24      -13.5150   23.7930  -42.2840 C.ar  336  LIY336     -0.0000
     15  C26      -13.0480   24.1490  -39.9340 C.ar  336  LIY336     -0.0027
     16  C1       -10.6620   27.4800  -34.9800 C.2   336  LIY336      0.2201
     17  C3       -11.3680   26.3380  -32.8500 C.2   336  LIY336      0.1122
     18  N2       -10.3320   26.9490  -32.2640 N.2   336  LIY336     -0.3339
     19  C2        -9.4850   27.7440  -32.9570 C.1   336  LIY336      0.2419
     20  N4        -8.4480   28.3300  -32.3210 N.pl3 336  LIY336     -0.0232
     21  C12      -12.6800   25.9250  -35.0460 C.ar  336  LIY336     -0.0068
     22  C11      -12.1890   24.8560  -35.7890 C.ar  336  LIY336      0.0108
     23  C9       -14.4350   24.3790  -36.5550 C.ar  336  LIY336     -0.0088
     24  C14      -14.7830   22.2060  -37.7370 C.3   336  LIY336      0.0290
     25  C23      -13.8690   22.4750  -42.0160 C.ar  336  LIY336     -0.0003
     26  C25      -13.1030   24.6250  -41.2500 C.ar  336  LIY336     -0.0003
     27  N5       -12.5300   22.9780  -37.3430 N.pl3 336  LIY336     -0.3055
     28  C16      -11.1230   22.5140  -37.3320 C.3   336  LIY336      0.0936
     29  C18       -9.2570   21.6930  -35.8620 C.3   336  LIY336      0.1440
     30  O1        -8.8570   20.9230  -34.7170 O.3   336  LIY336     -0.3510
     31  C19       -7.4240   20.8230  -34.5950 C.3   336  LIY336      0.1741
@<TRIPOS>BOND
     1    14    25   ar
     2    14    26   ar
     3    25    13   ar
     4    26    15   ar
     5    13    12   ar
     6    15    12   ar
     7    12     9    1
     8     9    24    1
     9     9    27    1
    10    24     8    1
    11     8    23    1
    12    27    28    1
    13    27     7    1
    14    28    10    1
    15     7    23   ar
    16     7    22   ar
    17    23     6   ar
    18     2    16    1
    19    10    29    1
    20    29    30    1
    21     6     5   ar
    22    22    21   ar
    23    21     5   ar
    24    21     3    1
    25    16     3    1
    26    16     1    2
    27    30    31    1
    28     3    17    1
    29     1    19    2
    30    19    20    1
    31    19    18    2
    32    17    18    2
    33    17     4    1
    34    11     4    1
