@<TRIPOS>MOLECULE
2il1_GDP_A_1.pdb
 28 30 0 0 0
SMALL
GASTEIGER

@<TRIPOS>ATOM
      1  PB        -5.7770   18.3260    8.8750 P.3   401  GDP401      0.5373
      2  O1B       -6.1770   17.5070    7.6390 O.2   401  GDP401     -0.2221
      3  O2B       -4.3520   18.1270    9.1220 O.3   401  GDP401     -0.1143
      4  O3B       -6.2610   19.7680    8.6770 O.3   401  GDP401     -0.1143
      5  O3A       -6.5180   17.6940   10.1540 O.3   401  GDP401     -0.2261
      6  PA        -7.7580   18.2420   10.9530 P.3   401  GDP401      0.2231
      7  O1A       -7.4630   19.4560   11.7740 O.3   401  GDP401     -0.4370
      8  O2A       -8.9370   18.4850    9.9970 O.2   401  GDP401     -0.5169
      9  O5'       -7.9660   16.9760   11.9030 O.3   401  GDP401     -0.3111
     10  C5'       -8.5340   15.7580   11.3910 C.3   401  GDP401      0.1813
     11  C4'       -9.1570   14.9460   12.5270 C.3   401  GDP401      0.1799
     12  O4'       -8.2120   14.8000   13.5850 O.3   401  GDP401     -0.3326
     13  C3'      -10.3490   15.6450   13.1560 C.3   401  GDP401      0.2158
     14  O3'      -11.3190   14.6400   13.4990 O.3   401  GDP401     -0.2175
     15  C2'       -9.8170   16.3070   14.4210 C.3   401  GDP401      0.2310
     16  O2'      -10.8510   16.5410   15.3890 O.3   401  GDP401     -0.2158
     17  C1'       -8.7710   15.2780   14.8390 C.3   401  GDP401      0.2293
     18  N9        -7.6480   15.8140   15.6730 N.pl3 401  GDP401     -0.2354
     19  C8        -6.8610   16.8660   15.4080 C.3   401  GDP401      0.2246
     20  N7        -5.9550   17.0530   16.3880 N.2   401  GDP401     -0.2322
     21  C5        -6.1430   16.0950   17.2910 C.2   401  GDP401      0.2182
     22  C6        -5.5220   15.7060   18.5670 C.1   401  GDP401      0.2372
     23  O6        -4.5740   16.3460   19.0110 O.2   401  GDP401     -0.2069
     24  N1        -6.0110   14.6380   19.2160 N.2   401  GDP401     -0.2485
     25  C2        -7.0540   13.9120   18.7180 C.1   401  GDP401      0.2531
     26  N2        -7.5210   12.8470   19.4030 N.pl3 401  GDP401     -0.0226
     27  N3        -7.6690   14.2240   17.5620 N.2   401  GDP401     -0.3074
     28  C4        -7.2500   15.2780   16.8150 C.2   401  GDP401      0.2300
@<TRIPOS>BOND
     1     2     1    2
     2     4     1    1
     3     1     3    1
     4     1     5    1
     5     8     6    2
     6     5     6    1
     7     6     7    1
     8     6     9    1
     9    10     9    1
    10    10    11    1
    11    11    13    1
    12    11    12    1
    13    13    14    1
    14    13    15    1
    15    12    17    1
    16    15    17    1
    17    15    16    1
    18    17    18    1
    19    19    18    1
    20    19    20    1
    21    18    28    1
    22    20    21    2
    23    28    21    1
    24    28    27    2
    25    21    22    1
    26    27    25    2
    27    22    23    2
    28    22    24    2
    29    25    24    2
    30    25    26    1
