@<TRIPOS>MOLECULE
2il2_LIX_A_1.pdb
 44 48 0 0 0
SMALL
GASTEIGER

@<TRIPOS>ATOM
      1  N1       -26.0220    1.2530   -7.2750 N.2   401  LIX401     -0.3129
      2  N3       -25.2850   -0.9410   -7.6540 N.pl3 401  LIX401     -0.2105
      3  C4       -24.1710    0.9900   -8.7990 C.3   401  LIX401      0.1404
      4  C5       -23.2170    3.1950   -9.8720 C.3   401  LIX401      0.0563
      5  C6       -23.8380    3.3960  -11.2280 C.3   401  LIX401      0.0075
      6  C7       -21.9080   -0.0740   -9.2700 C.ar  401  LIX401     -0.0002
      7  C8       -21.1630   -0.8820  -10.1330 C.ar  401  LIX401      0.0379
      8  C10      -23.0420   -1.2180  -11.6200 C.ar  401  LIX401      0.0878
      9  C13      -20.5830   -3.6680  -13.9130 C.3   401  LIX401      0.0532
     10  C15      -22.8570   -2.7550  -13.4450 C.2   401  LIX401      0.2656
     11  C17      -25.0130   -0.1470  -13.9510 C.3   401  LIX401      0.0539
     12  C20      -26.2820   -1.5310   -6.7960 C.3   401  LIX401      0.1353
     13  C21      -26.4950   -3.0050   -7.1340 C.3   401  LIX401      0.1388
     14  C22      -21.9400   -4.4030  -11.8600 C.3   401  LIX401      0.0532
     15  C24      -24.7920   -8.3570   -8.2690 C.ar  401  LIX401      0.0000
     16  C26      -25.6460   -7.9870  -10.5660 C.ar  401  LIX401      0.0001
     17  C28      -25.1310  -10.2090   -9.8160 C.ar  401  LIX401      0.0000
     18  O5       -24.4380   -3.3050   -9.4510 O.2   401  LIX401     -0.1516
     19  S1       -25.8040   -3.6440   -9.6860 S.O2  401  LIX401      0.0769
     20  O4       -26.2650   -2.9680  -10.8730 O.2   401  LIX401     -0.1516
     21  C30      -25.7630   -5.2260   -9.9680 C.ar  401  LIX401      0.1236
     22  C29      -25.2990   -6.0960   -8.9850 C.ar  401  LIX401      0.0200
     23  C25      -25.2310   -7.4620   -9.2350 C.ar  401  LIX401      0.0013
     24  C31      -26.1260   -5.7320  -11.2320 C.ar  401  LIX401      0.0200
     25  C32      -26.0840   -7.0960  -11.5310 C.ar  401  LIX401      0.0014
     26  C27      -25.5810   -9.3540  -10.8150 C.ar  401  LIX401      0.0000
     27  C23      -24.7460   -9.7240   -8.5550 C.ar  401  LIX401      0.0000
     28  N6       -26.8280   -3.1480   -8.5500 N.3   401  LIX401     -0.0759
     29  C1       -25.1910    0.3960   -7.8810 C.2   401  LIX401      0.1997
     30  C3       -24.1750    2.4640   -8.9560 C.2   401  LIX401      0.1121
     31  N2       -25.0850    3.1870   -8.2540 N.2   401  LIX401     -0.3339
     32  C2       -25.9990    2.5890   -7.4710 C.1   401  LIX401      0.2418
     33  N4       -26.9000    3.3470   -6.8140 N.pl3 401  LIX401     -0.0232
     34  C12      -23.2310    0.1430   -9.5770 C.ar  401  LIX401     -0.0067
     35  C11      -23.7870   -0.4070  -10.7490 C.ar  401  LIX401      0.0146
     36  N5       -23.5800   -1.8220  -12.7980 N.am  401  LIX401     -0.2531
     37  C16      -24.9290   -1.4790  -13.2220 C.3   401  LIX401      0.1010
     38  C18      -26.4710    0.1180  -14.2090 C.3   401  LIX401      0.1440
     39  O1       -26.6470    1.1950  -15.1290 O.3   401  LIX401     -0.3510
     40  C19      -28.0010    1.6790  -15.0630 C.3   401  LIX401      0.1741
     41  O3       -23.1970   -3.2830  -14.4890 O.2   401  LIX401     -0.2708
     42  C14      -21.5690   -3.2510  -12.8160 C.3   401  LIX401      0.2012
     43  O2       -20.9440   -2.2230  -12.0670 O.3   401  LIX401     -0.4727
     44  C9       -21.7230   -1.4510  -11.2590 C.ar  401  LIX401      0.1524
@<TRIPOS>BOND
     1    39    40    1
     2    39    38    1
     3    41    10    2
     4    38    11    1
     5    11    37    1
     6     9    42    1
     7    10    42    1
     8    10    36   am
     9    37    36    1
    10    42    43    1
    11    42    14    1
    12    36     8    1
    13    43    44    1
    14     8    44   ar
    15     8    35   ar
    16    25    24   ar
    17    25    16   ar
    18    44     7   ar
    19    24    21   ar
    20     5     4    1
    21    20    19    2
    22    26    16   ar
    23    26    17   ar
    24    35    34   ar
    25    16    23   ar
    26     7     6   ar
    27    21    19    1
    28    21    22   ar
    29     4    30    1
    30    17    27   ar
    31    19    18    2
    32    19    28    1
    33    34     6   ar
    34    34     3    1
    35    23    22   ar
    36    23    15   ar
    37    30     3    1
    38    30    31    2
    39     3    29    1
    40    27    15   ar
    41    28    13    1
    42    31    32    2
    43    29     2    1
    44    29     1    2
    45     2    12    1
    46    32     1    2
    47    32    33    1
    48    13    12    1
