@<TRIPOS>MOLECULE
2il4_COA_A_1.pdb
 48 50 0 0 0
SMALL
GASTEIGER

@<TRIPOS>ATOM
      1  N1A       -6.8460    0.8220   -6.5770 N.2   104  COA104      0.0021
      2  C2A       -5.6440    1.4050   -7.2310 C.3   104  COA104      0.5254
      3  N3A       -5.5900    2.8540   -6.9760 N.2   104  COA104     -0.0055
      4  C4A       -6.6890    3.5920   -6.5400 C.2   104  COA104      0.3518
      5  C5A       -7.8430    2.9840   -6.0680 C.2   104  COA104      0.2526
      6  C6A       -7.9010    1.6050   -6.0230 C.2   104  COA104      0.4393
      7  N6A       -8.9590    1.0110   -5.4560 N.pl3 104  COA104      0.2180
      8  N7A       -8.6990    3.9610   -5.7330 N.2   104  COA104     -0.2095
      9  C8A       -8.1010    5.1420   -5.9730 C.3   104  COA104      0.3377
     10  N9A       -6.8790    4.9090   -6.4730 N.pl3 104  COA104     -0.1439
     11  C1B       -5.8480    5.8800   -6.8980 C.3   104  COA104      0.3185
     12  C2B       -6.3610    6.8440   -7.9800 C.3   104  COA104      0.2543
     13  O2B       -5.6020    6.6440   -9.2060 O.3   104  COA104     -0.2131
     14  C3B       -6.0440    8.2150   -7.3620 C.3   104  COA104      0.1928
     15  O3B       -5.3510    8.9850   -8.3370 O.3   104  COA104     -0.2673
     16  P3B       -5.8530   10.4150   -8.8510 P.3   104  COA104      0.5327
     17  O7A       -4.8140   11.4620   -8.0900 O.3   104  COA104     -0.1145
     18  O8A       -7.3830   10.5640   -8.2580 O.3   104  COA104     -0.1145
     19  O9A       -5.7230   10.4870  -10.3390 O.2   104  COA104     -0.2224
     20  C4B       -5.0560    7.8520   -6.2380 C.3   104  COA104      0.1795
     21  O4B       -5.5930    6.6580   -5.7550 O.3   104  COA104     -0.3136
     22  C5B       -5.1280    8.7780   -5.0510 C.3   104  COA104      0.1812
     23  O5B       -3.8870    8.6870   -4.3520 O.3   104  COA104     -0.3112
     24  P1A       -3.7830    9.0410   -2.8070 P.3   104  COA104      0.2189
     25  O1A       -4.3380   10.3870   -2.6100 O.2   104  COA104     -0.5170
     26  O2A       -2.4190    8.6650   -2.3360 O.3   104  COA104     -0.4371
     27  O3A       -4.8260    7.9760   -2.1340 O.3   104  COA104     -0.2703
     28  P2A       -5.9570    8.3000   -1.0140 P.3   104  COA104      0.2188
     29  O4A       -5.3480    8.8890    0.2510 O.3   104  COA104     -0.4371
     30  O5A       -7.1140    8.9490   -1.6270 O.2   104  COA104     -0.5170
     31  O6A       -6.3820    6.8770   -0.6510 O.3   104  COA104     -0.3138
     32  CBP       -7.3460    4.7090   -1.0710 C.3   104  COA104      0.0645
     33  CCP       -6.5030    5.8490   -1.6600 C.3   104  COA104      0.1519
     34  CDP       -7.5600    3.6520   -2.1510 C.3   104  COA104      0.0056
     35  CEP       -6.6170    4.1160    0.1280 C.3   104  COA104      0.0056
     36  CAP       -8.7140    5.2880   -0.5880 C.3   104  COA104      0.2312
     37  OAP       -9.4210    5.8990   -1.6840 O.3   104  COA104     -0.2131
     38  C9P       -9.6140    4.1840    0.0210 C.2   104  COA104      0.2719
     39  O9P       -9.5840    4.0060    1.3310 O.2   104  COA104     -0.2706
     40  N8P      -10.3620    3.4540   -0.7780 N.am  104  COA104     -0.2028
     41  C7P      -11.2240    2.3470   -0.2670 C.3   104  COA104      0.1248
     42  C6P      -10.3920    1.0790    0.1110 C.3   104  COA104      0.1102
     43  C5P       -9.6740    0.4350   -1.0860 C.2   104  COA104      0.2432
     44  O5P      -10.4070    0.1710   -2.2050 O.2   104  COA104     -0.2733
     45  N4P       -8.3670    0.1630   -0.9790 N.am  104  COA104     -0.2044
     46  C3P       -7.6180   -0.4310   -2.1130 C.3   104  COA104      0.1276
     47  C2P       -7.5000   -1.9440   -1.9920 C.3   104  COA104      0.0920
     48  S1P       -6.6610   -2.4010   -0.4380 S.3   104  COA104     -0.0802
@<TRIPOS>BOND
     1    19    16    2
     2    13    12    1
     3    16    15    1
     4    16    18    1
     5    16    17    1
     6    15    14    1
     7    12    14    1
     8    12    11    1
     9    14    20    1
    10     2     3    1
    11     2     1    1
    12     3     4    2
    13    11    10    1
    14    11    21    1
    15     1     6    2
    16     4    10    1
    17     4     5    1
    18    10     9    1
    19    20    21    1
    20    20    22    1
    21     5     6    1
    22     5     8    2
    23     6     7    1
    24     9     8    1
    25    22    23    1
    26    23    24    1
    27    24    25    2
    28    24    26    1
    29    24    27    1
    30    44    43    2
    31    34    32    1
    32    27    28    1
    33    46    47    1
    34    46    45    1
    35    47    48    1
    36    37    36    1
    37    33    32    1
    38    33    31    1
    39    30    28    2
    40    43    45   am
    41    43    42    1
    42    32    36    1
    43    32    35    1
    44    28    31    1
    45    28    29    1
    46    40    41    1
    47    40    38   am
    48    36    38    1
    49    41    42    1
    50    38    39    2
