@<TRIPOS>MOLECULE
2ilm_III_S_1.pdb
 39 38 0 0 0
SMALL
GASTEIGER

@<TRIPOS>ATOM
      1  N         49.3860   35.5960   30.2780 N.3   794  GLN794     -0.1231
      2  CA        48.2200   35.2620   29.4110 C.3   794  GLN794      0.1694
      3  C         47.0530   36.1690   29.7570 C.2   794  GLN794      0.2592
      4  O         46.8310   37.1790   29.0890 O.2   794  GLN794     -0.2718
      5  CB        47.8190   33.7990   29.6000 C.3   794  GLN794      0.0304
      6  N         46.3090   35.8010   30.8000 N.am  795  LEU795     -0.1966
      7  CA        45.1550   36.5760   31.2610 C.3   795  LEU795      0.1728
      8  C         43.9870   36.4480   30.2880 C.2   795  LEU795      0.2617
      9  O         42.8300   36.6540   30.6500 O.2   795  LEU795     -0.2715
     10  CB        45.5410   38.0530   31.4160 C.3   795  LEU795      0.0311
     11  CG        44.7150   38.9640   32.3270 C.3   795  LEU795      0.0022
     12  CD1       44.6370   38.3650   33.7150 C.3   795  LEU795      0.0001
     13  CD2       45.3570   40.3350   32.3990 C.3   795  LEU795      0.0001
     14  N         44.3000   36.0900   29.0500 N.am  796  THR796     -0.1937
     15  CA        43.2850   35.9490   28.0200 C.3   796  THR796      0.2028
     16  C         42.7620   34.5090   27.9760 C.2   796  THR796      0.2643
     17  O         42.2000   34.0650   26.9770 O.2   796  THR796     -0.2714
     18  CB        43.8680   36.3790   26.6470 C.3   796  THR796      0.1808
     19  OG1       42.8050   36.5950   25.7120 O.3   796  THR796     -0.2208
     20  CG2       44.8150   35.3160   26.1140 C.3   796  THR796      0.0379
     21  N         42.9280   33.7980   29.0850 N.am  797  SER797     -0.1935
     22  CA        42.4880   32.4100   29.2030 C.3   797  SER797      0.2055
     23  C         41.2270   32.2320   30.0630 C.2   797  SER797      0.2643
     24  O         41.0050   32.9680   31.0240 O.2   797  SER797     -0.2714
     25  CB        43.6320   31.5680   29.7820 C.3   797  SER797      0.2130
     26  OG        44.1890   32.1790   30.9370 O.3   797  SER797     -0.2179
     27  N         40.4070   31.2400   29.7250 N.am  798  TYR798     -0.1963
     28  CA        39.1730   30.9820   30.4730 C.3   798  TYR798      0.1728
     29  C         39.3380   29.9380   31.5690 C.2   798  TYR798      0.2616
     30  O         40.4400   29.7080   32.0660 O.2   798  TYR798     -0.2715
     31  CB        38.0670   30.5480   29.5210 C.3   798  TYR798      0.0334
     32  N         38.2300   29.3070   31.9390 N.am  799  ASP799     -0.1971
     33  CA        38.2370   28.2820   32.9760 C.3   799  ASP799      0.1709
     34  C         36.8350   27.6980   33.1120 C.2   799  ASP799      0.2293
     35  O         36.0230   27.9480   32.1980 O.2   799  ASP799     -0.2864
     36  CB        38.6990   28.8800   34.3120 C.3   799  ASP799      0.1436
     37  CG        39.1010   27.8180   35.3220 C.2   799  ASP799      0.3671
     38  OD1       38.2040   27.1490   35.8740 O.co2 799  ASP799     -0.2456
     39  OD2       40.3170   27.6490   35.5580 O.co2 799  ASP799     -0.2456
@<TRIPOS>BOND
     1    19    18    1
     2    20    18    1
     3    18    15    1
     4    17    16    2
     5    16    15    1
     6    16    21   am
     7    15    14    1
     8    14     8   am
     9    21    22    1
    10     4     3    2
    11    22    25    1
    12    22    23    1
    13     2     5    1
    14     2     3    1
    15     2     1    1
    16    31    28    1
    17    27    23   am
    18    27    28    1
    19     3     6   am
    20    25    26    1
    21    23    24    2
    22     8     9    2
    23     8     7    1
    24    28    29    1
    25     6     7    1
    26     7    10    1
    27    10    11    1
    28    29    32   am
    29    29    30    2
    30    32    33    1
    31    35    34    2
    32    11    13    1
    33    11    12    1
    34    33    34    1
    35    33    36    1
    36    36    37    1
    37    37    39   ar
    38    37    38   ar
