@<TRIPOS>MOLECULE
2ilm_AKG_A_1.pdb
 10 9 0 0 0
SMALL
GASTEIGER

@<TRIPOS>ATOM
      1  C1        22.0080   25.2410   27.6360 C.2   1351  AKG1351     0.4219
      2  O1        21.8270   24.1100   27.1940 O.co2 1351  AKG1351    -0.2373
      3  O2        23.1020   25.7920   27.4750 O.co2 1351  AKG1351    -0.2373
      4  C2        20.8880   25.9610   28.3830 C.2   1351  AKG1351     0.2526
      5  O5        21.0940   27.0830   28.8560 O.2   1351  AKG1351    -0.2843
      6  C3        19.6470   25.3460   28.5100 C.3   1351  AKG1351     0.0881
      7  C4        18.6400   25.8810   29.3100 C.3   1351  AKG1351     0.1224
      8  C5        17.2480   25.6060   28.7380 C.2   1351  AKG1351     0.3653
      9  O3        16.2480   25.9770   29.3500 O.co2 1351  AKG1351    -0.2456
     10  O4        17.0930   25.0200   27.6640 O.co2 1351  AKG1351    -0.2456
@<TRIPOS>BOND
     1     2     1   ar
     2     3     1   ar
     3     1     4    1
     4    10     8   ar
     5     4     6    1
     6     4     5    2
     7     6     7    1
     8     8     7    1
     9     8     9   ar
