@<TRIPOS>MOLECULE
2ilp_GB5_A_1.pdb
 13 13 0 0 0
SMALL
GASTEIGER

@<TRIPOS>ATOM
      1  O12       -5.1480   -6.0740   21.4580 O.2   600  GB5600     -0.5359
      2  C11       -4.3600   -6.6480   22.1930 C.2   600  GB5600      0.1102
      3  N13       -3.8010   -6.0090   23.2180 N.am  600  GB5600     -0.1984
      4  O14       -4.0290   -4.6500   23.4070 O.3   600  GB5600     -0.4024
      5  C10       -3.9550   -8.0410   21.9050 C.2   600  GB5600      0.0245
      6  C9        -4.3270   -8.6090   20.7460 C.2   600  GB5600      0.0019
      7  C1        -3.9600   -9.9950   20.3370 C.ar  600  GB5600      0.0001
      8  C2        -3.1550  -10.8420   21.1130 C.ar  600  GB5600      0.0009
      9  C3        -2.8550  -12.1340   20.6600 C.ar  600  GB5600      0.0114
     10  C4        -3.3530  -12.5970   19.4440 C.ar  600  GB5600      0.0577
     11 CL1        -3.0330  -13.9980   18.9730 Cl    600  GB5600     -0.0822
     12  C5        -4.1470  -11.7480   18.6720 C.ar  600  GB5600      0.0114
     13  C6        -4.4530  -10.4600   19.1140 C.ar  600  GB5600      0.0009
@<TRIPOS>BOND
     1    12    13   ar
     2    12    10   ar
     3    11    10    1
     4    13     7   ar
     5    10     9   ar
     6     7     6    1
     7     7     8   ar
     8     9     8   ar
     9     6     5    2
    10     1     2    2
    11     5     2    1
    12     2     3   am
    13     3     4    1
