@<TRIPOS>MOLECULE
2ilt_NN1_A_1.pdb
 29 32 0 0 0
SMALL
GASTEIGER

@<TRIPOS>ATOM
      1  C4        66.4060   99.9950   46.3490 C.ar  902  NN1902      0.1495
      2  C5        60.9580  107.4350   45.9520 C.3   902  NN1902      0.1759
      3  C6        67.1870   98.8550   46.3660 C.ar  902  NN1902      0.0938
      4  C7        66.9800  101.2290   46.5930 C.ar  902  NN1902      0.0401
      5  C8        68.3230  101.3260   46.8720 C.ar  902  NN1902      0.0328
      6  C10       69.0960  100.1850   46.8960 C.ar  902  NN1902      0.1412
      7  C15       63.5370  103.5220   45.9560 C.3   902  NN1902      0.0954
      8  C17       65.6280  104.8780   46.2710 C.3   902  NN1902      0.0018
      9  C20       63.5550  103.8840   44.4820 C.3   902  NN1902      0.0217
     10  C21       62.7350  105.1490   44.3110 C.3   902  NN1902      0.0236
     11  C22       63.3430  106.2860   45.1230 C.3   902  NN1902      0.1108
     12  C24       63.4090  105.9020   46.6000 C.3   902  NN1902      0.0236
     13  C1        63.0250   99.0770   46.9960 C.3   902  NN1902      0.0532
     14  C2        64.1660  100.0420   47.1980 C.3   902  NN1902      0.2023
     15  C3        64.7830   99.7690   48.5550 C.3   902  NN1902      0.0532
     16  O3        65.0430   99.8920   46.0600 O.3   902  NN1902     -0.4730
     17  C14       63.5860  101.4340   47.1950 C.2   902  NN1902      0.2775
     18  O1        62.7550  101.8220   48.0080 O.2   902  NN1902     -0.2696
     19  N4        64.0890  102.2160   46.1940 N.am  902  NN1902     -0.2043
     20  C16       64.2130  104.6220   46.7660 C.3   902  NN1902      0.0217
     21  C18       65.5960  105.2730   44.8020 C.3   902  NN1902      0.0017
     22  C19       64.9720  104.1450   43.9970 C.3   902  NN1902      0.0018
     23  C23       64.7590  106.5340   44.6280 C.3   902  NN1902      0.0219
     24  S1        62.3470  107.7450   44.8950 S.O2  902  NN1902     -0.0114
     25  O2        63.0660  108.8890   45.4160 O.2   902  NN1902     -0.1730
     26  O4        61.8180  107.7450   43.5440 O.2   902  NN1902     -0.1730
     27  C9        68.5340   98.9510   46.6440 C.ar  902  NN1902      0.0441
     28 CL1        66.5080   97.2930   46.0600 Cl    902  NN1902     -0.0790
     29  F1        70.4180  100.2710   47.1680 F     902  NN1902     -0.2041
@<TRIPOS>BOND
     1    26    24    2
     2    22     9    1
     3    22    21    1
     4    10     9    1
     5    10    11    1
     6     9     7    1
     7    23    21    1
     8    23    11    1
     9    21     8    1
    10    24    11    1
    11    24    25    2
    12    24     2    1
    13    11    12    1
    14     7    19    1
    15     7    20    1
    16    28     3    1
    17    16     1    1
    18    16    14    1
    19    19    17   am
    20     8    20    1
    21     1     3   ar
    22     1     4   ar
    23     3    27   ar
    24     4     5   ar
    25    12    20    1
    26    27     6   ar
    27     5     6   ar
    28     6    29    1
    29    13    14    1
    30    17    14    1
    31    17    18    2
    32    14    15    1
