@<TRIPOS>MOLECULE
2ilt_NAP_A_1.pdb
 48 52 0 0 0
SMALL
GASTEIGER

@<TRIPOS>ATOM
      1  PA        57.3440  109.6620   42.1570 P.3   901  NAP901      0.2189
      2  O1A       58.5830  110.4660   42.1010 O.3   901  NAP901     -0.4371
      3  O2A       56.9730  109.1360   40.8160 O.2   901  NAP901     -0.5170
      4  O5B       56.1740  110.5530   42.8030 O.3   901  NAP901     -0.3112
      5  C5B       56.3200  111.2560   44.0090 C.3   901  NAP901      0.1813
      6  C4B       55.0930  112.1550   44.0970 C.3   901  NAP901      0.1820
      7  O4B       55.1370  112.9820   45.2550 O.3   901  NAP901     -0.3136
      8  C3B       54.9940  113.0730   42.8850 C.3   901  NAP901      0.2157
      9  O3B       53.6550  113.1080   42.4330 O.3   901  NAP901     -0.2175
     10  C2B       55.4100  114.4330   43.4090 C.3   901  NAP901      0.2314
     11  O2B       54.7370  115.4720   42.7360 O.3   901  NAP901     -0.2630
     12  C1B       55.0380  114.3560   44.8840 C.3   901  NAP901      0.3158
     13  N9A       55.9170  115.2050   45.7100 N.pl3 901  NAP901     -0.1439
     14  C8A       57.2930  115.2590   45.7070 C.3   901  NAP901      0.3377
     15  N7A       57.6890  116.1790   46.6240 N.2   901  NAP901     -0.2095
     16  C5A       56.5870  116.7080   47.2130 C.2   901  NAP901      0.2526
     17  C6A       56.4060  117.6720   48.1990 C.2   901  NAP901      0.4393
     18  N6A       57.4410  118.2840   48.7710 N.pl3 901  NAP901      0.2180
     19  N1A       55.1230  118.0070   48.5890 N.2   901  NAP901      0.0021
     20  C2A       54.0270  117.3920   48.0130 C.3   901  NAP901      0.5254
     21  N3A       54.2140  116.4300   47.0350 N.2   901  NAP901     -0.0055
     22  C4A       55.4700  116.1000   46.6430 C.2   901  NAP901      0.3518
     23  O3        57.4890  108.4210   43.1720 O.3   901  NAP901     -0.2703
     24  PN        57.1550  106.8740   42.9130 P.3   901  NAP901      0.2189
     25  O1N       58.4020  106.2290   42.4510 O.3   901  NAP901     -0.4371
     26  O2N       55.9250  106.7420   42.1090 O.2   901  NAP901     -0.5170
     27  O5D       56.8630  106.3340   44.4180 O.3   901  NAP901     -0.3112
     28  C5D       55.7170  106.6420   45.1840 C.3   901  NAP901      0.1813
     29  C4D       55.8090  105.9550   46.5530 C.3   901  NAP901      0.1799
     30  O4D       56.2400  104.5940   46.4530 O.3   901  NAP901     -0.3327
     31  C3D       56.7950  106.6590   47.4810 C.3   901  NAP901      0.2158
     32  O3D       56.2580  106.7070   48.7910 O.3   901  NAP901     -0.2175
     33  C2D       58.0130  105.7570   47.4150 C.3   901  NAP901      0.2309
     34  O2D       58.8630  105.8920   48.5230 O.3   901  NAP901     -0.2158
     35  C1D       57.3530  104.3840   47.3130 C.3   901  NAP901      0.2263
     36  N1N       58.2770  103.3710   46.7830 N.pl3 901  NAP901     -0.2787
     37  C2N       58.6390  103.4260   45.4640 C.3   901  NAP901      0.1244
     38  C3N       59.5190  102.4780   44.9490 C.2   901  NAP901      0.0544
     39  C7N       59.9270  102.5650   43.5160 C.2   901  NAP901      0.2818
     40  O7N       60.9110  101.6890   43.0610 O.2   901  NAP901     -0.2670
     41  N7N       59.3500  103.4560   42.7110 N.am  901  NAP901     -0.0839
     42  C4N       60.0260  101.4670   45.7770 C.2   901  NAP901      0.0033
     43  C5N       59.6490  101.4300   47.1190 C.2   901  NAP901      0.0157
     44  C6N       58.7680  102.3960   47.6070 C.2   901  NAP901      0.0633
     45  P2B       55.3880  116.9410   42.6020 P.3   901  NAP901      0.5328
     46  O1X       56.8530  116.8230   42.2690 O.3   901  NAP901     -0.1145
     47  O2X       54.6670  117.7190   41.5230 O.2   901  NAP901     -0.2224
     48  O3X       55.2060  117.6050   43.9460 O.3   901  NAP901     -0.1145
@<TRIPOS>BOND
     1     3     1    2
     2    47    45    2
     3     2     1    1
     4    26    24    2
     5     1     4    1
     6     1    23    1
     7    46    45    1
     8     9     8    1
     9    25    24    1
    10    45    11    1
    11    45    48    1
    12    41    39   am
    13    11    10    1
    14     4     5    1
    15     8    10    1
    16     8     6    1
    17    24    23    1
    18    24    27    1
    19    40    39    2
    20    10    12    1
    21    39    38    1
    22     5     6    1
    23     6     7    1
    24    27    28    1
    25    12     7    1
    26    12    13    1
    27    38    37    1
    28    38    42    2
    29    28    29    1
    30    37    36    1
    31    14    13    1
    32    14    15    1
    33    13    22    1
    34    42    43    1
    35    30    29    1
    36    30    35    1
    37    29    31    1
    38    15    16    2
    39    22    21    2
    40    22    16    1
    41    36    35    1
    42    36    44    1
    43    21    20    1
    44    43    44    2
    45    16    17    1
    46    35    33    1
    47    33    31    1
    48    33    34    1
    49    31    32    1
    50    20    19    1
    51    17    19    2
    52    17    18    1
