@<TRIPOS>MOLECULE
2ilu_NDP_A_1.pdb
 48 52 0 0 0
SMALL
GASTEIGER

@<TRIPOS>ATOM
      1  PA        32.4140   27.8450   62.9050 P.3   482  NDP482      0.2189
      2  O1A       31.0960   28.5140   62.8720 O.3   482  NDP482     -0.4371
      3  O2A       32.4880   26.4040   62.6200 O.2   482  NDP482     -0.5170
      4  O5B       32.9900   28.1950   64.3150 O.3   482  NDP482     -0.3112
      5  C5B       34.3090   27.7500   64.6560 C.3   482  NDP482      0.1813
      6  C4B       34.5670   28.1030   66.1160 C.3   482  NDP482      0.1820
      7  O4B       33.2150   28.1660   66.7480 O.3   482  NDP482     -0.3136
      8  C3B       35.2530   26.9490   66.7670 C.3   482  NDP482      0.2157
      9  O3B       35.9150   27.3700   67.9670 O.3   482  NDP482     -0.2175
     10  C2B       34.0820   26.0600   67.0100 C.3   482  NDP482      0.2314
     11  O2B       34.3410   24.8590   67.6730 O.3   482  NDP482     -0.2630
     12  C1B       33.1240   27.0290   67.6610 C.3   482  NDP482      0.3158
     13  N9A       31.7360   26.5600   67.6760 N.pl3 482  NDP482     -0.1439
     14  C8A       31.1150   25.7940   66.7010 C.3   482  NDP482      0.3377
     15  N7A       29.8770   25.4320   67.0190 N.2   482  NDP482     -0.2095
     16  C5A       29.6820   25.9830   68.2400 C.2   482  NDP482      0.2526
     17  C6A       28.5500   25.9600   69.1110 C.2   482  NDP482      0.4393
     18  N6A       27.4220   25.3230   68.8160 N.pl3 482  NDP482      0.2180
     19  N1A       28.6880   26.6380   70.2960 N.2   482  NDP482      0.0021
     20  C2A       29.8190   27.2970   70.6290 C.3   482  NDP482      0.5254
     21  N3A       30.9530   27.3790   69.8670 N.2   482  NDP482     -0.0055
     22  C4A       30.8280   26.6980   68.6630 C.2   482  NDP482      0.3518
     23  O3        33.4280   28.6430   61.9350 O.3   482  NDP482     -0.2703
     24  PN        34.7210   28.3250   61.0700 P.3   482  NDP482      0.2189
     25  O1N       35.5320   27.2970   61.7710 O.3   482  NDP482     -0.4371
     26  O2N       35.3580   29.6540   60.8300 O.2   482  NDP482     -0.5170
     27  O5D       34.2180   27.7960   59.6280 O.3   482  NDP482     -0.3112
     28  C5D       33.2370   26.7340   59.4670 C.3   482  NDP482      0.1813
     29  C4D       33.9080   25.3940   59.2900 C.3   482  NDP482      0.1799
     30  O4D       33.5720   24.4930   60.3950 O.3   482  NDP482     -0.3327
     31  C3D       33.5330   24.5970   58.0280 C.3   482  NDP482      0.2158
     32  O3D       34.1180   25.0750   56.8460 O.3   482  NDP482     -0.2175
     33  C2D       33.9070   23.1770   58.4340 C.3   482  NDP482      0.2309
     34  O2D       35.2870   22.9560   58.1400 O.3   482  NDP482     -0.2158
     35  C1D       33.5780   23.1460   59.9360 C.3   482  NDP482      0.2263
     36  N1N       32.2520   22.4740   60.2640 N.pl3 482  NDP482     -0.2787
     37  C2N       32.2510   21.1100   60.5130 C.3   482  NDP482      0.1244
     38  C3N       31.0810   20.4090   60.8210 C.2   482  NDP482      0.0544
     39  C7N       31.0730   18.9030   61.0960 C.2   482  NDP482      0.2818
     40  O7N       31.6540   18.1420   60.3170 O.2   482  NDP482     -0.2670
     41  N7N       30.4220   18.4990   62.2030 N.am  482  NDP482     -0.0839
     42  C4N       29.8270   21.1380   60.8800 C.2   482  NDP482      0.0033
     43  C5N       29.8300   22.5320   60.6260 C.2   482  NDP482      0.0157
     44  C6N       31.0100   23.2030   60.3220 C.2   482  NDP482      0.0633
     45  P2B       34.9900   23.6180   66.8500 P.3   482  NDP482      0.5328
     46  O1X       36.3640   24.0370   66.4320 O.3   482  NDP482     -0.1145
     47  O2X       34.9270   22.5060   67.8590 O.3   482  NDP482     -0.1145
     48  O3X       34.0700   23.3780   65.6780 O.2   482  NDP482     -0.2224
@<TRIPOS>BOND
     1    32    31    1
     2    31    33    1
     3    31    29    1
     4    34    33    1
     5    33    35    1
     6    29    28    1
     7    29    30    1
     8    28    27    1
     9    27    24    1
    10    35    36    1
    11    35    30    1
    12    36    44    1
    13    36    37    1
    14    40    39    2
    15    44    43    2
    16    37    38    1
    17    43    42    1
    18    38    42    2
    19    38    39    1
    20    26    24    2
    21    24    25    1
    22    24    23    1
    23    39    41   am
    24    23     1    1
    25     3     1    2
    26     2     1    1
    27     1     4    1
    28     4     5    1
    29     5     6    1
    30    48    45    2
    31     6     7    1
    32     6     8    1
    33    46    45    1
    34    14    15    1
    35    14    13    1
    36     7    12    1
    37     8    10    1
    38     8     9    1
    39    45    11    1
    40    45    47    1
    41    10    12    1
    42    10    11    1
    43    15    16    2
    44    12    13    1
    45    13    22    1
    46    16    22    1
    47    16    17    1
    48    22    21    2
    49    18    17    1
    50    17    19    2
    51    21    20    1
    52    19    20    1
