@<TRIPOS>MOLECULE
2ilv_C5P_A_1.pdb
 21 22 0 0 0
SMALL
GASTEIGER

@<TRIPOS>ATOM
      1  O3P       11.7380   -1.0300   -1.0350 O.2   1427  C5P1427    -0.2224
      2  P         11.8600   -0.2920    0.3730 P.3   1427  C5P1427     0.5327
      3  O1P       10.4480    0.2110    0.8480 O.3   1427  C5P1427    -0.1145
      4  O2P       13.0030    0.8250    0.3310 O.3   1427  C5P1427    -0.1145
      5  O5'       12.3440   -1.3960    1.3820 O.3   1427  C5P1427    -0.2675
      6  C5'       12.2460   -1.2050    2.7710 C.3   1427  C5P1427     0.1859
      7  C4'       12.4920   -2.5840    3.3380 C.3   1427  C5P1427     0.1801
      8  O4'       11.4630   -3.5680    3.0680 O.3   1427  C5P1427    -0.3320
      9  C3'       13.8140   -3.2310    2.9690 C.3   1427  C5P1427     0.2158
     10  O3'       14.9310   -2.9740    3.7700 O.3   1427  C5P1427    -0.2175
     11  C2'       13.4930   -4.6860    2.8050 C.3   1427  C5P1427     0.2319
     12  O2'       13.5990   -5.1540    4.1460 O.3   1427  C5P1427    -0.2157
     13  C1'       12.0190   -4.8530    2.7290 C.3   1427  C5P1427     0.2400
     14  N1        11.7210   -5.3000    1.3430 N.am  1427  C5P1427    -0.1778
     15  C2        11.7900   -6.6670    0.9870 C.1   1427  C5P1427     0.2756
     16  N3        11.5280   -7.0650   -0.2820 N.2   1427  C5P1427    -0.3024
     17  C4        11.1620   -6.1580   -1.2120 C.2   1427  C5P1427     0.2346
     18  C5        11.0940   -4.8060   -0.9010 C.2   1427  C5P1427     0.0687
     19  C6        11.3780   -4.4040    0.3970 C.2   1427  C5P1427     0.0836
     20  O2        12.1040   -7.5230    1.8490 O.2   1427  C5P1427    -0.1925
     21  N4        10.8760   -6.5410   -2.4610 N.pl3 1427  C5P1427    -0.0921
@<TRIPOS>BOND
     1    21    17    1
     2    17    18    1
     3    17    16    2
     4     1     2    2
     5    18    19    2
     6    16    15    2
     7     4     2    1
     8     2     3    1
     9     2     5    1
    10    19    14    1
    11    15    14   am
    12    15    20    2
    13    14    13    1
    14     5     6    1
    15    13    11    1
    16    13     8    1
    17     6     7    1
    18    11     9    1
    19    11    12    1
    20     9     7    1
    21     9    10    1
    22     8     7    1
