@<TRIPOS>MOLECULE
2ilv_LBT_A_1.pdb
 23 24 0 0 0
SMALL
GASTEIGER

@<TRIPOS>ATOM
      1  C1         6.2360    5.9640    3.6980 C.3   3824  LBT3824     0.2695
      2  C2         7.6700    5.4560    3.5280 C.3   3824  LBT3824     0.2406
      3  C3         7.8050    3.9690    3.8730 C.3   3824  LBT3824     0.2198
      4  C4         7.1200    3.6560    5.2110 C.3   3824  LBT3824     0.2144
      5  C5         5.6760    4.1780    5.2160 C.3   3824  LBT3824     0.1835
      6  C6         4.9300    3.8270    6.5150 C.3   3824  LBT3824     0.2142
      7  O1         6.2920    7.3880    3.6180 O.3   3824  LBT3824    -0.3257
      8  O2         8.0930    5.7490    2.1820 O.3   3824  LBT3824    -0.2149
      9  O3         9.1880    3.5590    3.8900 O.3   3824  LBT3824    -0.2174
     10  O4         7.8220    4.2680    6.3030 O.3   3824  LBT3824    -0.2176
     11  O5         5.7090    5.5960    4.9750 O.3   3824  LBT3824    -0.3256
     12  O6         3.7750    4.6700    6.6440 O.3   3824  LBT3824    -0.2176
     13  C1'        3.5100   10.4000    2.6770 C.3   3824  LBT3824     0.3023
     14  C2'        3.1350    9.4340    3.8000 C.3   3824  LBT3824     0.2433
     15  C3'        4.3520    8.6580    4.3220 C.3   3824  LBT3824     0.2168
     16  C4'        5.1050    8.0080    3.1530 C.3   3824  LBT3824     0.1804
     17  C5'        5.4320    9.0680    2.0920 C.3   3824  LBT3824     0.1804
     18  C6'        6.1860    8.5160    0.8830 C.3   3824  LBT3824     0.2141
     19  O1'        4.3590   11.4250    3.2000 O.3   3824  LBT3824    -0.1869
     20  O2'        2.5290   10.1160    4.8930 O.3   3824  LBT3824    -0.2148
     21  O3'        3.9000    7.6700    5.2590 O.3   3824  LBT3824    -0.2175
     22  O5'        4.2150    9.6950    1.6460 O.3   3824  LBT3824    -0.3237
     23  O6'        6.5460    9.6100    0.0260 O.3   3824  LBT3824    -0.2176
@<TRIPOS>BOND
     1    23    18    1
     2    18    17    1
     3    22    17    1
     4    22    13    1
     5    17    16    1
     6     8     2    1
     7    13    19    1
     8    13    14    1
     9    16     7    1
    10    16    15    1
    11     2     1    1
    12     2     3    1
    13     7     1    1
    14     1    11    1
    15    14    15    1
    16    14    20    1
    17     3     9    1
    18     3     4    1
    19    15    21    1
    20    11     5    1
    21     4     5    1
    22     4    10    1
    23     5     6    1
    24     6    12    1
