@<TRIPOS>MOLECULE
2ily_ATP_A_1.pdb
 31 33 0 0 0
SMALL
GASTEIGER

@<TRIPOS>ATOM
      1  PG       281.3820   39.9340   -8.0020 P.3   1001  ATP1001     0.5373
      2  O1G      280.1930   40.7590   -8.7090 O.2   1001  ATP1001    -0.2221
      3  O2G      281.1310   38.3890   -8.3840 O.3   1001  ATP1001    -0.1143
      4  O3G      281.4100   40.1440   -6.5370 O.3   1001  ATP1001    -0.1143
      5  PB       283.3740   41.8380   -8.5730 P.3   1001  ATP1001     0.2277
      6  O1B      282.5120   42.7940   -9.5410 O.2   1001  ATP1001    -0.5168
      7  O2B      283.3880   42.3110   -7.1730 O.3   1001  ATP1001    -0.4368
      8  O3B      282.7480   40.3610   -8.7420 O.3   1001  ATP1001    -0.2258
      9  PA       286.1770   41.5940   -8.3560 P.3   1001  ATP1001     0.2189
     10  O1A      287.1790   40.6970   -9.2430 O.2   1001  ATP1001    -0.5170
     11  O2A      285.9160   40.9770   -7.0360 O.3   1001  ATP1001    -0.4371
     12  O3A      284.8410   41.7610   -9.2400 O.3   1001  ATP1001    -0.2700
     13  O5'      286.8410   43.0580   -8.2560 O.3   1001  ATP1001    -0.3112
     14  C5'      286.5970   44.0430   -9.2680 C.3   1001  ATP1001     0.1813
     15  C4'      286.7460   45.4380   -8.6930 C.3   1001  ATP1001     0.1821
     16  O4'      288.0630   45.5710   -8.1000 O.3   1001  ATP1001    -0.3135
     17  C3'      286.6710   46.5870   -9.6890 C.3   1001  ATP1001     0.2184
     18  O3'      285.3190   46.9510   -9.9550 O.3   1001  ATP1001    -0.2174
     19  C2'      287.4230   47.6980   -8.9600 C.3   1001  ATP1001     0.2570
     20  O2'      286.6260   48.3790   -8.0100 O.3   1001  ATP1001    -0.2130
     21  C1'      288.5160   46.9070   -8.2310 C.3   1001  ATP1001     0.3186
     22  N9       289.8270   46.8900   -8.8880 N.pl3 1001  ATP1001    -0.1439
     23  C8       290.1140   46.7060  -10.2210 C.3   1001  ATP1001     0.3377
     24  N7       291.3970   46.7430  -10.4960 N.2   1001  ATP1001    -0.2095
     25  C5       291.9980   46.9660   -9.2620 C.2   1001  ATP1001     0.2526
     26  C6       293.3510   47.1100   -8.8720 C.2   1001  ATP1001     0.4393
     27  N6       294.3800   47.0480   -9.7220 N.pl3 1001  ATP1001     0.2180
     28  N1       293.6090   47.3230   -7.5610 N.2   1001  ATP1001     0.0021
     29  C2       292.5790   47.3890   -6.7090 C.3   1001  ATP1001     0.5254
     30  N3       291.2710   47.2730   -6.9520 N.2   1001  ATP1001    -0.0055
     31  C4       291.0440   47.0610   -8.2630 C.2   1001  ATP1001     0.3518
@<TRIPOS>BOND
     1    24    23    1
     2    24    25    2
     3    23    22    1
     4    18    17    1
     5    27    26    1
     6    17    19    1
     7    17    15    1
     8     6     5    2
     9    14    15    1
    10    14    13    1
    11    25    26    1
    12    25    31    1
    13    10     9    2
    14    12     5    1
    15    12     9    1
    16    19    21    1
    17    19    20    1
    18    22    31    1
    19    22    21    1
    20    26    28    2
    21     8     5    1
    22     8     1    1
    23     2     1    2
    24    15    16    1
    25     5     7    1
    26     3     1    1
    27     9    13    1
    28     9    11    1
    29    31    30    2
    30    21    16    1
    31     1     4    1
    32    28    29    1
    33    30    29    1
