@<TRIPOS>MOLECULE
2ilz_GTP_A_1.pdb
 32 34 0 0 0
SMALL
GASTEIGER

@<TRIPOS>ATOM
      1  PG       216.7470  -71.1780   -2.4740 P.3   1001  GTP1001     0.5373
      2  O1G      216.7980  -72.5200   -1.5960 O.3   1001  GTP1001    -0.1143
      3  O2G      215.2280  -70.6820   -2.3080 O.3   1001  GTP1001    -0.1143
      4  O3G      217.1390  -71.4590   -3.8730 O.2   1001  GTP1001    -0.2221
      5  O3B      217.7250  -70.1900   -1.6580 O.3   1001  GTP1001    -0.2258
      6  PB       218.3760  -68.8220   -2.2080 P.3   1001  GTP1001     0.2277
      7  O1B      217.4530  -68.2140   -3.3820 O.2   1001  GTP1001    -0.5168
      8  O2B      218.5670  -67.8370   -1.1190 O.3   1001  GTP1001    -0.4368
      9  O3A      219.7090  -69.2660   -3.0120 O.3   1001  GTP1001    -0.2700
     10  PA       221.2320  -69.3560   -2.4870 P.3   1001  GTP1001     0.2189
     11  O1A      222.0060  -69.9940   -3.7460 O.2   1001  GTP1001    -0.5170
     12  O2A      221.3720  -70.2330   -1.3040 O.3   1001  GTP1001    -0.4371
     13  O5'      221.8870  -67.9050   -2.2410 O.3   1001  GTP1001    -0.3112
     14  C5'      221.9280  -66.9460   -3.2620 C.3   1001  GTP1001     0.1813
     15  C4'      221.7390  -65.5770   -2.6620 C.3   1001  GTP1001     0.1799
     16  O4'      222.7320  -65.3740   -1.6310 O.3   1001  GTP1001    -0.3326
     17  C3'      221.8760  -64.3860   -3.5870 C.3   1001  GTP1001     0.2158
     18  O3'      220.6020  -64.1770   -4.1830 O.3   1001  GTP1001    -0.2175
     19  C2'      222.2510  -63.2540   -2.6230 C.3   1001  GTP1001     0.2310
     20  O2'      221.1210  -62.6270   -2.0390 O.3   1001  GTP1001    -0.2158
     21  C1'      223.0390  -64.0000   -1.5350 C.3   1001  GTP1001     0.2293
     22  N9       224.4990  -63.8460   -1.5190 N.pl3 1001  GTP1001    -0.2354
     23  C8       225.2460  -63.3720   -0.4630 C.3   1001  GTP1001     0.2246
     24  N7       226.5290  -63.3280   -0.7050 N.2   1001  GTP1001    -0.2322
     25  C5       226.6490  -63.8050   -2.0040 C.2   1001  GTP1001     0.2182
     26  C6       227.8070  -63.9990   -2.8220 C.1   1001  GTP1001     0.2372
     27  O6       228.9920  -63.7790   -2.5490 O.2   1001  GTP1001    -0.2069
     28  N1       227.4700  -64.5060   -4.0770 N.2   1001  GTP1001    -0.2485
     29  C2       226.1960  -64.7910   -4.5020 C.1   1001  GTP1001     0.2531
     30  N2       226.0910  -65.2690   -5.7510 N.pl3 1001  GTP1001    -0.0226
     31  N3       225.1060  -64.6190   -3.7580 N.2   1001  GTP1001    -0.3074
     32  C4       225.4030  -64.1280   -2.5280 C.2   1001  GTP1001     0.2300
@<TRIPOS>BOND
     1    30    29    1
     2    29    28    2
     3    29    31    2
     4    18    17    1
     5    28    26    2
     6     4     1    2
     7    31    32    2
     8    11    10    2
     9    17    15    1
    10    17    19    1
    11     7     6    2
    12    14    15    1
    13    14    13    1
    14     9    10    1
    15     9     6    1
    16    26    27    2
    17    26    25    1
    18    15    16    1
    19    19    20    1
    20    19    21    1
    21    32    25    1
    22    32    22    1
    23    10    13    1
    24    10    12    1
    25     1     3    1
    26     1     5    1
    27     1     2    1
    28     6     5    1
    29     6     8    1
    30    25    24    2
    31    16    21    1
    32    21    22    1
    33    22    23    1
    34    24    23    1
