@<TRIPOS>MOLECULE
2im0_CTP_A_1.pdb
 29 30 0 0 0
SMALL
GASTEIGER

@<TRIPOS>ATOM
      1  N1       223.9820  -64.4650   -2.7310 N.am  1001  CTP1001    -0.1778
      2  C2       224.9370  -63.8530   -1.8970 C.1   1001  CTP1001     0.2756
      3  N3       226.2320  -63.8050   -2.2930 N.2   1001  CTP1001    -0.3024
      4  C4       226.5910  -64.3360   -3.4590 C.2   1001  CTP1001     0.2346
      5  C5       225.6440  -64.9530   -4.3320 C.2   1001  CTP1001     0.0687
      6  C6       224.3620  -64.9930   -3.9360 C.2   1001  CTP1001     0.0836
      7  O2       224.5740  -63.3640   -0.8100 O.2   1001  CTP1001    -0.1925
      8  N4       227.8810  -64.2770   -3.7950 N.pl3 1001  CTP1001    -0.0921
      9  C1'      222.5810  -64.5210   -2.2670 C.3   1001  CTP1001     0.2400
     10  C2'      221.5780  -63.7120   -3.0850 C.3   1001  CTP1001     0.2319
     11  O2'      220.7690  -62.9370   -2.2210 O.3   1001  CTP1001    -0.2157
     12  C3'      220.8350  -64.8210   -3.8390 C.3   1001  CTP1001     0.2158
     13  C4'      220.8890  -66.0540   -2.8810 C.3   1001  CTP1001     0.1799
     14  O4'      222.1730  -65.8820   -2.2300 O.3   1001  CTP1001    -0.3320
     15  O3'      219.5150  -64.3500   -4.1580 O.3   1001  CTP1001    -0.2175
     16  C5'      220.8210  -67.4900   -3.5220 C.3   1001  CTP1001     0.1813
     17  O5'      221.1430  -68.5420   -2.5960 O.3   1001  CTP1001    -0.3112
     18  PA       220.2880  -69.9280   -2.5690 P.3   1001  CTP1001     0.2189
     19  O1A      220.0770  -69.9970   -0.9620 O.3   1001  CTP1001    -0.4371
     20  O2A      221.0920  -70.9380   -3.3010 O.2   1001  CTP1001    -0.5170
     21  O3A      219.0880  -69.1150   -3.3020 O.3   1001  CTP1001    -0.2700
     22  PB       217.5300  -69.1370   -2.8970 P.3   1001  CTP1001     0.2277
     23  O1B      216.8610  -69.2170   -4.3640 O.2   1001  CTP1001    -0.5168
     24  O2B      217.1660  -67.9340   -2.1340 O.3   1001  CTP1001    -0.4368
     25  O3B      217.2230  -70.5400   -2.1670 O.3   1001  CTP1001    -0.2258
     26  PG       215.7400  -71.1730   -2.1900 P.3   1001  CTP1001     0.5373
     27  O1G      215.6250  -72.0440   -3.5360 O.2   1001  CTP1001    -0.2221
     28  O2G      215.6990  -72.2450   -0.9950 O.3   1001  CTP1001    -0.1143
     29  O3G      214.6270  -70.2020   -2.0710 O.3   1001  CTP1001    -0.1143
@<TRIPOS>BOND
     1    23    22    2
     2     5     6    2
     3     5     4    1
     4    15    12    1
     5     6     1    1
     6    12    10    1
     7    12    13    1
     8     8     4    1
     9    27    26    2
    10    16    13    1
    11    16    17    1
    12     4     3    2
    13    21    22    1
    14    21    18    1
    15    20    18    2
    16    10     9    1
    17    10    11    1
    18    22    25    1
    19    22    24    1
    20    13    14    1
    21     1     9    1
    22     1     2   am
    23    17    18    1
    24    18    19    1
    25     3     2    2
    26     9    14    1
    27    26    25    1
    28    26    29    1
    29    26    28    1
    30     2     7    2
