@<TRIPOS>MOLECULE
2im1_CTP_A_1.pdb
 29 30 0 0 0
SMALL
GASTEIGER

@<TRIPOS>ATOM
      1  N1       226.1000  -65.0290   -2.8290 N.am  1001  CTP1001    -0.1778
      2  C2       227.0440  -64.4250   -1.9740 C.1   1001  CTP1001     0.2756
      3  N3       228.3450  -64.3790   -2.3530 N.2   1001  CTP1001    -0.3024
      4  C4       228.7280  -64.9020   -3.5120 C.2   1001  CTP1001     0.2346
      5  C5       227.8090  -65.5320   -4.3860 C.2   1001  CTP1001     0.0687
      6  C6       226.5120  -65.5650   -4.0210 C.2   1001  CTP1001     0.0836
      7  O2       226.6730  -63.9490   -0.8780 O.2   1001  CTP1001    -0.1925
      8  N4       230.0290  -64.8080   -3.8460 N.pl3 1001  CTP1001    -0.0921
      9  C1'      224.6780  -65.0760   -2.3980 C.3   1001  CTP1001     0.2400
     10  C2'      223.6760  -64.2440   -3.2120 C.3   1001  CTP1001     0.2319
     11  O2'      222.8160  -63.5290   -2.3410 O.3   1001  CTP1001    -0.2157
     12  C3'      222.9700  -65.3210   -4.0290 C.3   1001  CTP1001     0.2158
     13  C4'      222.9540  -66.4980   -3.0530 C.3   1001  CTP1001     0.1799
     14  O4'      224.2510  -66.4160   -2.4100 O.3   1001  CTP1001    -0.3320
     15  O3'      221.6680  -64.8970   -4.3790 O.3   1001  CTP1001    -0.2175
     16  C5'      222.7940  -67.8790   -3.6470 C.3   1001  CTP1001     0.1813
     17  O5'      223.2560  -68.8710   -2.7350 O.3   1001  CTP1001    -0.3112
     18  PA       222.4700  -70.2570   -2.5090 P.3   1001  CTP1001     0.2189
     19  O1A      222.0990  -69.8260   -1.0030 O.3   1001  CTP1001    -0.4371
     20  O2A      223.5730  -71.1900   -2.8270 O.2   1001  CTP1001    -0.5170
     21  O3A      221.2780  -69.9880   -3.5590 O.3   1001  CTP1001    -0.2700
     22  PB       219.8120  -69.6780   -2.9770 P.3   1001  CTP1001     0.2277
     23  O1B      218.8160  -69.7090   -4.2440 O.2   1001  CTP1001    -0.5168
     24  O2B      219.7900  -68.4010   -2.2350 O.3   1001  CTP1001    -0.4368
     25  O3B      219.4590  -70.9620   -2.0690 O.3   1001  CTP1001    -0.2258
     26  PG       217.9350  -71.4300   -1.8390 P.3   1001  CTP1001     0.5373
     27  O1G      217.4070  -72.0980   -3.2060 O.2   1001  CTP1001    -0.2221
     28  O2G      218.0320  -72.6310   -0.7750 O.3   1001  CTP1001    -0.1143
     29  O3G      217.0160  -70.3700   -1.3620 O.3   1001  CTP1001    -0.1143
@<TRIPOS>BOND
     1     5     6    2
     2     5     4    1
     3    15    12    1
     4    23    22    2
     5    12    10    1
     6    12    13    1
     7     6     1    1
     8     8     4    1
     9    16    13    1
    10    16    17    1
    11    21    22    1
    12    21    18    1
    13     4     3    2
    14    10     9    1
    15    10    11    1
    16    27    26    2
    17    13    14    1
    18    22    24    1
    19    22    25    1
    20     1     9    1
    21     1     2   am
    22    20    18    2
    23    17    18    1
    24    18    19    1
    25    14     9    1
    26     3     2    2
    27    25    26    1
    28     2     7    2
    29    26    29    1
    30    26    28    1
