@<TRIPOS>MOLECULE
2im2_UTP_A_1.pdb
 29 30 0 0 0
SMALL
GASTEIGER

@<TRIPOS>ATOM
      1  PA       223.0220  -69.5670   -3.2980 P.3   1001  UTP1001     0.2189
      2  O1A      223.5330  -70.7960   -4.2350 O.2   1001  UTP1001    -0.5170
      3  O2A      223.3500  -69.6080   -1.8450 O.3   1001  UTP1001    -0.4371
      4  O3A      221.5630  -68.9640   -3.6340 O.3   1001  UTP1001    -0.2700
      5  O5'      223.6830  -68.4360   -4.1880 O.3   1001  UTP1001    -0.3112
      6  PB       220.0130  -69.2450   -3.3370 P.3   1001  UTP1001     0.2277
      7  O1B      219.5130  -68.9540   -4.8280 O.2   1001  UTP1001    -0.5168
      8  O2B      219.6850  -68.2270   -2.3100 O.3   1001  UTP1001    -0.4368
      9  O3B      219.6810  -70.7630   -2.9380 O.3   1001  UTP1001    -0.2258
     10  PG       218.1880  -71.1820   -2.5720 P.3   1001  UTP1001     0.5373
     11  O1G      218.2410  -72.7700   -2.7780 O.3   1001  UTP1001    -0.1143
     12  O2G      217.9730  -70.9130   -1.0050 O.3   1001  UTP1001    -0.1143
     13  O3G      217.0870  -70.5930   -3.3660 O.2   1001  UTP1001    -0.2221
     14  C5'      222.7040  -67.4700   -4.7110 C.3   1001  UTP1001     0.1813
     15  C4'      222.8920  -66.2450   -3.7760 C.3   1001  UTP1001     0.1799
     16  O4'      224.2770  -66.2340   -3.2410 O.3   1001  UTP1001    -0.3320
     17  C1'      224.6840  -64.8970   -3.1960 C.3   1001  UTP1001     0.2401
     18  C2'      223.8460  -64.0660   -4.1850 C.3   1001  UTP1001     0.2319
     19  O2'      223.3890  -62.9330   -3.5390 O.3   1001  UTP1001    -0.2157
     20  C3'      222.7460  -65.0130   -4.6270 C.3   1001  UTP1001     0.2158
     21  O3'      221.4540  -64.4630   -4.3370 O.3   1001  UTP1001    -0.2175
     22  N1       226.1330  -64.7820   -3.4150 N.am  1001  UTP1001    -0.1766
     23  C6       226.7210  -65.1230   -4.6180 C.2   1001  UTP1001     0.0929
     24  C2       226.9070  -64.2710   -2.3640 C.1   1001  UTP1001     0.2845
     25  O2       226.4480  -63.9530   -1.2690 O.2   1001  UTP1001    -0.1918
     26  N3       228.2490  -64.1320   -2.6420 N.2   1001  UTP1001    -0.2452
     27  C4       228.9020  -64.4390   -3.8210 C.1   1001  UTP1001     0.2182
     28  O4       230.1270  -64.2410   -3.9100 O.2   1001  UTP1001    -0.2085
     29  C5       228.0440  -64.9610   -4.8530 C.2   1001  UTP1001     0.1242
@<TRIPOS>BOND
     1    29    23    2
     2    29    27    1
     3     7     6    2
     4    14     5    1
     5    14    15    1
     6    20    21    1
     7    20    18    1
     8    20    15    1
     9    23    22    1
    10     2     1    2
    11     5     1    1
    12    18    19    1
    13    18    17    1
    14    28    27    2
    15    27    26    2
    16    15    16    1
    17     4     6    1
    18     4     1    1
    19    22    17    1
    20    22    24   am
    21    13    10    2
    22     6     9    1
    23     6     8    1
    24     1     3    1
    25    16    17    1
    26     9    10    1
    27    11    10    1
    28    26    24    2
    29    10    12    1
    30    24    25    2
