@<TRIPOS>MOLECULE
2im3_UTP_A_1.pdb
 29 30 0 0 0
SMALL
GASTEIGER

@<TRIPOS>ATOM
      1  PA       221.6480  -69.3600   -2.8940 P.3   1001  UTP1001     0.2189
      2  O1A      222.6060  -70.6180   -3.1890 O.2   1001  UTP1001    -0.5170
      3  O2A      221.7130  -68.9320   -1.4770 O.3   1001  UTP1001    -0.4371
      4  O3A      220.1690  -69.8200   -3.3290 O.3   1001  UTP1001    -0.2700
      5  O5'      222.0650  -68.2080   -3.9400 O.3   1001  UTP1001    -0.3112
      6  PB       218.8900  -69.4030   -2.4430 P.3   1001  UTP1001     0.2277
      7  O1B      218.0790  -68.3250   -3.3190 O.2   1001  UTP1001    -0.5168
      8  O2B      219.2520  -68.8970   -1.1010 O.3   1001  UTP1001    -0.4368
      9  O3B      217.9930  -70.7440   -2.4050 O.3   1001  UTP1001    -0.2258
     10  PG       216.5820  -70.7890   -1.6340 P.3   1001  UTP1001     0.5373
     11  O1G      215.5600  -69.8940   -2.4960 O.2   1001  UTP1001    -0.2221
     12  O2G      216.0540  -72.3060   -1.7640 O.3   1001  UTP1001    -0.1143
     13  O3G      216.6620  -70.3460   -0.2210 O.3   1001  UTP1001    -0.1143
     14  C5'      221.1670  -67.1480   -4.2730 C.3   1001  UTP1001     0.1813
     15  C4'      221.3970  -65.9560   -3.3670 C.3   1001  UTP1001     0.1799
     16  O4'      222.7510  -65.9800   -2.8730 O.3   1001  UTP1001    -0.3320
     17  C1'      223.1550  -64.6670   -2.5730 C.3   1001  UTP1001     0.2401
     18  C2'      222.1500  -63.6780   -3.1810 C.3   1001  UTP1001     0.2319
     19  O2'      221.4740  -63.0010   -2.1400 O.3   1001  UTP1001    -0.2157
     20  C3'      221.2440  -64.5890   -4.0220 C.3   1001  UTP1001     0.2158
     21  O3'      219.8800  -64.1740   -3.9740 O.3   1001  UTP1001    -0.2175
     22  N1       224.5930  -64.5150   -2.8660 N.am  1001  UTP1001    -0.1766
     23  C6       225.1950  -65.0900   -3.9700 C.2   1001  UTP1001     0.0929
     24  C2       225.3440  -63.7790   -1.9560 C.1   1001  UTP1001     0.2845
     25  O2       224.8540  -63.2250   -0.9820 O.2   1001  UTP1001    -0.1918
     26  N3       226.6890  -63.7130   -2.2240 N.2   1001  UTP1001    -0.2452
     27  C4       227.3560  -64.2840   -3.2850 C.1   1001  UTP1001     0.2182
     28  O4       228.5850  -64.1810   -3.3510 O.2   1001  UTP1001    -0.2085
     29  C5       226.5150  -65.0030   -4.2020 C.2   1001  UTP1001     0.1242
@<TRIPOS>BOND
     1    14     5    1
     2    14    15    1
     3    29    23    2
     4    29    27    1
     5    20    21    1
     6    20    15    1
     7    20    18    1
     8    23    22    1
     9     5     1    1
    10    15    16    1
    11    28    27    2
    12     4     1    1
    13     4     6    1
    14     7     6    2
    15    27    26    2
    16     2     1    2
    17    18    17    1
    18    18    19    1
    19     1     3    1
    20    16    17    1
    21    22    17    1
    22    22    24   am
    23    11    10    2
    24     6     9    1
    25     6     8    1
    26     9    10    1
    27    26    24    2
    28    24    25    2
    29    12    10    1
    30    10    13    1
