@<TRIPOS>MOLECULE
2ima_GB4_A_1.pdb
 14 14 0 0 0
SMALL
GASTEIGER

@<TRIPOS>ATOM
      1  O12       -5.0600   -6.0420   21.5510 O.2   600  GB4600     -0.5359
      2  C11       -4.4400   -6.6520   22.3990 C.2   600  GB4600      0.1102
      3  N13       -3.9430   -5.9910   23.4490 N.am  600  GB4600     -0.1984
      4  O14       -4.0630   -4.6040   23.5210 O.3   600  GB4600     -0.4024
      5  C10       -4.1600   -8.0950   22.2090 C.2   600  GB4600      0.0245
      6  C9        -4.4460   -8.6720   21.0240 C.2   600  GB4600      0.0028
      7  C1        -4.1450  -10.1000   20.6790 C.ar  600  GB4600      0.0107
      8  C6        -4.3540  -10.5370   19.3750 C.ar  600  GB4600      0.0585
      9 CL8        -5.0020   -9.4700   18.1250 Cl    600  GB4600     -0.0822
     10  C5        -4.0760  -11.8160   18.9550 C.ar  600  GB4600      0.0228
     11  C2        -3.6130  -11.0170   21.5920 C.ar  600  GB4600      0.0017
     12  C3        -3.3240  -12.3260   21.1810 C.ar  600  GB4600      0.0114
     13  C4        -3.5660  -12.7170   19.8650 C.ar  600  GB4600      0.0585
     14 CL7        -3.2190  -14.3620   19.2950 Cl    600  GB4600     -0.0822
@<TRIPOS>BOND
     1     9     8    1
     2    10     8   ar
     3    10    13   ar
     4    14    13    1
     5     8     7   ar
     6    13    12   ar
     7     7     6    1
     8     7    11   ar
     9     6     5    2
    10    12    11   ar
    11     1     2    2
    12     5     2    1
    13     2     3   am
    14     3     4    1
