@<TRIPOS>MOLECULE
2imb_AHL_A_1.pdb
 13 12 0 0 0
SMALL
GASTEIGER

@<TRIPOS>ATOM
      1  N1        -6.4480   -8.8210   22.2770 N.3   600  AHL600     -0.1261
      2  CA        -5.2640   -8.5070   23.0420 C.3   600  AHL600      0.1367
      3  CB        -4.1750   -9.5580   22.7610 C.3   600  AHL600      0.0292
      4  CG        -2.8980   -9.0530   22.0940 C.3   600  AHL600      0.0488
      5  CD        -1.8290  -10.1460   22.0830 C.3   600  AHL600      0.2205
      6  NE        -2.2900  -11.2180   21.1980 N.pl3 600  AHL600     -0.0865
      7  CZ        -2.2790  -11.3240   19.8510 C.cat 600  AHL600      0.5346
      8  NH1       -2.7720  -12.4320   19.3040 N.pl3 600  AHL600      0.1354
      9  NH2       -1.7870  -10.3730   19.0370 N.pl3 600  AHL600      0.1354
     10  C         -4.8410   -7.1090   22.7280 C.2   600  AHL600      0.1042
     11  O1        -4.9910   -6.6530   21.6000 O.2   600  AHL600     -0.5381
     12  N2        -4.3050   -6.4730   23.7690 N.am  600  AHL600     -0.2015
     13  O2        -3.8710   -5.1610   23.6450 O.3   600  AHL600     -0.4026
@<TRIPOS>BOND
     1     9     7    1
     2     8     7    1
     3     7     6    2
     4     6     5    1
     5    11    10    2
     6     5     4    1
     7     4     3    1
     8     1     2    1
     9    10     2    1
    10    10    12   am
    11     3     2    1
    12    13    12    1
