@<TRIPOS>MOLECULE
2imd_TOH_A_1.pdb
 14 14 0 0 0
SMALL
GASTEIGER

@<TRIPOS>ATOM
      1  O8        27.1380   36.3530   27.2910 O.2   304  TOH304     -0.2843
      2  C9        26.2880   37.2420   27.3320 C.2   304  TOH304      0.2523
      3  C10       26.3160   38.2960   26.3230 C.2   304  TOH304      0.4219
      4  O11       27.4200   38.7840   25.9890 O.co2 304  TOH304     -0.2373
      5  O10       25.2430   38.6770   25.8150 O.co2 304  TOH304     -0.2373
      6  C8        25.2180   37.2990   28.4150 C.3   304  TOH304      0.0810
      7  C7        24.8990   36.1040   28.9280 C.3   304  TOH304      0.0380
      8  C1        25.7460   35.4360   29.9420 C.ar  304  TOH304      0.0172
      9  C6        26.9120   36.0380   30.4150 C.ar  304  TOH304     -0.0011
     10  C5        27.6970   35.3850   31.3590 C.ar  304  TOH304     -0.0001
     11  C4        27.3140   34.1310   31.8360 C.ar  304  TOH304      0.0033
     12  C3        26.1510   33.5290   31.3660 C.ar  304  TOH304      0.0417
     13  C2        25.3720   34.1890   30.4230 C.ar  304  TOH304      0.1917
     14  O2        24.2410   33.6050   29.9650 O.3   304  TOH304     -0.2869
@<TRIPOS>BOND
     1     5     3   ar
     2     4     3   ar
     3     3     2    1
     4     1     2    2
     5     2     6    1
     6     6     7    1
     7     7     8    1
     8     8     9   ar
     9     8    13   ar
    10    14    13    1
    11     9    10   ar
    12    13    12   ar
    13    10    11   ar
    14    12    11   ar
