@<TRIPOS>MOLECULE
2imd_2C2_A_1.pdb
 14 15 0 0 0
SMALL
GASTEIGER

@<TRIPOS>ATOM
      1  O10       28.3560   37.1460   27.2520 O.co2 305  2C2305     -0.2388
      2  C10       27.2620   36.5880   27.0630 C.2   305  2C2305      0.4298
      3  O11       27.1320   35.6410   26.2810 O.co2 305  2C2305     -0.2388
      4  C9        26.0220   37.0910   27.7690 C.3   305  2C2305      0.3510
      5  O8        25.2110   37.6500   26.7330 O.3   305  2C2305     -0.1691
      6  O2        25.3050   36.0420   28.4100 O.3   305  2C2305     -0.4478
      7  C2        25.8430   35.3900   29.4690 C.ar  305  2C2305      0.1377
      8  C1        26.6790   36.1170   30.3150 C.ar  305  2C2305      0.0121
      9  C7        26.9370   37.5430   30.0060 C.3   305  2C2305      0.0364
     10  C8        26.4380   38.0690   28.8640 C.3   305  2C2305      0.0891
     11  C3        25.5510   34.0400   29.7210 C.ar  305  2C2305      0.0367
     12  C4        26.1600   33.4200   30.8040 C.ar  305  2C2305      0.0031
     13  C5        27.0090   34.1430   31.6320 C.ar  305  2C2305     -0.0001
     14  C6        27.2740   35.4950   31.3990 C.ar  305  2C2305     -0.0013
@<TRIPOS>BOND
     1     3     2   ar
     2     5     4    1
     3     2     1   ar
     4     2     4    1
     5     4     6    1
     6     4    10    1
     7     6     7    1
     8    10     9    1
     9     7    11   ar
    10     7     8   ar
    11    11    12   ar
    12     9     8    1
    13     8    14   ar
    14    12    13   ar
    15    14    13   ar
