@<TRIPOS>MOLECULE
2imd_GSH_A_1.pdb
 20 19 0 0 0
SMALL
GASTEIGER

@<TRIPOS>ATOM
      1  N1        33.4030   38.1000   36.9290 N.3   301  GSH301     -0.1208
      2  CA1       32.1120   38.7410   36.7510 C.3   301  GSH301      0.1948
      3  C1        31.1180   38.7640   37.8130 C.2   301  GSH301      0.3819
      4  O11       30.0580   39.4960   37.7650 O.co2 301  GSH301     -0.2441
      5  O12       31.3100   37.8490   38.6120 O.co2 301  GSH301     -0.2441
      6  CB1       31.6660   38.7140   35.2840 C.3   301  GSH301      0.0402
      7  CG1       30.5690   39.6370   34.7740 C.3   301  GSH301      0.0889
      8  CD1       30.2630   39.4020   33.3110 C.2   301  GSH301      0.2418
      9  OE1       30.8080   38.3950   32.6740 O.2   301  GSH301     -0.2733
     10  N2        29.4230   40.2410   32.6720 N.am  301  GSH301     -0.1968
     11  CA2       29.0850   40.1590   31.2680 C.3   301  GSH301      0.1843
     12  C2        29.7980   41.2540   30.5330 C.2   301  GSH301      0.2627
     13  O2        29.7590   42.5490   31.0260 O.2   301  GSH301     -0.2714
     14  CB2       27.5580   40.1940   31.0930 C.3   301  GSH301      0.0997
     15  SG2       26.7180   38.8740   32.0540 S.3   301  GSH301     -0.0797
     16  N3        30.4670   40.9510   29.4190 N.am  301  GSH301     -0.1917
     17  CA3       31.2280   42.0350   28.8560 C.3   301  GSH301      0.2285
     18  C3        32.7040   41.6720   28.8630 C.2   301  GSH301      0.3865
     19  O31       33.5060   42.5800   28.5020 O.co2 301  GSH301     -0.2437
     20  O32       33.1190   40.5140   29.1740 O.co2 301  GSH301     -0.2437
@<TRIPOS>BOND
     1    19    18   ar
     2    17    18    1
     3    17    16    1
     4    18    20   ar
     5    16    12   am
     6    12    13    2
     7    12    11    1
     8    14    11    1
     9    14    15    1
    10    11    10    1
    11    10     8   am
    12     9     8    2
    13     8     7    1
    14     7     6    1
    15     6     2    1
    16     2     1    1
    17     2     3    1
    18     4     3   ar
    19     3     5   ar
