@<TRIPOS>MOLECULE
2ime_GSH_A_1.pdb
 20 19 0 0 0
SMALL
GASTEIGER

@<TRIPOS>ATOM
      1  N1        33.3370   38.1450   36.8420 N.3   301  GSH301     -0.1208
      2  CA1       31.9790   38.6010   36.5730 C.3   301  GSH301      0.1948
      3  C1        31.0190   38.7070   37.7630 C.2   301  GSH301      0.3819
      4  O11       29.9840   39.4300   37.7390 O.co2 301  GSH301     -0.2441
      5  O12       31.2800   37.7990   38.5370 O.co2 301  GSH301     -0.2441
      6  CB1       31.6630   38.8280   35.1070 C.3   301  GSH301      0.0402
      7  CG1       30.4440   39.6470   34.7140 C.3   301  GSH301      0.0889
      8  CD1       30.1810   39.4250   33.2120 C.2   301  GSH301      0.2418
      9  OE1       30.7490   38.3920   32.6600 O.2   301  GSH301     -0.2733
     10  N2        29.3370   40.2060   32.5850 N.am  301  GSH301     -0.1968
     11  CA2       28.9360   40.0590   31.1940 C.3   301  GSH301      0.1843
     12  C2        29.6470   41.1450   30.4880 C.2   301  GSH301      0.2627
     13  O2        29.5600   42.4580   30.9200 O.2   301  GSH301     -0.2714
     14  CB2       27.3870   40.1110   31.1810 C.3   301  GSH301      0.0997
     15  SG2       26.5960   38.9210   32.3450 S.3   301  GSH301     -0.0797
     16  N3        30.3490   40.8320   29.4010 N.am  301  GSH301     -0.1917
     17  CA3       31.1440   41.8840   28.7410 C.3   301  GSH301      0.2285
     18  C3        32.6360   41.5750   28.8060 C.2   301  GSH301      0.3865
     19  O31       33.4630   42.4620   28.4510 O.co2 301  GSH301     -0.2437
     20  O32       33.0770   40.4430   29.1440 O.co2 301  GSH301     -0.2437
@<TRIPOS>BOND
     1    19    18   ar
     2    17    18    1
     3    17    16    1
     4    18    20   ar
     5    16    12   am
     6    12    13    2
     7    12    11    1
     8    14    11    1
     9    14    15    1
    10    11    10    1
    11    10     8   am
    12     9     8    2
    13     8     7    1
    14     7     6    1
    15     6     2    1
    16     2     1    1
    17     2     3    1
    18     4     3   ar
    19     3     5   ar
