@<TRIPOS>MOLECULE
2ime_TOH_A_1.pdb
 14 14 0 0 0
SMALL
GASTEIGER

@<TRIPOS>ATOM
      1  O8        27.2080   36.3050   27.1520 O.2   304  TOH304     -0.2843
      2  C9        26.4320   37.2550   27.2460 C.2   304  TOH304      0.2523
      3  C10       26.5290   38.3470   26.2820 C.2   304  TOH304      0.4219
      4  O11       27.6640   38.7600   25.9490 O.co2 304  TOH304     -0.2373
      5  O10       25.4830   38.8330   25.8100 O.co2 304  TOH304     -0.2373
      6  C8        25.3860   37.3500   28.3500 C.3   304  TOH304      0.0810
      7  C7        24.9760   36.1030   28.8480 C.3   304  TOH304      0.0380
      8  C1        25.7820   35.3270   29.8170 C.ar  304  TOH304      0.0172
      9  C6        26.9990   35.8140   30.2940 C.ar  304  TOH304     -0.0011
     10  C5        27.7430   35.0600   31.1960 C.ar  304  TOH304     -0.0001
     11  C4        27.2680   33.8210   31.6260 C.ar  304  TOH304      0.0033
     12  C3        26.0550   33.3340   31.1520 C.ar  304  TOH304      0.0417
     13  C2        25.3170   34.0930   30.2520 C.ar  304  TOH304      0.1917
     14  O2        24.1360   33.6210   29.7900 O.3   304  TOH304     -0.2869
@<TRIPOS>BOND
     1     5     3   ar
     2     4     3   ar
     3     3     2    1
     4     1     2    2
     5     2     6    1
     6     6     7    1
     7     7     8    1
     8    14    13    1
     9     8    13   ar
    10     8     9   ar
    11    13    12   ar
    12     9    10   ar
    13    12    11   ar
    14    10    11   ar
