@<TRIPOS>MOLECULE
2ime_2C2_A_1.pdb
 14 15 0 0 0
SMALL
GASTEIGER

@<TRIPOS>ATOM
      1  O10       27.6060   36.0800   26.6840 O.co2 305  2C2305     -0.2384
      2  C10       26.3670   35.9480   26.6260 C.2   305  2C2305      0.4342
      3  O11       25.8020   35.2510   25.7450 O.co2 305  2C2305     -0.2384
      4  C9        25.5110   36.6440   27.6660 C.3   305  2C2305      0.3710
      5  O8        24.4880   37.3570   26.9750 O.3   305  2C2305     -0.1648
      6  O2        24.8650   35.6560   28.4730 O.3   305  2C2305     -0.4446
      7  C2        25.5200   35.0860   29.5280 C.ar  305  2C2305      0.1419
      8  C1        26.4290   35.8670   30.2300 C.ar  305  2C2305      0.0340
      9  C7        26.6310   37.2740   29.7980 C.2   305  2C2305      0.0051
     10  C8        26.3240   37.6040   28.5340 C.2   305  2C2305      0.0566
     11  C3        25.2960   33.7510   29.8680 C.ar  305  2C2305      0.0370
     12  C4        26.0010   33.2010   30.9320 C.ar  305  2C2305      0.0031
     13  C5        26.9150   33.9810   31.6410 C.ar  305  2C2305      0.0002
     14  C6        27.1300   35.3170   31.2970 C.ar  305  2C2305      0.0030
@<TRIPOS>BOND
     1     3     2   ar
     2     2     1   ar
     3     2     4    1
     4     5     4    1
     5     4     6    1
     6     4    10    1
     7     6     7    1
     8    10     9    2
     9     7    11   ar
    10     7     8   ar
    11     9     8    1
    12    11    12   ar
    13     8    14   ar
    14    12    13   ar
    15    14    13   ar
