@<TRIPOS>MOLECULE
2imf_TOM_A_1.pdb
 15 15 0 0 0
SMALL
GASTEIGER

@<TRIPOS>ATOM
      1  O8        27.9320   36.3040   27.5010 O.2   305  TOM305     -0.2843
      2  C9        27.4210   37.4120   27.6210 C.2   305  TOM305      0.2523
      3  C10       27.2760   38.3620   26.5480 C.2   305  TOM305      0.4219
      4  O11       28.3300   38.9560   26.2160 O.co2 305  TOM305     -0.2373
      5  O10       26.1430   38.6060   26.0850 O.co2 305  TOM305     -0.2373
      6  C8        26.9600   37.9620   28.9350 C.3   305  TOM305      0.0810
      7  C7        27.0410   37.3520   30.0950 C.3   305  TOM305      0.0378
      8  C1        26.5040   35.9630   30.3760 C.ar  305  TOM305      0.0122
      9  C6        27.3310   35.1640   31.1400 C.ar  305  TOM305     -0.0013
     10  C5        26.9420   33.8610   31.4330 C.ar  305  TOM305     -0.0001
     11  C4        25.6800   33.4190   31.0000 C.ar  305  TOM305      0.0031
     12  C3        24.8390   34.2130   30.2490 C.ar  305  TOM305      0.0366
     13  C2        25.2770   35.5160   29.9490 C.ar  305  TOM305      0.1347
     14  O2        24.5230   36.3900   29.2440 O.3   305  TOM305     -0.4717
     15  C11       23.1690   35.9570   29.0930 C.3   305  TOM305      0.2525
@<TRIPOS>BOND
     1     5     3   ar
     2     4     3   ar
     3     3     2    1
     4     1     2    2
     5     2     6    1
     6     6     7    1
     7    15    14    1
     8    14    13    1
     9    13    12   ar
    10    13     8   ar
    11     7     8    1
    12    12    11   ar
    13     8     9   ar
    14    11    10   ar
    15     9    10   ar
