@<TRIPOS>MOLECULE
2imf_GSH_A_1.pdb
 20 19 0 0 0
SMALL
GASTEIGER

@<TRIPOS>ATOM
      1  N1        33.3500   38.0270   36.9240 N.3   301  GSH301     -0.1208
      2  CA1       32.0670   38.6150   36.7030 C.3   301  GSH301      0.1948
      3  C1        31.1380   38.6270   37.8630 C.2   301  GSH301      0.3819
      4  O11       30.1370   39.3470   37.8370 O.co2 301  GSH301     -0.2441
      5  O12       31.4260   37.6930   38.6440 O.co2 301  GSH301     -0.2441
      6  CB1       31.6010   38.5390   35.2540 C.3   301  GSH301      0.0402
      7  CG1       30.5870   39.5790   34.7800 C.3   301  GSH301      0.0889
      8  CD1       30.2370   39.3520   33.3360 C.2   301  GSH301      0.2418
      9  OE1       30.8130   38.3530   32.6750 O.2   301  GSH301     -0.2733
     10  N2        29.3490   40.1170   32.7460 N.am  301  GSH301     -0.1968
     11  CA2       29.0700   40.0910   31.3160 C.3   301  GSH301      0.1843
     12  C2        29.7000   41.1840   30.5680 C.2   301  GSH301      0.2627
     13  O2        29.6270   42.4330   31.0760 O.2   301  GSH301     -0.2714
     14  CB2       27.5210   40.1810   31.1320 C.3   301  GSH301      0.0997
     15  SG2       26.6600   38.6510   31.6620 S.3   301  GSH301     -0.0797
     16  N3        30.3470   40.9530   29.4630 N.am  301  GSH301     -0.1917
     17  CA3       31.1460   42.0230   28.8660 C.3   301  GSH301      0.2285
     18  C3        32.5940   41.5900   28.8530 C.2   301  GSH301      0.3865
     19  O31       33.4310   42.3960   28.4080 O.co2 301  GSH301     -0.2437
     20  O32       32.9130   40.4140   29.2320 O.co2 301  GSH301     -0.2437
@<TRIPOS>BOND
     1    19    18   ar
     2    18    17    1
     3    18    20   ar
     4    17    16    1
     5    16    12   am
     6    12    13    2
     7    12    11    1
     8    14    11    1
     9    14    15    1
    10    11    10    1
    11     9     8    2
    12    10     8   am
    13     8     7    1
    14     7     6    1
    15     6     2    1
    16     2     1    1
    17     2     3    1
    18     4     3   ar
    19     3     5   ar
