@<TRIPOS>MOLECULE
2imi_GSH_A_1.pdb
 20 19 0 0 0
SMALL
GASTEIGER

@<TRIPOS>ATOM
      1  N1        34.5240  -23.6580   65.8860 N.3   224  GSH224     -0.1208
      2  CA1       33.3730  -24.1540   65.1470 C.3   224  GSH224      0.1948
      3  C1        33.8340  -24.6790   63.8160 C.2   224  GSH224      0.3819
      4  O11       33.2970  -25.7120   63.3740 O.co2 224  GSH224     -0.2441
      5  O12       34.7370  -24.0550   63.2220 O.co2 224  GSH224     -0.2441
      6  CB1       32.3320  -23.0440   64.9770 C.3   224  GSH224      0.0402
      7  CG1       31.0620  -23.5750   64.3190 C.3   224  GSH224      0.0889
      8  CD1       29.9260  -22.5850   64.3440 C.2   224  GSH224      0.2418
      9  OE1       29.8180  -21.7430   65.2230 O.2   224  GSH224     -0.2733
     10  N2        29.0630  -22.7150   63.3420 N.am  224  GSH224     -0.1968
     11  CA2       27.8370  -21.9510   63.2740 C.3   224  GSH224      0.1843
     12  C2        26.6840  -22.7150   63.8570 C.2   224  GSH224      0.2627
     13  O2        26.5560  -23.9110   63.6230 O.2   224  GSH224     -0.2714
     14  CB2       27.5110  -21.6190   61.8200 C.3   224  GSH224      0.0997
     15  SG2       28.7060  -20.5070   61.0190 S.3   224  GSH224     -0.0797
     16  N3        25.8410  -22.0380   64.6370 N.am  224  GSH224     -0.1917
     17  CA3       24.6620  -22.6140   65.2790 C.3   224  GSH224      0.2285
     18  C3        24.7440  -22.6280   66.7850 C.2   224  GSH224      0.3865
     19  O31       23.7620  -23.0870   67.4150 O.co2 224  GSH224     -0.2437
     20  O32       25.7730  -22.2030   67.3610 O.co2 224  GSH224     -0.2437
@<TRIPOS>BOND
     1    15    14    1
     2    14    11    1
     3     5     3   ar
     4    11    10    1
     5    11    12    1
     6    10     8   am
     7     4     3   ar
     8    13    12    2
     9     3     2    1
    10    12    16   am
    11     7     8    1
    12     7     6    1
    13     8     9    2
    14    16    17    1
    15     6     2    1
    16     2     1    1
    17    17    18    1
    18    18    20   ar
    19    18    19   ar
