@<TRIPOS>MOLECULE
2imk_GTX_A_1.pdb
 26 25 0 0 0
SMALL
GASTEIGER

@<TRIPOS>ATOM
      1  N1        15.0780   23.6970   19.6400 N.3   302  GTX302     -0.1208
      2  CA1       16.2550   24.0280   18.8400 C.3   302  GTX302      0.1948
      3  C1        15.8170   24.7210   17.5900 C.2   302  GTX302      0.3819
      4  O11       14.9820   24.1710   16.8580 O.co2 302  GTX302     -0.2441
      5  O12       16.3100   25.8310   17.3460 O.co2 302  GTX302     -0.2441
      6  CB1       17.1450   22.8530   18.3840 C.3   302  GTX302      0.0402
      7  CG1       18.4890   23.4960   18.0550 C.3   302  GTX302      0.0889
      8  CD1       19.6840   22.5830   18.0680 C.2   302  GTX302      0.2418
      9  OE1       19.7650   21.7720   18.9640 O.2   302  GTX302     -0.2733
     10  N2        20.5680   22.6830   17.0270 N.am  302  GTX302     -0.1969
     11  CA2       21.8210   21.8640   16.9500 C.3   302  GTX302      0.1834
     12  C2        22.9660   22.6460   17.5910 C.2   302  GTX302      0.2626
     13  O2        23.1510   23.8440   17.3430 O.2   302  GTX302     -0.2714
     14  CB2       22.0410   21.7090   15.4500 C.3   302  GTX302      0.0886
     15  SG2       20.8560   20.5410   14.8480 S.3   302  GTX302     -0.1379
     16  C1S       21.4820   18.9530   15.3120 C.3   302  GTX302      0.0576
     17  C2S       22.0740   18.3670   14.0200 C.3   302  GTX302      0.0116
     18  C3S       23.3340   19.0740   13.4930 C.3   302  GTX302      0.0009
     19  C4S       24.1370   18.1290   12.6140 C.3   302  GTX302      0.0000
     20  C5S       24.8300   18.8240   11.4400 C.3   302  GTX302      0.0000
     21  C6S       26.2590   18.2840   11.1340 C.3   302  GTX302      0.0000
     22  N3        23.7460   22.0370   18.4970 N.am  302  GTX302     -0.1917
     23  CA3       24.8420   22.6640   19.1970 C.3   302  GTX302      0.2285
     24  C3        24.9100   22.4650   20.7100 C.2   302  GTX302      0.3865
     25  O31       26.0310   22.6220   21.2190 O.co2 302  GTX302     -0.2437
     26  O32       23.9440   22.1750   21.4560 O.co2 302  GTX302     -0.2437
@<TRIPOS>BOND
     1    21    20    1
     2    20    19    1
     3    19    18    1
     4    18    17    1
     5    17    16    1
     6    15    16    1
     7    15    14    1
     8    14    11    1
     9     4     3   ar
    10    11    10    1
    11    11    12    1
    12    10     8   am
    13    13    12    2
    14     5     3   ar
    15     3     2    1
    16    12    22   am
    17     7     8    1
    18     7     6    1
    19     8     9    2
    20     6     2    1
    21    22    23    1
    22     2     1    1
    23    23    24    1
    24    24    25   ar
    25    24    26   ar
