@<TRIPOS>MOLECULE
2iml_FMN_A_1.pdb
 31 33 0 0 0
SMALL
GASTEIGER

@<TRIPOS>ATOM
      1  N1         0.4660   34.0700   43.0230 N.2   200  FMN200     -0.2890
      2  C2        -0.0470   34.7980   41.9630 C.1   200  FMN200      0.3669
      3  O2         0.5710   35.8000   41.5640 O.2   200  FMN200     -0.1744
      4  N3        -1.2460   34.3950   41.3850 N.2   200  FMN200     -0.2300
      5  C4        -1.9330   33.2740   41.8480 C.1   200  FMN200      0.2513
      6  O4        -2.9430   32.8610   41.2490 O.2   200  FMN200     -0.2057
      7  C4A       -1.4120   32.5580   42.9300 C.2   200  FMN200      0.2700
      8  N5        -2.0630   31.4370   43.4070 N.2   200  FMN200     -0.3878
      9  C5A       -1.5360   30.7210   44.4720 C.2   200  FMN200      0.1320
     10  C6        -2.2120   29.5970   44.9490 C.2   200  FMN200      0.0250
     11  C7        -1.7050   28.8520   46.0140 C.2   200  FMN200     -0.0238
     12  C7M       -2.5090   27.6840   46.5160 C.3   200  FMN200      0.0308
     13  C8        -0.5130   29.2550   46.6220 C.2   200  FMN200     -0.0280
     14  C8M        0.2170   28.3880   47.6060 C.3   200  FMN200      0.0304
     15  C9         0.1630   30.3670   46.1370 C.2   200  FMN200     -0.0041
     16  C9A       -0.3350   31.1110   45.0600 C.3   200  FMN200      0.1497
     17  N10        0.3370   32.2350   44.5710 N.pl3 200  FMN200     -0.2691
     18  C10       -0.2050   32.9560   43.5120 C.2   200  FMN200      0.2416
     19  C1'        1.6580   32.6690   45.1650 C.3   200  FMN200      0.1294
     20  C2'        2.8530   32.1440   44.3580 C.3   200  FMN200      0.2044
     21  O2'        2.7410   30.7490   44.1320 O.3   200  FMN200     -0.2185
     22  C3'        4.1570   32.4400   45.1070 C.3   200  FMN200      0.2164
     23  O3'        4.2510   33.8230   45.3990 O.3   200  FMN200     -0.2175
     24  C4'        5.4100   31.9940   44.3460 C.3   200  FMN200      0.2147
     25  O4'        6.5700   32.3680   45.0690 O.3   200  FMN200     -0.2176
     26  C5'        5.5330   32.5970   42.9500 C.3   200  FMN200      0.1892
     27  O5'        6.6700   31.9820   42.3840 O.3   200  FMN200     -0.2674
     28  P          7.3150   32.4770   40.9910 P.3   200  FMN200      0.5327
     29  O1P        8.0760   33.7710   41.2970 O.3   200  FMN200     -0.1145
     30  O2P        6.1870   32.7050   39.9710 O.2   200  FMN200     -0.2224
     31  O3P        8.2770   31.3760   40.6380 O.3   200  FMN200     -0.1145
@<TRIPOS>BOND
     1    30    28    2
     2    31    28    1
     3    28    29    1
     4    28    27    1
     5     6     5    2
     6     4     5    2
     7     4     2    2
     8     3     2    2
     9     5     7    1
    10     2     1    2
    11    27    26    1
    12     7     8    2
    13     7    18    1
    14    26    24    1
    15     1    18    2
    16     8     9    2
    17    18    17    1
    18    21    20    1
    19    24    25    1
    20    24    22    1
    21    20    22    1
    22    20    19    1
    23     9    10    1
    24     9    16    1
    25    17    16    1
    26    17    19    1
    27    10    11    2
    28    16    15    1
    29    22    23    1
    30    11    12    1
    31    11    13    1
    32    15    13    2
    33    13    14    1
