@<TRIPOS>MOLECULE
2imp_NAI_A_1.pdb
 44 48 0 0 0
SMALL
GASTEIGER

@<TRIPOS>ATOM
      1  PA        32.4200   27.4590   63.6140 P.3   506  NAI506      0.2189
      2  O1A       31.3360   28.2780   64.1800 O.3   506  NAI506     -0.4371
      3  O2A       31.9370   26.0980   63.1010 O.2   506  NAI506     -0.5170
      4  O5B       33.5550   27.2600   64.7200 O.3   506  NAI506     -0.3112
      5  C5B       34.1950   28.3320   65.3950 C.3   506  NAI506      0.1813
      6  C4B       34.2930   28.0790   66.9080 C.3   506  NAI506      0.1821
      7  O4B       32.9990   27.9740   67.5050 O.3   506  NAI506     -0.3135
      8  C3B       35.0230   26.7810   67.2880 C.3   506  NAI506      0.2184
      9  O3B       35.9060   27.0190   68.3810 O.3   506  NAI506     -0.2174
     10  C2B       33.8840   25.8300   67.5960 C.3   506  NAI506      0.2570
     11  O2B       34.2090   24.7270   68.4010 O.3   506  NAI506     -0.2130
     12  C1B       32.8640   26.7480   68.2200 C.3   506  NAI506      0.3186
     13  N9A       31.4620   26.2420   68.1350 N.pl3 506  NAI506     -0.1439
     14  C8A       30.7990   25.5700   67.1090 C.3   506  NAI506      0.3377
     15  N7A       29.5180   25.3110   67.5130 N.2   506  NAI506     -0.2095
     16  C5A       29.3530   25.7970   68.7630 C.2   506  NAI506      0.2526
     17  C6A       28.2580   25.8140   69.6520 C.2   506  NAI506      0.4393
     18  N6A       27.0940   25.2630   69.3130 N.pl3 506  NAI506      0.2180
     19  N1A       28.4060   26.4130   70.9120 N.2   506  NAI506      0.0021
     20  C2A       29.6260   26.9950   71.2840 C.3   506  NAI506      0.5254
     21  N3A       30.7110   26.9750   70.3930 N.2   506  NAI506     -0.0055
     22  C4A       30.5700   26.3900   69.1570 C.2   506  NAI506      0.3518
     23  O3        33.0530   28.3510   62.4400 O.3   506  NAI506     -0.2703
     24  PN        34.4130   28.0740   61.6180 P.3   506  NAI506      0.2189
     25  O1N       35.5420   27.8260   62.5320 O.3   506  NAI506     -0.4371
     26  O2N       34.5590   29.2020   60.6370 O.2   506  NAI506     -0.5170
     27  O5D       33.9920   26.7450   60.7940 O.3   506  NAI506     -0.3112
     28  C5D       34.4150   25.4360   61.0820 C.3   506  NAI506      0.1813
     29  C4D       33.7300   24.5230   60.0910 C.3   506  NAI506      0.1799
     30  O4D       33.9150   23.1710   60.5000 O.3   506  NAI506     -0.3327
     31  C3D       32.2320   24.5960   59.7170 C.3   506  NAI506      0.2158
     32  O3D       32.0780   25.1560   58.4270 O.3   506  NAI506     -0.2175
     33  C2D       31.7160   23.1830   59.7990 C.3   506  NAI506      0.2309
     34  O2D       30.8320   22.8570   58.7510 O.3   506  NAI506     -0.2158
     35  C1D       32.9860   22.3680   59.8050 C.3   506  NAI506      0.2263
     36  N1N       32.7600   21.0300   60.4400 N.pl3 506  NAI506     -0.2787
     37  C2N       32.8770   20.9480   61.8320 C.3   506  NAI506      0.1244
     38  C3N       32.6760   19.7000   62.4810 C.2   506  NAI506      0.0544
     39  C7N       32.8020   19.5880   63.9840 C.2   506  NAI506      0.2818
     40  O7N       32.6010   18.3500   64.5810 O.2   506  NAI506     -0.2670
     41  N7N       33.0970   20.6210   64.7750 N.am  506  NAI506     -0.0839
     42  C4N       32.3580   18.5510   61.6830 C.2   506  NAI506      0.0033
     43  C5N       32.2420   18.6560   60.2660 C.2   506  NAI506      0.0157
     44  C6N       32.4500   19.9140   59.6560 C.2   506  NAI506      0.0633
@<TRIPOS>BOND
     1    32    31    1
     2    34    33    1
     3    44    43    2
     4    44    36    1
     5    31    33    1
     6    31    29    1
     7    33    35    1
     8    35    36    1
     9    35    30    1
    10    29    30    1
    11    29    28    1
    12    43    42    1
    13    36    37    1
    14    26    24    2
    15    27    28    1
    16    27    24    1
    17    24    23    1
    18    24    25    1
    19    42    38    2
    20    37    38    1
    21    23     1    1
    22    38    39    1
    23     3     1    2
    24     1     2    1
    25     1     4    1
    26    39    40    2
    27    39    41   am
    28     4     5    1
    29     5     6    1
    30     6     8    1
    31     6     7    1
    32    14    15    1
    33    14    13    1
    34     8    10    1
    35     8     9    1
    36     7    12    1
    37    15    16    2
    38    10    12    1
    39    10    11    1
    40    13    12    1
    41    13    22    1
    42    16    22    1
    43    16    17    1
    44    22    21    2
    45    18    17    1
    46    17    19    2
    47    21    20    1
    48    19    20    1
