@<TRIPOS>MOLECULE
2imq_HEM_X_1.pdb
 43 50 0 0 0
SMALL
GASTEIGER

@<TRIPOS>ATOM
      1 FE         10.1040   18.9270    4.3910 Fe    300  HEM300      0.0000
      2  CHA        7.5030   20.9020    3.3140 C.2   300  HEM300      0.0000
      3  CHB        7.8120   16.7490    5.7960 C.2   300  HEM300      0.0000
      4  CHC       12.6150   17.0030    5.6020 C.2   300  HEM300      0.0000
      5  CHD       12.3890   21.2450    3.4370 C.2   300  HEM300      0.0000
      6  NA         8.0550   18.8730    4.5320 N.2   300  HEM300      0.0000
      7  C1A        7.1440   19.7560    3.9630 C.2   300  HEM300      0.0000
      8  C2A        5.8010   19.2710    4.1770 C.2   300  HEM300      0.0000
      9  C3A        5.9140   18.1290    4.9020 C.2   300  HEM300      0.0000
     10  C4A        7.3050   17.8580    5.1250 C.2   300  HEM300      0.0000
     11  CMA        4.7650   17.2410    5.3440 C.3   300  HEM300      0.0000
     12  CAA        4.4790   19.9040    3.6860 C.3   300  HEM300      0.0000
     13  CBA        4.1830   19.1410    2.3660 C.3   300  HEM300      0.0000
     14  CGA        2.9420   19.6860    1.6750 C.2   300  HEM300      0.0000
     15  O1A        3.0410   20.7250    1.0240 O.co2 300  HEM300      0.0000
     16  O2A        1.8640   19.0430    1.7200 O.co2 300  HEM300      0.0000
     17  NB        10.1850   17.2310    5.5150 N.ar  300  HEM300      0.0000
     18  C1B        9.1340   16.4640    5.9350 C.ar  300  HEM300      0.0000
     19  C2B        9.6630   15.2840    6.5750 C.ar  300  HEM300      0.0000
     20  C3B       10.9890   15.3350    6.5250 C.ar  300  HEM300      0.0000
     21  C4B       11.3440   16.5490    5.8360 C.ar  300  HEM300      0.0000
     22  CMB        8.6930   14.3020    7.1300 C.3   300  HEM300      0.0000
     23  CAB       12.0130   14.3530    7.0720 C.2   300  HEM300      0.0000
     24  CBB       11.6850   13.0790    7.3280 C.2   300  HEM300      0.0000
     25  NC        12.1760   19.0950    4.5050 N.2   300  HEM300      0.0000
     26  C1C       13.0290   18.1390    4.9690 C.2   300  HEM300      0.0000
     27  C2C       14.3840   18.5970    4.7930 C.2   300  HEM300      0.0000
     28  C3C       14.3020   19.7470    4.1300 C.2   300  HEM300      0.0000
     29  C4C       12.9260   20.1110    3.9980 C.2   300  HEM300      0.0000
     30  CMC       15.6660   17.8150    5.0990 C.3   300  HEM300      0.0000
     31  CAC       15.4680   20.6090    3.6670 C.2   300  HEM300      0.0000
     32  CBC       16.3570   21.1130    4.5200 C.2   300  HEM300      0.0000
     33  ND         9.9510   20.7530    3.5360 N.ar  300  HEM300      0.0000
     34  C1D       11.0570   21.5480    3.2610 C.ar  300  HEM300      0.0000
     35  C2D       10.5850   22.8040    2.7300 C.ar  300  HEM300      0.0000
     36  C3D        9.0970   22.6880    2.6610 C.ar  300  HEM300      0.0000
     37  C4D        8.7720   21.3870    3.1840 C.ar  300  HEM300      0.0000
     38  CMD       11.4340   23.9920    2.2770 C.3   300  HEM300      0.0000
     39  CAD        8.1770   23.8140    2.1580 C.3   300  HEM300      0.0000
     40  CBD        8.4220   23.9160    0.6610 C.3   300  HEM300      0.0000
     41  CGD        7.3490   24.7320    0.0100 C.2   300  HEM300      0.0000
     42  O1D        7.4420   24.9030   -1.2490 O.co2 300  HEM300      0.0000
     43  O2D        6.4350   25.1930    0.7540 O.co2 300  HEM300      0.0000
@<TRIPOS>BOND
     1    42    41   ar
     2    41    40    1
     3    41    43   ar
     4    40    39    1
     5    15    14   ar
     6    14    16   ar
     7    14    13    1
     8    39    36    1
     9    38    35    1
    10    13    12    1
    11    36    35   ar
    12    36    37   ar
    13    35    34   ar
    14    37     2    2
    15    37    33   ar
    16    34     5    2
    17    34    33   ar
    18     2     7    1
    19     5    29    1
    20    33     1    1
    21    31    28    1
    22    31    32    2
    23    12     8    1
    24     7     8    1
    25     7     6    2
    26    29    28    1
    27    29    25    2
    28    28    27    2
    29     8     9    2
    30     1    25    1
    31     1     6    1
    32     1    17    1
    33    25    26    1
    34     6    10    1
    35    27    26    1
    36    27    30    1
    37     9    10    1
    38     9    11    1
    39    26     4    2
    40    10     3    2
    41    17    21   ar
    42    17    18   ar
    43     4    21    1
    44     3    18    1
    45    21    20   ar
    46    18    19   ar
    47    20    19   ar
    48    20    23    1
    49    19    22    1
    50    23    24    2
