@<TRIPOS>MOLECULE
2imw_DDS_P_1.pdb
 29 31 0 0 0
SMALL
GASTEIGER

@<TRIPOS>ATOM
      1  N1        13.5000   12.9680   37.7620 N.2   401  DDS401      0.0021
      2  C2        14.3190   12.0740   38.3340 C.3   401  DDS401      0.5254
      3  N3        15.6410   12.1200   38.1240 N.2   401  DDS401     -0.0055
      4  C4        16.1770   13.0760   37.3180 C.2   401  DDS401      0.3520
      5  C5        15.3490   14.0090   36.7120 C.2   401  DDS401      0.2526
      6  C6        13.9800   13.9410   36.9600 C.2   401  DDS401      0.4393
      7  N6        13.1260   14.8270   36.3900 N.pl3 401  DDS401      0.2180
      8  N7        16.1220   14.8390   35.9840 N.2   401  DDS401     -0.2095
      9  C8        17.4040   14.4180   36.1230 C.3   401  DDS401      0.3379
     10  N9        17.4330   13.3450   36.9380 N.pl3 401  DDS401     -0.1423
     11  PA        22.8720   12.9990   33.1980 P.3   401  DDS401      0.2189
     12  PB        23.0830   10.1020   32.8280 P.3   401  DDS401      0.2277
     13  PG        24.9640   11.0020   30.8510 P.3   401  DDS401      0.5373
     14  C1'       18.6490   12.5950   37.3580 C.3   401  DDS401      0.3090
     15  O1A       22.2920   13.0120   31.7980 O.2   401  DDS401     -0.5170
     16  O1B       21.6500    9.6290   32.8120 O.2   401  DDS401     -0.5168
     17  O1G       25.7520   11.2850   32.1560 O.3   401  DDS401     -0.1143
     18  C2'       18.5730   11.1250   36.9650 C.2   401  DDS401      0.0503
     19  O2A       24.0970   13.8350   33.4860 O.3   401  DDS401     -0.4371
     20  O2B       24.1270    9.1320   33.3600 O.3   401  DDS401     -0.4368
     21  O2G       25.4930    9.7890   30.0700 O.3   401  DDS401     -0.1143
     22  C3'       19.6490   10.9220   35.9170 C.2   401  DDS401      0.0076
     23  O3A       23.1830   11.4860   33.6980 O.3   401  DDS401     -0.2700
     24  O3B       23.4720   10.6570   31.3120 O.3   401  DDS401     -0.2258
     25  O3G       24.6670   12.2750   30.0060 O.2   401  DDS401     -0.2221
     26  C4'       20.4120   12.2280   35.8150 C.3   401  DDS401      0.1713
     27  O4'       19.7830   13.1570   36.7070 O.3   401  DDS401     -0.3103
     28  C5'       20.4700   12.7900   34.3930 C.3   401  DDS401      0.1832
     29  O5'       21.7110   13.5050   34.2160 O.3   401  DDS401     -0.3109
@<TRIPOS>BOND
     1    25    13    2
     2    21    13    1
     3    13    24    1
     4    13    17    1
     5    24    12    1
     6    15    11    2
     7    16    12    2
     8    12    20    1
     9    12    23    1
    10    11    19    1
    11    11    23    1
    12    11    29    1
    13    29    28    1
    14    28    26    1
    15    26    22    1
    16    26    27    1
    17    22    18    2
    18     8     9    1
    19     8     5    2
    20     9    10    1
    21     7     6    1
    22    27    14    1
    23     5     6    1
    24     5     4    1
    25    10     4    1
    26    10    14    1
    27     6     1    2
    28    18    14    1
    29     4     3    2
    30     1     2    1
    31     3     2    1
