@<TRIPOS>MOLECULE
2in4_HE5_A_1.pdb
 41 48 0 0 0
SMALL
GASTEIGER

@<TRIPOS>ATOM
      1  O1A       13.3900   -7.4050    8.7870 O.2   201  HE5201      0.0000
      2  CGA       13.6820   -7.4960    9.9640 C.2   201  HE5201      0.0000
      3  O2A       15.0880   -7.3450   10.3540 O.3   201  HE5201      0.0000
      4  C40       15.8660   -8.4810   10.7290 C.3   201  HE5201      0.0000
      5  CBA       12.5890   -7.7560   10.9820 C.3   201  HE5201      0.0000
      6  CAA       11.3150   -6.9400   10.7220 C.3   201  HE5201      0.0000
      7  C2A       11.5730   -5.4470   10.5980 C.2   201  HE5201      0.0000
      8  C1A       10.9870   -4.5750    9.6740 C.2   201  HE5201      0.0000
      9  CHA       10.0090   -4.9530    8.6410 C.2   201  HE5201      0.0000
     10  C3A       12.4240   -4.6490   11.3740 C.2   201  HE5201      0.0000
     11  CMA       13.3120   -5.0580   12.5300 C.3   201  HE5201      0.0000
     12  C4A       12.3040   -3.3690   10.8600 C.2   201  HE5201      0.0000
     13  NA        11.4450   -3.3360    9.8360 N.2   201  HE5201      0.0000
     14  CHB       13.0440   -2.2140   11.3820 C.2   201  HE5201      0.0000
     15  C1B       12.8810   -0.8170   10.9800 C.ar  201  HE5201      0.0000
     16  C2B       13.5770    0.1730   11.6570 C.ar  201  HE5201      0.0000
     17  C3B       13.1700    1.3080   10.9690 C.ar  201  HE5201      0.0000
     18  CAB       13.7420    2.6060   11.4790 C.3   201  HE5201      0.0000
     19  NB        12.1350   -0.3740    9.9720 N.ar  201  HE5201      0.0000
     20 ZN         10.9010   -1.5900    8.6750 Zn    201  HE5201      0.0000
     21  ND         9.4100   -2.7500    7.6340 N.ar  201  HE5201      0.0000
     22  C4D        9.2080   -4.0600    7.7750 C.ar  201  HE5201      0.0000
     23  C4B       12.2720    0.9480    9.9590 C.ar  201  HE5201      0.0000
     24  CHC       11.5960    1.8380    8.9910 C.2   201  HE5201      0.0000
     25  C1C       10.5110    1.4550    8.0660 C.2   201  HE5201      0.0000
     26  C2C        9.8230    2.4150    7.3360 C.2   201  HE5201      0.0000
     27  C3C        8.9320    1.6380    6.5920 C.2   201  HE5201      0.0000
     28  CAC        7.9890    2.3870    5.6810 C.3   201  HE5201      0.0000
     29  NC        10.1130    0.2110    7.7860 N.2   201  HE5201      0.0000
     30  C4C        9.1250    0.2930    6.9010 C.2   201  HE5201      0.0000
     31  CHD        8.4050   -0.8710    6.3400 C.2   201  HE5201      0.0000
     32  C1D        8.5050   -2.2830    6.7680 C.ar  201  HE5201      0.0000
     33  C2D        7.7160   -3.3310    6.2880 C.ar  201  HE5201      0.0000
     34  CMD        6.5900   -3.2620    5.2870 C.3   201  HE5201      0.0000
     35  C3D        8.1700   -4.4750    6.9450 C.ar  201  HE5201      0.0000
     36  CAD        7.6260   -5.8720    6.7950 C.3   201  HE5201      0.0000
     37  CBD        6.7570   -6.1630    8.0120 C.3   201  HE5201      0.0000
     38  CGD        5.3080   -6.3420    7.6410 C.2   201  HE5201      0.0000
     39  O1D        4.9350   -7.2240    6.8710 O.2   201  HE5201      0.0000
     40  O2D        4.3270   -5.4680    8.2490 O.3   201  HE5201      0.0000
     41  C41        3.7100   -5.8440    9.4890 C.3   201  HE5201      0.0000
@<TRIPOS>BOND
     1    34    33    1
     2    28    27    1
     3    33    32   ar
     4    33    35   ar
     5    31    32    2
     6    31    30    1
     7    27    30    1
     8    27    26    2
     9    32    21   ar
    10    36    35    1
    11    36    37    1
    12    39    38    2
    13    30    29    2
    14    35    22   ar
    15    26    25    1
    16    21    22   ar
    17    21    20    1
    18    38    37    1
    19    38    40    1
    20    22     9    2
    21    29    25    1
    22    29    20    1
    23    25    24    2
    24    40    41    1
    25     9     8    1
    26    20    13    1
    27    20    19    1
    28     1     2    2
    29    24    23    1
    30     8    13    2
    31     8     7    1
    32    13    12    1
    33    23    19   ar
    34    23    17   ar
    35     2     3    1
    36     2     5    1
    37    19    15   ar
    38     3     4    1
    39     7     6    1
    40     7    10    2
    41     6     5    1
    42    12    10    1
    43    12    14    2
    44    17    18    1
    45    17    16   ar
    46    15    14    1
    47    15    16   ar
    48    10    11    1
