@<TRIPOS>MOLECULE
2in6_839_A_1.pdb
 30 34 0 0 0
SMALL
GASTEIGER

@<TRIPOS>ATOM
      1  O5         0.1660   51.5710   21.8920 O.co2 901  839901     -0.2456
      2  C23        1.1450   50.9840   22.4020 C.2   901  839901      0.3668
      3  O4         1.1950   49.7360   22.5440 O.co2 901  839901     -0.2456
      4  C21        2.3180   51.8070   22.9010 C.3   901  839901      0.1384
      5  C22        1.9810   53.2790   23.1300 C.3   901  839901      0.1178
      6  N2         3.2100   53.7550   23.7970 N.ar  901  839901     -0.3266
      7  C14        3.2910   53.8190   25.1500 C.ar  901  839901      0.0607
      8  C16        4.3750   54.1400   23.1870 C.ar  901  839901      0.0601
      9  C18        4.7340   54.2330   21.8210 C.ar  901  839901      0.0205
     10  C20        6.0130   54.6910   21.5180 C.ar  901  839901      0.0435
     11  C19        6.9390   55.0170   22.4930 C.ar  901  839901      0.1958
     12  O3         8.1720   55.4220   22.0740 O.3   901  839901     -0.2866
     13  C17        6.6400   54.8930   23.8900 C.ar  901  839901      0.0435
     14  C15        5.3200   54.4850   24.1570 C.ar  901  839901      0.0211
     15  C13        4.6620   54.2840   25.4270 C.ar  901  839901      0.0300
     16  C4         5.0580   54.4710   26.8320 C.ar  901  839901      0.1087
     17  C5         6.3030   54.8780   27.4710 C.1   901  839901      0.2158
     18  O1         7.3190   55.2830   26.8830 O.2   901  839901     -0.2086
     19  C3         4.1210   54.1490   27.8810 C.ar  901  839901      0.1074
     20  C6         4.9330   54.4620   29.0830 C.1   901  839901      0.2158
     21  O2         4.4460   54.2920   30.2410 O.2   901  839901     -0.2086
     22  N1         6.2140   54.9020   28.8470 N.2   901  839901     -0.2576
     23  C2         2.7720   53.7030   27.5170 C.ar  901  839901      0.0141
     24  C1         2.4100   53.5060   26.1710 C.ar  901  839901      0.0180
     25  C7         1.7750   53.4180   28.5400 C.ar  901  839901      0.0008
     26  C12        1.0060   52.1810   28.6110 C.ar  901  839901      0.0000
     27  C11       -0.0100   52.0710   29.7140 C.ar  901  839901      0.0000
     28  C10       -0.1980   53.0880   30.5890 C.ar  901  839901      0.0000
     29  C9         0.4830   54.2630   30.5160 C.ar  901  839901      0.0000
     30  C8         1.4420   54.4960   29.5270 C.ar  901  839901      0.0000
@<TRIPOS>BOND
     1    10     9   ar
     2    10    11   ar
     3     9     8   ar
     4     1     2   ar
     5    12    11    1
     6     2     3   ar
     7     2     4    1
     8    11    13   ar
     9     4     5    1
    10     5     6    1
    11     8     6   ar
    12     8    14   ar
    13     6     7   ar
    14    13    14   ar
    15    14    15   ar
    16     7    15   ar
    17     7    24   ar
    18    15    16   ar
    19    24    23   ar
    20    16    17    1
    21    16    19   ar
    22    18    17    2
    23    17    22    2
    24    23    19   ar
    25    23    25    1
    26    19    20    1
    27    25    26   ar
    28    25    30   ar
    29    26    27   ar
    30    22    20    2
    31    20    21    2
    32    30    29   ar
    33    27    28   ar
    34    29    28   ar
