@<TRIPOS>MOLECULE
2ine_NAP_A_1.pdb
 48 52 0 0 0
SMALL
GASTEIGER

@<TRIPOS>ATOM
      1  PA        23.4430   28.1730   72.3870 P.3   316  NAP316      0.2189
      2  O1A       24.3490   29.1860   71.8310 O.2   316  NAP316     -0.5170
      3  O2A       22.5360   28.5210   73.4740 O.3   316  NAP316     -0.4371
      4  O5B       24.3520   26.9650   72.9030 O.3   316  NAP316     -0.3112
      5  C5B       23.7810   25.7590   73.4500 C.3   316  NAP316      0.1813
      6  C4B       24.9030   24.8090   73.8410 C.3   316  NAP316      0.1820
      7  O4B       25.6890   25.4080   74.8730 O.3   316  NAP316     -0.3136
      8  C3B       24.4660   23.4810   74.4100 C.3   316  NAP316      0.2157
      9  O3B       25.3820   22.4890   73.9980 O.3   316  NAP316     -0.2175
     10  C2B       24.5670   23.6590   75.8970 C.3   316  NAP316      0.2314
     11  O2B       24.8680   22.4220   76.4990 O.3   316  NAP316     -0.2630
     12  C1B       25.7640   24.5650   76.0150 C.3   316  NAP316      0.3158
     13  N9A       25.7640   25.4250   77.2130 N.pl3 316  NAP316     -0.1439
     14  C8A       24.7280   26.1280   77.7050 C.3   316  NAP316      0.3377
     15  N7A       25.0940   26.7970   78.8050 N.2   316  NAP316     -0.2095
     16  C5A       26.3750   26.4790   78.9670 C.2   316  NAP316      0.2526
     17  C6A       27.2110   26.8870   80.0150 C.2   316  NAP316      0.4393
     18  N6A       26.7890   27.5900   81.0720 N.pl3 316  NAP316      0.2180
     19  N1A       28.4770   26.4030   79.9910 N.2   316  NAP316      0.0021
     20  C2A       28.9020   25.5860   79.0270 C.3   316  NAP316      0.5254
     21  N3A       28.0960   25.2010   78.0400 N.2   316  NAP316     -0.0055
     22  C4A       26.8180   25.6220   77.9890 C.2   316  NAP316      0.3518
     23  O3        22.7670   27.5010   71.1130 O.3   316  NAP316     -0.2703
     24  PN        21.4340   27.4000   70.2150 P.3   316  NAP316      0.2189
     25  O1N       20.6570   26.2920   70.7890 O.3   316  NAP316     -0.4371
     26  O2N       21.8820   27.3560   68.8340 O.2   316  NAP316     -0.5170
     27  O5D       20.7080   28.8310   70.4450 O.3   316  NAP316     -0.3112
     28  C5D       19.8330   29.0140   71.5650 C.3   316  NAP316      0.1813
     29  C4D       18.3840   28.9330   71.1210 C.3   316  NAP316      0.1799
     30  O4D       18.1590   29.9050   70.0890 O.3   316  NAP316     -0.3327
     31  C3D       18.0230   27.6270   70.4620 C.3   316  NAP316      0.2158
     32  O3D       17.8660   26.5570   71.3810 O.3   316  NAP316     -0.2175
     33  C2D       16.7070   28.0350   69.8250 C.3   316  NAP316      0.2309
     34  O2D       15.7790   28.0780   70.9170 O.3   316  NAP316     -0.2158
     35  C1D       17.0470   29.4430   69.3180 C.3   316  NAP316      0.2263
     36  N1N       17.4530   29.4570   67.9020 N.pl3 316  NAP316     -0.2787
     37  C2N       16.6230   29.9920   66.9440 C.3   316  NAP316      0.1244
     38  C3N       16.9790   29.9260   65.6110 C.2   316  NAP316      0.0544
     39  C7N       16.0910   30.5690   64.5750 C.2   316  NAP316      0.2818
     40  O7N       16.3070   30.3710   63.3860 O.2   316  NAP316     -0.2670
     41  N7N       15.1090   31.3570   65.0080 N.am  316  NAP316     -0.0839
     42  C4N       18.1510   29.2800   65.2290 C.2   316  NAP316      0.0033
     43  C5N       19.0020   28.7460   66.1860 C.2   316  NAP316      0.0157
     44  C6N       18.6410   28.8500   67.5100 C.2   316  NAP316      0.0633
     45  P2B       23.8240   21.5870   77.3410 P.3   316  NAP316      0.5328
     46  O1X       22.5110   21.7880   76.7170 O.2   316  NAP316     -0.2224
     47  O2X       24.4540   20.2820   77.0960 O.3   316  NAP316     -0.1145
     48  O3X       23.9310   22.1390   78.6960 O.3   316  NAP316     -0.1145
@<TRIPOS>BOND
     1    40    39    2
     2    39    41   am
     3    39    38    1
     4    42    38    2
     5    42    43    1
     6    38    37    1
     7    43    44    2
     8    37    36    1
     9    44    36    1
    10    36    35    1
    11    26    24    2
    12    35    33    1
    13    35    30    1
    14    33    31    1
    15    33    34    1
    16    30    29    1
    17    24    27    1
    18    24    25    1
    19    24    23    1
    20    27    28    1
    21    31    29    1
    22    31    32    1
    23    23     1    1
    24    29    28    1
    25     2     1    2
    26     1     4    1
    27     1     3    1
    28     4     5    1
    29     5     6    1
    30     6     8    1
    31     6     7    1
    32     9     8    1
    33     8    10    1
    34     7    12    1
    35    10    12    1
    36    10    11    1
    37    12    13    1
    38    11    45    1
    39    46    45    2
    40    47    45    1
    41    13    14    1
    42    13    22    1
    43    45    48    1
    44    14    15    1
    45    22    21    2
    46    22    16    1
    47    21    20    1
    48    15    16    2
    49    16    17    1
    50    20    19    1
    51    19    17    2
    52    17    18    1
