@<TRIPOS>MOLECULE
2ine_PAC_A_1.pdb
 10 10 0 0 0
SMALL
GASTEIGER

@<TRIPOS>ATOM
      1  C1        16.5560   26.6620   63.4810 C.2   317  PAC317      0.3692
      2  C2        17.5780   25.5800   63.7510 C.3   317  PAC317      0.1404
      3  C1'       17.3510   24.3360   62.9350 C.ar  317  PAC317     -0.0109
      4  C2'       18.2500   23.9710   61.9280 C.ar  317  PAC317     -0.0037
      5  C3'       17.9690   22.8880   61.0600 C.ar  317  PAC317     -0.0003
      6  C4'       16.7760   22.1660   61.2080 C.ar  317  PAC317     -0.0000
      7  C5'       15.8720   22.5250   62.2160 C.ar  317  PAC317     -0.0003
      8  C6'       16.1660   23.6060   63.0690 C.ar  317  PAC317     -0.0037
      9  O1        15.9720   27.1710   64.4510 O.co2 317  PAC317     -0.2453
     10  O2        16.3400   27.0060   62.2960 O.co2 317  PAC317     -0.2453
@<TRIPOS>BOND
     1     5     6   ar
     2     5     4   ar
     3     6     7   ar
     4     4     3   ar
     5     7     8   ar
     6    10     1   ar
     7     3     8   ar
     8     3     2    1
     9     1     2    1
    10     1     9   ar
