@<TRIPOS>MOLECULE
2inv_FRU_A_1.pdb
 11 11 0 0 0
SMALL
GASTEIGER

@<TRIPOS>ATOM
      1  C1        50.8920   41.7640   11.4550 C.3     1  FRU1        0.2141
      2  C2        49.5020   41.4370   10.7600 C.3     1  FRU1        0.1810
      3  C3        48.8530   40.1070   11.2380 C.3     1  FRU1        0.2141
      4  C4        48.1330   39.5360    9.9960 C.3     1  FRU1        0.2141
      5  C5        48.9700   40.0870    8.8790 C.3     1  FRU1        0.1810
      6  C6        48.0340   40.6850    7.8170 C.3     1  FRU1        0.2141
      7  O1        51.7290   40.5830   11.5680 O.3     1  FRU1       -0.2176
      8  O3        48.1900   39.7400   12.4230 O.3     1  FRU1       -0.2176
      9  O4        48.0150   38.1250   10.0310 O.3     1  FRU1       -0.2176
     10  O5        49.9000   41.0720    9.4530 O.3     1  FRU1       -0.3480
     11  O6        48.7400   40.6960    6.6440 O.3     1  FRU1       -0.2176
@<TRIPOS>BOND
     1    11     6    1
     2     6     5    1
     3     5    10    1
     4     5     4    1
     5    10     2    1
     6     4     9    1
     7     4     3    1
     8     2     3    1
     9     2     1    1
    10     3     8    1
    11     1     7    1
