@<TRIPOS>MOLECULE
2inz_OHP_A_1.pdb
 11 11 0 0 0
SMALL
GASTEIGER

@<TRIPOS>ATOM
      1  C8        16.6510   27.0660   63.6560 C.2   317  OHP317      0.3693
      2  C7        17.6160   25.9070   63.7680 C.3   317  OHP317      0.1435
      3  C3        17.1970   24.7190   62.9450 C.ar  317  OHP317      0.0280
      4  C4        17.5670   24.6630   61.6010 C.ar  317  OHP317      0.1923
      5  C5        17.2160   23.5550   60.8300 C.ar  317  OHP317      0.0417
      6  C6        16.4950   22.4940   61.3920 C.ar  317  OHP317      0.0033
      7  C1        16.1280   22.5470   62.7400 C.ar  317  OHP317     -0.0001
      8  C2        16.4850   23.6660   63.5130 C.ar  317  OHP317     -0.0006
      9  O2        18.2890   25.6990   61.0340 O.3   317  OHP317     -0.2869
     10  O9        16.0940   27.4580   64.6940 O.co2 317  OHP317     -0.2453
     11  O10       16.4720   27.6040   62.5410 O.co2 317  OHP317     -0.2453
@<TRIPOS>BOND
     1     5     6   ar
     2     5     4   ar
     3     9     4    1
     4     6     7   ar
     5     4     3   ar
     6    11     1   ar
     7     7     8   ar
     8     3     8   ar
     9     3     2    1
    10     1     2    1
    11     1    10   ar
