@<TRIPOS>MOLECULE
2inz_NAP_A_1.pdb
 48 52 0 0 0
SMALL
GASTEIGER

@<TRIPOS>ATOM
      1  PA        23.5930   28.0310   72.3900 P.3   316  NAP316      0.2189
      2  O1A       24.5070   29.0580   71.9000 O.2   316  NAP316     -0.5170
      3  O2A       22.5440   28.4560   73.3220 O.3   316  NAP316     -0.4371
      4  O5B       24.4230   26.8220   73.0350 O.3   316  NAP316     -0.3112
      5  C5B       23.8820   25.5730   73.4670 C.3   316  NAP316      0.1813
      6  C4B       25.0620   24.6950   73.8570 C.3   316  NAP316      0.1820
      7  O4B       25.8880   25.3010   74.8850 O.3   316  NAP316     -0.3136
      8  C3B       24.6480   23.3640   74.4120 C.3   316  NAP316      0.2157
      9  O3B       25.6030   22.3970   74.0050 O.3   316  NAP316     -0.2175
     10  C2B       24.7600   23.5110   75.9110 C.3   316  NAP316      0.2314
     11  O2B       25.0220   22.2170   76.4460 O.3   316  NAP316     -0.2630
     12  C1B       25.9740   24.4230   76.0270 C.3   316  NAP316      0.3158
     13  N9A       25.9900   25.2770   77.2470 N.pl3 316  NAP316     -0.1439
     14  C8A       24.9290   25.8580   77.8420 C.3   316  NAP316      0.3377
     15  N7A       25.2870   26.5150   78.9460 N.2   316  NAP316     -0.2095
     16  C5A       26.5980   26.3280   79.0180 C.2   316  NAP316      0.2526
     17  C6A       27.4130   26.6810   80.0980 C.2   316  NAP316      0.4393
     18  N6A       27.0130   27.4680   81.0900 N.pl3 316  NAP316      0.2180
     19  N1A       28.6870   26.2260   80.0440 N.2   316  NAP316      0.0021
     20  C2A       29.1430   25.4990   79.0240 C.3   316  NAP316      0.5254
     21  N3A       28.3500   25.1720   78.0010 N.2   316  NAP316     -0.0055
     22  C4A       27.0650   25.5570   77.9740 C.2   316  NAP316      0.3518
     23  O3        22.9890   27.4160   71.0480 O.3   316  NAP316     -0.2703
     24  PN        21.6060   27.3560   70.2470 P.3   316  NAP316      0.2189
     25  O1N       20.7930   26.2620   70.8040 O.3   316  NAP316     -0.4371
     26  O2N       22.0070   27.3050   68.8410 O.2   316  NAP316     -0.5170
     27  O5D       20.9380   28.7940   70.5680 O.3   316  NAP316     -0.3112
     28  C5D       19.9840   28.9670   71.6200 C.3   316  NAP316      0.1813
     29  C4D       18.5480   28.8810   71.1340 C.3   316  NAP316      0.1799
     30  O4D       18.2590   29.9330   70.2100 O.3   316  NAP316     -0.3327
     31  C3D       18.1320   27.5910   70.4360 C.3   316  NAP316      0.2158
     32  O3D       17.9080   26.4610   71.2790 O.3   316  NAP316     -0.2175
     33  C2D       16.8220   28.1080   69.8750 C.3   316  NAP316      0.2309
     34  O2D       15.8960   28.2230   70.9480 O.3   316  NAP316     -0.2158
     35  C1D       17.2050   29.4910   69.3560 C.3   316  NAP316      0.2263
     36  N1N       17.6050   29.4850   67.9260 N.pl3 316  NAP316     -0.2787
     37  C2N       16.7240   29.9950   66.9670 C.3   316  NAP316      0.1244
     38  C3N       17.0350   29.8960   65.6040 C.2   316  NAP316      0.0544
     39  C7N       16.2230   30.6400   64.5440 C.2   316  NAP316      0.2818
     40  O7N       16.3990   30.4480   63.3380 O.2   316  NAP316     -0.2670
     41  N7N       15.4520   31.6040   65.0500 N.am  316  NAP316     -0.0839
     42  C4N       18.2030   29.2380   65.2030 C.2   316  NAP316      0.0033
     43  C5N       19.1000   28.7360   66.1350 C.2   316  NAP316      0.0157
     44  C6N       18.8130   28.8870   67.4910 C.2   316  NAP316      0.0633
     45  P2B       23.9840   21.4540   77.3910 P.3   316  NAP316      0.5328
     46  O1X       22.6770   21.6540   76.7390 O.2   316  NAP316     -0.2224
     47  O2X       24.5610   20.1090   77.2400 O.3   316  NAP316     -0.1145
     48  O3X       24.1610   22.0560   78.7250 O.3   316  NAP316     -0.1145
@<TRIPOS>BOND
     1    40    39    2
     2    39    41   am
     3    39    38    1
     4    42    38    2
     5    42    43    1
     6    38    37    1
     7    43    44    2
     8    37    36    1
     9    44    36    1
    10    36    35    1
    11    26    24    2
    12    35    33    1
    13    35    30    1
    14    33    31    1
    15    33    34    1
    16    30    29    1
    17    24    27    1
    18    24    25    1
    19    24    23    1
    20    31    29    1
    21    31    32    1
    22    27    28    1
    23    23     1    1
    24    29    28    1
    25     2     1    2
    26     1     4    1
    27     1     3    1
    28     4     5    1
    29     5     6    1
    30     6     8    1
    31     6     7    1
    32     9     8    1
    33     8    10    1
    34     7    12    1
    35    10    12    1
    36    10    11    1
    37    12    13    1
    38    11    45    1
    39    46    45    2
    40    47    45    1
    41    13    14    1
    42    13    22    1
    43    45    48    1
    44    14    15    1
    45    22    21    2
    46    22    16    1
    47    21    20    1
    48    15    16    2
    49    16    17    1
    50    20    19    1
    51    19    17    2
    52    17    18    1
