@<TRIPOS>MOLECULE
2io6_330_A_1.pdb
 31 35 0 0 0
SMALL
GASTEIGER

@<TRIPOS>ATOM
      1  C1         2.6500   53.7760   26.3830 C.ar  901  330901      0.0181
      2  C2         2.9060   53.9230   27.7520 C.ar  901  330901      0.0170
      3  C3         4.2690   54.3680   28.1040 C.ar  901  330901      0.1075
      4  C4         5.2070   54.6730   27.0030 C.ar  901  330901      0.1087
      5  C5         6.4590   55.0650   27.6680 C.1   901  330901      0.2158
      6  C6         5.1110   54.6380   29.3050 C.1   901  330901      0.2158
      7  C7         1.9000   53.6100   28.8390 C.ar  901  330901      0.0348
      8  C8         1.6590   54.6460   29.7260 C.ar  901  330901      0.1387
      9  C9         0.7620   54.4720   30.8030 C.ar  901  330901      0.0369
     10  C10        0.1270   53.2190   31.0070 C.ar  901  330901      0.0031
     11  C11        0.3460   52.1860   30.0870 C.ar  901  330901      0.0002
     12  C12        1.2680   52.3690   29.0040 C.ar  901  330901      0.0030
     13  C13        4.8530   54.4670   25.5650 C.ar  901  330901      0.0300
     14  C14        3.5690   54.0380   25.3460 C.ar  901  330901      0.0607
     15  C15        5.4700   54.6900   24.3380 C.ar  901  330901      0.0211
     16  C16        4.4750   54.3050   23.3370 C.ar  901  330901      0.0601
     17  C17        6.7470   55.0880   24.0130 C.ar  901  330901      0.0435
     18  C18        4.8100   54.3940   21.9200 C.ar  901  330901      0.0205
     19  C19        7.0660   55.1770   22.6690 C.ar  901  330901      0.1958
     20  C20        6.1700   54.8380   21.6350 C.ar  901  330901      0.0435
     21  C21        2.0290   53.4650   23.5340 C.3   901  330901      0.1087
     22  C22        2.3720   52.1040   22.9040 C.3   901  330901      0.0600
     23  C23        1.6960   50.9510   23.6620 C.3   901  330901      0.1841
     24  O1         7.4910   55.4920   27.0660 O.2   901  330901     -0.2086
     25  N1         6.3660   55.0900   29.0360 N.2   901  330901     -0.2576
     26  O2         4.6410   54.5020   30.4780 O.2   901  330901     -0.2086
     27  O3         8.2990   55.5860   22.3680 O.3   901  330901     -0.2866
     28  O5         2.2800   55.8760   29.5870 O.3   901  330901     -0.4714
     29  C24        1.9280   56.9160   30.5740 C.3   901  330901      0.2525
     30  N2         3.3090   53.9610   24.0350 N.ar  901  330901     -0.3271
     31  O4         2.0470   49.6530   23.0690 O.3   901  330901     -0.2204
@<TRIPOS>BOND
     1    20    18   ar
     2    20    19   ar
     3    18    16   ar
     4    27    19    1
     5    19    17   ar
     6    22    21    1
     7    22    23    1
     8    31    23    1
     9    16    30   ar
    10    16    15   ar
    11    21    30    1
    12    17    15   ar
    13    30    14   ar
    14    15    13   ar
    15    14    13   ar
    16    14     1   ar
    17    13     4   ar
    18     1     2   ar
    19     4     5    1
    20     4     3   ar
    21    24     5    2
    22     5    25    2
    23     2     3   ar
    24     2     7    1
    25     3     6    1
    26     7    12   ar
    27     7     8   ar
    28    12    11   ar
    29    25     6    2
    30     6    26    2
    31    28     8    1
    32    28    29    1
    33     8     9   ar
    34    11    10   ar
    35     9    10   ar
