@<TRIPOS>MOLECULE
2io7_ANP_A_1.pdb
 31 33 0 0 0
SMALL
GASTEIGER

@<TRIPOS>ATOM
      1  PG        -2.0380   15.7380   -3.8170 P.3   964  ANP964      0.4884
      2  O1G       -2.7920   16.6260   -4.6690 O.3   964  ANP964     -0.1240
      3  O2G       -1.9200   14.5020   -4.7840 O.2   964  ANP964     -0.2331
      4  O3G       -2.7910   15.4220   -2.4650 O.3   964  ANP964     -0.1240
      5  PB        -0.1430   17.4810   -2.5770 P.3   964  ANP964      0.4669
      6  O1B       -0.6600   18.7810   -3.0300 O.2   964  ANP964     -0.2351
      7  O2B       -0.4870   17.1040   -1.0630 O.3   964  ANP964     -0.1253
      8  N3B       -0.5920   16.2330   -3.5560 N.3   964  ANP964     -0.0163
      9  PA         2.6760   16.6030   -3.4660 P.3   964  ANP964      0.2220
     10  O1A        3.6320   16.1540   -2.4480 O.3   964  ANP964     -0.4370
     11  O2A        1.9960   15.5210   -4.2990 O.2   964  ANP964     -0.5170
     12  O3A        1.6750   17.4860   -2.7040 O.3   964  ANP964     -0.2360
     13  O5'        3.4140   17.6870   -4.2710 O.3   964  ANP964     -0.3111
     14  C5'        2.7270   18.3240   -5.3880 C.3   964  ANP964      0.1813
     15  C4'        3.5190   18.0930   -6.6430 C.3   964  ANP964      0.1821
     16  O4'        4.7850   18.8300   -6.4160 O.3   964  ANP964     -0.3135
     17  C3'        4.0030   16.6680   -6.8930 C.3   964  ANP964      0.2184
     18  O3'        2.9800   15.9060   -7.5080 O.3   964  ANP964     -0.2174
     19  C2'        5.2580   16.9570   -7.6830 C.3   964  ANP964      0.2570
     20  O2'        4.8750   17.2330   -9.0530 O.3   964  ANP964     -0.2130
     21  C1'        5.8750   18.2010   -7.0040 C.3   964  ANP964      0.3186
     22  N9         6.7960   17.9190   -5.8680 N.pl3 964  ANP964     -0.1439
     23  C8         6.4680   17.6140   -4.5850 C.3   964  ANP964      0.3377
     24  N7         7.5160   17.4190   -3.7940 N.2   964  ANP964     -0.2095
     25  C5         8.5810   17.5990   -4.6170 C.2   964  ANP964      0.2526
     26  C6        10.0610   17.5300   -4.3510 C.2   964  ANP964      0.4393
     27  N6        10.6400   17.2280   -3.1760 N.pl3 964  ANP964      0.2180
     28  N1        10.8590   17.7900   -5.4860 N.2   964  ANP964      0.0021
     29  C2        10.3150   18.1170   -6.7690 C.3   964  ANP964      0.5254
     30  N3         8.9560   18.1890   -7.0190 N.2   964  ANP964     -0.0055
     31  C4         8.1500   17.9380   -5.9150 C.2   964  ANP964      0.3518
@<TRIPOS>BOND
     1    20    19    1
     2    19    21    1
     3    19    17    1
     4    18    17    1
     5    30    29    1
     6    30    31    2
     7    21    16    1
     8    21    22    1
     9    17    15    1
    10    29    28    1
    11    15    16    1
    12    15    14    1
    13    31    22    1
    14    31    25    1
    15    22    23    1
    16    28    26    2
    17    14    13    1
    18     3     1    2
    19     2     1    1
    20    25    26    1
    21    25    24    2
    22    23    24    1
    23    26    27    1
    24    11     9    2
    25    13     9    1
    26     1     8    1
    27     1     4    1
    28     8     5    1
    29     9    12    1
    30     9    10    1
    31     6     5    2
    32    12     5    1
    33     5     7    1
