@<TRIPOS>MOLECULE
2io8_ADP_A_1.pdb
 27 29 0 0 0
SMALL
GASTEIGER

@<TRIPOS>ATOM
      1  PB         0.0560   17.2750   -2.7240 P.3   5001  ADP5001     0.5373
      2  O1B       -0.1800   18.7170   -2.9100 O.3   5001  ADP5001    -0.1143
      3  O2B       -0.6320   16.7310   -1.5370 O.3   5001  ADP5001    -0.1143
      4  O3B       -0.2090   16.4800   -4.0160 O.2   5001  ADP5001    -0.2221
      5  PA         2.7160   16.3340   -3.2330 P.3   5001  ADP5001     0.2231
      6  O1A        3.7980   16.0110   -2.2470 O.3   5001  ADP5001    -0.4370
      7  O2A        2.1660   15.1910   -4.0040 O.2   5001  ADP5001    -0.5169
      8  O3A        1.6050   17.1160   -2.4220 O.3   5001  ADP5001    -0.2261
      9  O5'        3.2960   17.5120   -4.1060 O.3   5001  ADP5001    -0.3111
     10  C5'        2.5630   17.9530   -5.3080 C.3   5001  ADP5001     0.1813
     11  C4'        3.3970   17.8110   -6.5560 C.3   5001  ADP5001     0.1821
     12  O4'        4.5770   18.6380   -6.3590 O.3   5001  ADP5001    -0.3135
     13  C3'        3.9990   16.4260   -6.8180 C.3   5001  ADP5001     0.2184
     14  O3'        3.0330   15.6310   -7.4920 O.3   5001  ADP5001    -0.2174
     15  C2'        5.2280   16.7930   -7.6260 C.3   5001  ADP5001     0.2570
     16  O2'        4.8780   17.1070   -9.0160 O.3   5001  ADP5001    -0.2130
     17  C1'        5.7350   18.0550   -6.9660 C.3   5001  ADP5001     0.3186
     18  N9         6.7390   17.7740   -5.8820 N.pl3 5001  ADP5001    -0.1439
     19  C8         6.4850   17.4810   -4.5850 C.3   5001  ADP5001     0.3377
     20  N7         7.5780   17.2960   -3.8580 N.2   5001  ADP5001    -0.2095
     21  C5         8.5860   17.4760   -4.7290 C.2   5001  ADP5001     0.2526
     22  C6        10.0340   17.4090   -4.5440 C.2   5001  ADP5001     0.4393
     23  N6        10.6510   17.1440   -3.4440 N.pl3 5001  ADP5001     0.2180
     24  N1        10.7510   17.6620   -5.6950 N.2   5001  ADP5001     0.0021
     25  C2        10.1560   17.9530   -6.9290 C.3   5001  ADP5001     0.5254
     26  N3         8.8300   18.0170   -7.1140 N.2   5001  ADP5001    -0.0055
     27  C4         8.0940   17.7750   -6.0000 C.2   5001  ADP5001     0.3518
@<TRIPOS>BOND
     1    16    15    1
     2    15    17    1
     3    15    13    1
     4    14    13    1
     5    26    25    1
     6    26    27    2
     7    17    12    1
     8    17    18    1
     9    25    24    1
    10    13    11    1
    11    11    12    1
    12    11    10    1
    13    27    18    1
    14    27    21    1
    15    18    19    1
    16    24    22    2
    17    10     9    1
    18    21    22    1
    19    21    20    2
    20    19    20    1
    21    22    23    1
    22     9     5    1
    23     4     1    2
    24     7     5    2
    25     5     8    1
    26     5     6    1
    27     2     1    1
    28     1     8    1
    29     1     3    1
