@<TRIPOS>MOLECULE
2io9_ADP_A_1.pdb
 27 29 0 0 0
SMALL
GASTEIGER

@<TRIPOS>ATOM
      1  PB         0.1330   17.3570   -2.6690 P.3   3001  ADP3001     0.5373
      2  O1B       -0.1590   18.8030   -2.8540 O.3   3001  ADP3001    -0.1143
      3  O2B       -0.4890   16.8130   -1.4160 O.3   3001  ADP3001    -0.1143
      4  O3B       -0.1820   16.5670   -3.9440 O.2   3001  ADP3001    -0.2221
      5  PA         2.8820   16.4460   -3.1660 P.3   3001  ADP3001     0.2231
      6  O1A        3.9070   16.0660   -2.1430 O.3   3001  ADP3001    -0.4370
      7  O2A        2.3210   15.2900   -4.0170 O.2   3001  ADP3001    -0.5169
      8  O3A        1.7450   17.2170   -2.3780 O.3   3001  ADP3001    -0.2261
      9  O5'        3.4800   17.6350   -4.0160 O.3   3001  ADP3001    -0.3111
     10  C5'        2.7290   18.1110   -5.2020 C.3   3001  ADP3001     0.1813
     11  C4'        3.5050   17.9010   -6.4870 C.3   3001  ADP3001     0.1821
     12  O4'        4.7280   18.7160   -6.3480 O.3   3001  ADP3001    -0.3135
     13  C3'        4.0650   16.4990   -6.7240 C.3   3001  ADP3001     0.2184
     14  O3'        3.0600   15.6690   -7.3130 O.3   3001  ADP3001    -0.2174
     15  C2'        5.2790   16.8220   -7.5880 C.3   3001  ADP3001     0.2570
     16  O2'        4.8360   17.0980   -8.9300 O.3   3001  ADP3001    -0.2130
     17  C1'        5.8480   18.1140   -6.9550 C.3   3001  ADP3001     0.3186
     18  N9         6.8260   17.8540   -5.8340 N.pl3 3001  ADP3001    -0.1439
     19  C8         6.5270   17.5880   -4.5530 C.3   3001  ADP3001     0.3377
     20  N7         7.6000   17.3990   -3.7870 N.2   3001  ADP3001    -0.2095
     21  C5         8.6540   17.5630   -4.6430 C.2   3001  ADP3001     0.2526
     22  C6        10.1290   17.4780   -4.4180 C.2   3001  ADP3001     0.4393
     23  N6        10.7550   17.2050   -3.2620 N.pl3 3001  ADP3001     0.2180
     24  N1        10.8630   17.7130   -5.5620 N.2   3001  ADP3001     0.0021
     25  C2        10.2810   18.0000   -6.8090 C.3   3001  ADP3001     0.5254
     26  N3         8.9450   18.0740   -7.0180 N.2   3001  ADP3001    -0.0055
     27  C4         8.1900   17.8460   -5.9190 C.2   3001  ADP3001     0.3518
@<TRIPOS>BOND
     1    16    15    1
     2    15    17    1
     3    15    13    1
     4    14    13    1
     5    26    25    1
     6    26    27    2
     7    17    12    1
     8    17    18    1
     9    25    24    1
    10    13    11    1
    11    11    12    1
    12    11    10    1
    13    27    18    1
    14    27    21    1
    15    18    19    1
    16    24    22    2
    17    10     9    1
    18    21    22    1
    19    21    20    2
    20    19    20    1
    21    22    23    1
    22     7     5    2
    23     9     5    1
    24     4     1    2
    25     5     8    1
    26     5     6    1
    27     2     1    1
    28     1     8    1
    29     1     3    1
