@<TRIPOS>MOLECULE
2io9_GSH_A_1.pdb
 19 18 0 0 0
SMALL
GASTEIGER

@<TRIPOS>ATOM
      1  N1        -3.5950   14.9530   -4.7440 N.3   5001  GSH5001    -0.1208
      2  CA1       -5.0590   15.0620   -4.4450 C.3   5001  GSH5001     0.1948
      3  C1        -5.5320   13.8740   -3.5850 C.2   5001  GSH5001     0.3819
      4  O11       -4.9100   12.8170   -3.5470 O.co2 5001  GSH5001    -0.2441
      5  O12       -6.6510   14.0140   -2.9060 O.co2 5001  GSH5001    -0.2441
      6  CB1       -5.9190   15.1590   -5.7710 C.3   5001  GSH5001     0.0402
      7  CG1       -6.1350   13.7710   -6.4200 C.3   5001  GSH5001     0.0889
      8  CD1       -6.5650   13.8990   -7.8780 C.2   5001  GSH5001     0.2418
      9  OE1       -5.9890   14.6820   -8.6080 O.2   5001  GSH5001    -0.2733
     10  N2        -7.5740   13.1400   -8.3450 N.am  5001  GSH5001    -0.1968
     11  CA2       -8.0300   13.2200   -9.7340 C.3   5001  GSH5001     0.1843
     12  C2        -9.3900   13.9780   -9.8540 C.2   5001  GSH5001     0.2626
     13  O2       -10.0990   14.1940   -8.8580 O.2   5001  GSH5001    -0.2714
     14  CB2       -8.1980   11.8090  -10.2700 C.3   5001  GSH5001     0.0997
     15  SG2       -6.6290   11.1520  -10.7380 S.3   5001  GSH5001    -0.0797
     16  N3        -9.8060   14.4200  -11.0690 N.am  5001  GSH5001    -0.1954
     17  CA3      -11.0840   15.1690  -11.1650 C.3   5001  GSH5001     0.1869
     18  C3       -10.7650   16.6300  -10.7990 C.2   5001  GSH5001     0.2309
     19  O31      -10.3960   17.4080  -11.6700 O.2   5001  GSH5001    -0.2863
@<TRIPOS>BOND
     1    19    18    2
     2    17    16    1
     3    17    18    1
     4    16    12   am
     5    15    14    1
     6    14    11    1
     7    12    11    1
     8    12    13    2
     9    11    10    1
    10     9     8    2
    11    10     8   am
    12     8     7    1
    13     7     6    1
    14     6     2    1
    15     1     2    1
    16     2     3    1
    17     3     4   ar
    18     3     5   ar
