@<TRIPOS>MOLECULE
2ioa_ADP_A_1.pdb
 27 29 0 0 0
SMALL
GASTEIGER

@<TRIPOS>ATOM
      1  PB        -0.0470   17.2930   -2.7980 P.3   3001  ADP3001     0.5373
      2  O1B       -0.3290   18.7460   -2.8580 O.3   3001  ADP3001    -0.1143
      3  O2B       -0.7230   16.5830   -1.6770 O.3   3001  ADP3001    -0.1143
      4  O3B       -0.3100   16.5680   -4.1530 O.2   3001  ADP3001    -0.2221
      5  PA         2.6880   16.5400   -3.2670 P.3   3001  ADP3001     0.2231
      6  O1A        3.8810   16.4360   -2.3500 O.3   3001  ADP3001    -0.4370
      7  O2A        2.2070   15.2780   -3.8900 O.2   3001  ADP3001    -0.5169
      8  O3A        1.5120   17.2080   -2.4770 O.3   3001  ADP3001    -0.2261
      9  O5'        3.1430   17.6590   -4.2970 O.3   3001  ADP3001    -0.3111
     10  C5'        2.3840   17.8780   -5.5220 C.3   3001  ADP3001     0.1813
     11  C4'        3.2160   17.7090   -6.7710 C.3   3001  ADP3001     0.1821
     12  O4'        4.3940   18.5480   -6.6210 O.3   3001  ADP3001    -0.3135
     13  C3'        3.7910   16.3140   -7.0180 C.3   3001  ADP3001     0.2184
     14  O3'        2.9420   15.6570   -7.6450 O.3   3001  ADP3001    -0.2174
     15  C2'        5.1070   16.6400   -7.7460 C.3   3001  ADP3001     0.2570
     16  O2'        4.9170   16.8130   -9.1570 O.3   3001  ADP3001    -0.2130
     17  C1'        5.5650   17.9700   -7.1660 C.3   3001  ADP3001     0.3186
     18  N9         6.5520   17.8300   -6.0410 N.pl3 3001  ADP3001    -0.1439
     19  C8         6.2730   17.7170   -4.7140 C.3   3001  ADP3001     0.3377
     20  N7         7.3620   17.6220   -3.9490 N.2   3001  ADP3001    -0.2095
     21  C5         8.3790   17.6810   -4.8310 C.2   3001  ADP3001     0.2526
     22  C6         9.8060   17.6330   -4.6260 C.2   3001  ADP3001     0.4393
     23  N6        10.3990   17.5200   -3.4940 N.pl3 3001  ADP3001     0.2180
     24  N1        10.5480   17.7280   -5.8000 N.2   3001  ADP3001     0.0021
     25  C2         9.9670   17.8560   -7.0600 C.3   3001  ADP3001     0.5254
     26  N3         8.6500   17.8980   -7.2670 N.2   3001  ADP3001    -0.0055
     27  C4         7.9030   17.8080   -6.1410 C.2   3001  ADP3001     0.3518
@<TRIPOS>BOND
     1    16    15    1
     2    15    17    1
     3    15    13    1
     4    14    13    1
     5    26    25    1
     6    26    27    2
     7    17    12    1
     8    17    18    1
     9    25    24    1
    10    13    11    1
    11    11    12    1
    12    11    10    1
    13    27    18    1
    14    27    21    1
    15    18    19    1
    16    24    22    2
    17    10     9    1
    18    21    22    1
    19    21    20    2
    20    19    20    1
    21    22    23    1
    22     9     5    1
    23     4     1    2
    24     7     5    2
    25     5     8    1
    26     5     6    1
    27     2     1    1
    28     1     8    1
    29     1     3    1
