@<TRIPOS>MOLECULE
2ioa_GGA_A_1.pdb
 33 32 0 0 0
SMALL
GASTEIGER

@<TRIPOS>ATOM
      1  C1       -13.2340   18.5070    2.2750 C.2   6001  GGA6001     0.3819
      2  O2       -14.4560   18.5630    2.8960 O.co2 6001  GGA6001    -0.2441
      3  O4       -11.9960   18.6010    3.0020 O.co2 6001  GGA6001    -0.2441
      4  C6       -13.0030   18.3860    0.7740 C.3   6001  GGA6001     0.1948
      5  N8       -14.2650   18.1000    0.0770 N.3   6001  GGA6001    -0.1208
      6  C10      -12.0030   17.2740    0.5610 C.3   6001  GGA6001     0.0402
      7  C12      -11.7760   17.0510   -0.9150 C.3   6001  GGA6001     0.0889
      8  C14      -10.8140   15.9370   -1.0900 C.2   6001  GGA6001     0.2418
      9  O16      -10.3120   15.3720   -0.1090 O.2   6001  GGA6001    -0.2733
     10  N18      -10.5370   15.5460   -2.3900 N.am  6001  GGA6001    -0.1978
     11  C20       -9.6820   14.4650   -2.7930 C.3   6001  GGA6001     0.1728
     12  C22       -9.8320   13.1070   -2.0650 C.3   6001  GGA6001     0.0334
     13  C24       -8.2140   14.8940   -2.8610 C.2   6001  GGA6001     0.2617
     14  O26       -8.0590   16.1100   -3.0360 O.2   6001  GGA6001    -0.2715
     15  N30       -7.2000   13.9690   -2.7930 N.am  6001  GGA6001    -0.1934
     16  C29       -5.8320   14.2990   -2.9270 C.3   6001  GGA6001     0.2016
     17  P34       -5.2710   13.1500   -3.9640 P.3   6001  GGA6001     0.2521
     18  C33       -6.3090   12.9240   -5.2150 C.3   6001  GGA6001     0.0891
     19  C35       -6.4300   14.1840   -6.0680 C.3   6001  GGA6001     0.0117
     20  C37       -7.4490   13.9860   -7.1870 C.3   6001  GGA6001     0.0194
     21  C39       -6.8800   14.1730   -8.5900 C.3   6001  GGA6001     0.0887
     22  N44       -8.0260   14.0040   -9.4960 N.3   6001  GGA6001    -0.2181
     23  C43       -7.6250   14.2030  -10.8820 C.3   6001  GGA6001     0.0887
     24  C45       -8.8670   14.0990  -11.7840 C.3   6001  GGA6001     0.0203
     25  C47       -8.4560   14.3770  -13.2370 C.3   6001  GGA6001     0.0220
     26  C49       -9.6990   14.3180  -14.1330 C.3   6001  GGA6001     0.1094
     27  N54       -9.3250   14.5990  -15.5230 N.3   6001  GGA6001    -0.1314
     28  O56       -5.3130   11.9430   -3.4010 O.2   6001  GGA6001    -0.2873
     29  O58       -3.8650   13.4120   -4.6070 O.3   6001  GGA6001    -0.2236
     30  P60       -3.0030   14.6890   -4.3490 P.3   6001  GGA6001     0.5374
     31  O62       -3.7070   15.9420   -4.7850 O.3   6001  GGA6001    -0.1143
     32  O64       -2.7690   14.8790   -3.0360 O.3   6001  GGA6001    -0.1143
     33  O66       -1.7180   14.5330   -5.1210 O.2   6001  GGA6001    -0.2221
@<TRIPOS>BOND
     1    27    26    1
     2    26    25    1
     3    25    24    1
     4    24    23    1
     5    23    22    1
     6    22    21    1
     7    21    20    1
     8    20    19    1
     9    19    18    1
    10    18    17    1
    11    33    30    2
    12    31    30    1
    13    29    30    1
    14    29    17    1
    15    30    32    1
    16    17    28    2
    17    17    16    1
    18    14    13    2
    19    16    15    1
    20    13    15   am
    21    13    11    1
    22    11    10    1
    23    11    12    1
    24    10     8   am
    25     8     7    1
    26     8     9    2
    27     7     6    1
    28     5     4    1
    29     6     4    1
    30     4     1    1
    31     1     2   ar
    32     1     3   ar
