@<TRIPOS>MOLECULE
2ioc_D5M_A_1.pdb
 22 24 0 0 0
SMALL
GASTEIGER

@<TRIPOS>ATOM
      1  O5'       26.8160  -24.5020  -37.4610 O.3   302  D5M302     -0.2675
      2  C5'       25.9930  -25.2760  -36.5930 C.3   302  D5M302      0.1859
      3  C4'       26.6560  -26.5560  -36.1460 C.3   302  D5M302      0.1796
      4  O4'       26.7900  -27.4790  -37.2320 O.3   302  D5M302     -0.3155
      5  C3'       28.0590  -26.5040  -35.5650 C.3   302  D5M302      0.1883
      6  O3'       28.1200  -26.0050  -34.2470 O.3   302  D5M302     -0.2202
      7  C2'       28.4960  -27.9410  -35.6370 C.3   302  D5M302      0.1151
      8  C1'       27.8850  -28.3540  -36.9800 C.3   302  D5M302      0.2873
      9  N9        28.8640  -28.2050  -38.1020 N.pl3 302  D5M302     -0.1460
     10  C8        28.9200  -27.2440  -39.0750 C.3   302  D5M302      0.3377
     11  N7        29.9660  -27.4490  -39.9190 N.2   302  D5M302     -0.2095
     12  C5        30.5900  -28.5630  -39.4820 C.2   302  D5M302      0.2526
     13  C6        31.7740  -29.3800  -39.8830 C.2   302  D5M302      0.4393
     14  N6        32.4960  -29.0030  -40.9570 N.pl3 302  D5M302      0.2180
     15  N1        32.1060  -30.4960  -39.1540 N.2   302  D5M302      0.0021
     16  C2        31.3950  -30.8950  -38.0690 C.3   302  D5M302      0.5254
     17  N3        30.2980  -30.1980  -37.6380 N.2   302  D5M302     -0.0055
     18  C4        29.8700  -29.0570  -38.2950 C.2   302  D5M302      0.3518
     19  P         26.3110  -23.0800  -38.0400 P.3   302  D5M302      0.5327
     20  O1P       25.2670  -23.4210  -39.0880 O.2   302  D5M302     -0.2224
     21  O3P       25.6750  -22.2840  -36.9300 O.3   302  D5M302     -0.1145
     22  O2P       27.1390  -22.4890  -38.4510 O.3   302  D5M302     -0.1145
@<TRIPOS>BOND
     1    14    13    1
     2    11    12    2
     3    11    10    1
     4    13    12    1
     5    13    15    2
     6    12    18    1
     7    15    16    1
     8    20    19    2
     9    10     9    1
    10    22    19    1
    11    18     9    1
    12    18    17    2
    13     9     8    1
    14    16    17    1
    15    19     1    1
    16    19    21    1
    17     1     2    1
    18     4     8    1
    19     4     3    1
    20     8     7    1
    21     2     3    1
    22     3     5    1
    23     7     5    1
    24     5     6    1
