@<TRIPOS>MOLECULE
2iod_NAP_A_1.pdb
 48 52 0 0 0
SMALL
GASTEIGER

@<TRIPOS>ATOM
      1  PA        -5.6020  -46.8200   62.6330 P.3   1340  NAP1340     0.2189
      2  O1A       -6.6500  -47.7540   62.2800 O.2   1340  NAP1340    -0.5170
      3  O2A       -4.4360  -47.1590   63.4690 O.3   1340  NAP1340    -0.4371
      4  O5B       -6.1400  -45.3910   63.1220 O.3   1340  NAP1340    -0.3112
      5  C5B       -7.3190  -44.8860   62.5510 C.3   1340  NAP1340     0.1813
      6  C4B       -7.9760  -43.8440   63.4450 C.3   1340  NAP1340     0.1820
      7  O4B       -9.2000  -43.4860   62.8470 O.3   1340  NAP1340    -0.3136
      8  C3B       -8.2660  -44.4100   64.8280 C.3   1340  NAP1340     0.2157
      9  O3B       -7.6990  -43.5350   65.7730 O.3   1340  NAP1340    -0.2175
     10  C2B       -9.7660  -44.3280   64.9250 C.3   1340  NAP1340     0.2314
     11  O2B      -10.1110  -43.8550   66.1940 O.3   1340  NAP1340    -0.2630
     12  C1B      -10.0620  -43.2310   63.9290 C.3   1340  NAP1340     0.3158
     13  N9A      -11.4700  -43.2450   63.5360 N.pl3 1340  NAP1340    -0.1439
     14  C8A      -12.1360  -44.2740   62.9460 C.3   1340  NAP1340     0.3377
     15  N7A      -13.4160  -43.9270   62.7770 N.2   1340  NAP1340    -0.2095
     16  C5A      -13.5610  -42.6760   63.2260 C.2   1340  NAP1340     0.2526
     17  C6A      -14.6840  -41.8660   63.2680 C.2   1340  NAP1340     0.4393
     18  N6A      -15.8460  -42.3000   62.7820 N.pl3 1340  NAP1340     0.2180
     19  N1A      -14.5360  -40.6190   63.8120 N.2   1340  NAP1340     0.0021
     20  C2A      -13.3210  -40.2120   64.3180 C.3   1340  NAP1340     0.5254
     21  N3A      -12.2150  -41.0210   64.2620 N.2   1340  NAP1340    -0.0055
     22  C4A      -12.3460  -42.2420   63.7250 C.2   1340  NAP1340     0.3518
     23  O3        -5.1200  -46.3800   61.1360 O.3   1340  NAP1340    -0.2703
     24  PN        -3.7160  -45.7190   60.6500 P.3   1340  NAP1340     0.2189
     25  O1N       -3.1170  -46.8310   59.8570 O.2   1340  NAP1340    -0.5170
     26  O2N       -3.0270  -45.0380   61.7630 O.3   1340  NAP1340    -0.4371
     27  O5D       -4.3960  -44.7340   59.6030 O.3   1340  NAP1340    -0.3112
     28  C5D       -4.2240  -43.3550   59.7800 C.3   1340  NAP1340     0.1813
     29  C4D       -4.6380  -42.6100   58.5070 C.3   1340  NAP1340     0.1799
     30  O4D       -3.6080  -42.7850   57.6100 O.3   1340  NAP1340    -0.3327
     31  C3D       -5.8960  -43.0100   57.7280 C.3   1340  NAP1340     0.2158
     32  O3D       -6.5080  -41.8180   57.2700 O.3   1340  NAP1340    -0.2175
     33  C2D       -5.4230  -43.7480   56.5030 C.3   1340  NAP1340     0.2309
     34  O2D       -6.2150  -43.6080   55.3350 O.3   1340  NAP1340    -0.2158
     35  C1D       -4.0700  -43.0730   56.3170 C.3   1340  NAP1340     0.2263
     36  N1N       -3.0260  -43.9070   55.7170 N.pl3 1340  NAP1340    -0.2787
     37  C2N       -2.5320  -44.9970   56.3960 C.3   1340  NAP1340     0.1244
     38  C3N       -1.5470  -45.7840   55.8030 C.2   1340  NAP1340     0.0544
     39  C7N       -0.9060  -46.9470   56.4890 C.2   1340  NAP1340     0.2818
     40  O7N       -0.2000  -47.8030   55.6420 O.2   1340  NAP1340    -0.2670
     41  N7N       -0.9980  -47.1250   57.8020 N.am  1340  NAP1340    -0.0839
     42  C4N       -1.0730  -45.4710   54.5380 C.2   1340  NAP1340     0.0033
     43  C5N       -1.5860  -44.3770   53.8750 C.2   1340  NAP1340     0.0157
     44  C6N       -2.5600  -43.6010   54.4790 C.2   1340  NAP1340     0.0633
     45  P2B      -10.9000  -44.6700   67.3260 P.3   1340  NAP1340     0.5328
     46  O1X      -10.8680  -46.0980   66.8950 O.2   1340  NAP1340    -0.2224
     47  O2X      -10.2090  -44.1770   68.5900 O.3   1340  NAP1340    -0.1145
     48  O3X      -12.2690  -44.0470   67.3010 O.3   1340  NAP1340    -0.1145
@<TRIPOS>BOND
     1    43    44    2
     2    43    42    1
     3    44    36    1
     4    42    38    2
     5    34    33    1
     6    40    39    2
     7    36    35    1
     8    36    37    1
     9    38    37    1
    10    38    39    1
    11    35    33    1
    12    35    30    1
    13    39    41   am
    14    33    31    1
    15    32    31    1
    16    30    29    1
    17    31    29    1
    18    29    28    1
    19    27    28    1
    20    27    24    1
    21    25    24    2
    22    24    23    1
    23    24    26    1
    24    23     1    1
    25     2     1    2
    26     5     4    1
    27     5     6    1
    28     1     4    1
    29     1     3    1
    30    15    14    1
    31    15    16    2
    32    18    17    1
    33     7     6    1
    34     7    12    1
    35    14    13    1
    36    16    17    1
    37    16    22    1
    38    17    19    2
    39     6     8    1
    40    13    22    1
    41    13    12    1
    42    22    21    2
    43    19    20    1
    44    12    10    1
    45    21    20    1
    46     8    10    1
    47     8     9    1
    48    10    11    1
    49    11    45    1
    50    46    45    2
    51    48    45    1
    52    45    47    1
