@<TRIPOS>MOLECULE
2iog_IOG_A_1.pdb
 39 43 0 0 0
SMALL
GASTEIGER

@<TRIPOS>ATOM
      1  C1        28.8630    0.0960   27.3330 C.ar  600  IOG600     -0.0219
      2  C2        27.7630    0.8960   27.6590 C.ar  600  IOG600     -0.0010
      3  C3        26.4620    0.4010   27.5120 C.ar  600  IOG600      0.0417
      4  C4        26.2930   -0.9200   27.0730 C.ar  600  IOG600      0.1957
      5  O5        25.0170   -1.3320   26.8820 O.3   600  IOG600     -0.2866
      6  C6        27.3770   -1.7070   26.7010 C.ar  600  IOG600      0.0417
      7  C7        28.6870   -1.2010   26.8480 C.ar  600  IOG600     -0.0010
      8  C8        30.2260    0.7180   27.5270 C.3   600  IOG600      0.0281
      9  C9        30.6040    0.6810   29.0300 C.3   600  IOG600      0.0263
     10  C10       31.8910    1.5150   29.2500 C.3   600  IOG600      0.0957
     11  C11       32.3170    1.3690   30.7160 C.3   600  IOG600      0.0234
     12  N12       32.9100    1.0600   28.2660 N.am  600  IOG600     -0.2072
     13  C13       33.4390    1.9920   27.4540 C.2   600  IOG600      0.2421
     14  O14       33.1100    3.1980   27.5470 O.2   600  IOG600     -0.2733
     15  C15       34.4260    1.5960   26.4310 C.3   600  IOG600      0.0983
     16  C16       34.7220    0.1520   26.4200 C.3   600  IOG600      0.0859
     17  C17       35.6620   -0.7660   27.1210 C.2   600  IOG600      0.1127
     18  N18       35.4250   -2.1180   26.5900 N.2   600  IOG600     -0.4101
     19  C19       34.4100   -2.0670   25.7000 C.2   600  IOG600      0.1126
     20  C20       33.8670   -3.1370   24.9630 C.3   600  IOG600      0.1223
     21  C21       32.9250   -2.8240   23.9530 C.2   600  IOG600      0.1231
     22  C22       32.3640   -1.5490   23.8960 C.2   600  IOG600      0.0326
     23  C23       32.8250   -0.5170   24.7440 C.2   600  IOG600      0.0011
     24  C24       33.9090   -0.7860   25.6050 C.2   600  IOG600      0.0106
     25  C25       36.7320   -0.3820   28.1050 C.ar  600  IOG600      0.0257
     26  C26       36.5890    0.7280   28.9540 C.ar  600  IOG600      0.0022
     27  C27       37.6190    1.0380   29.8810 C.ar  600  IOG600      0.0001
     28  C28       38.7990    0.2900   29.9170 C.ar  600  IOG600      0.0000
     29  C29       38.9350   -0.7980   29.0800 C.ar  600  IOG600      0.0001
     30  C30       37.8940   -1.1550   28.1710 C.ar  600  IOG600      0.0022
     31  O31       32.3420   -3.8020   23.2300 O.2   600  IOG600     -0.4778
     32  C32       33.0450   -4.6620   22.3200 C.3   600  IOG600      0.2222
     33  C33       33.5890   -3.9920   21.0560 C.3   600  IOG600      0.1200
     34  N34       32.6150   -4.1210   19.9290 N.3   600  IOG600     -0.2696
     35  C35       33.2600   -3.3100   18.8600 C.3   600  IOG600      0.0722
     36  C36       32.2890   -3.0900   17.6880 C.3   600  IOG600      0.0174
     37  C37       31.0240   -2.3810   18.1820 C.3   600  IOG600      0.0029
     38  C38       30.3630   -3.3220   19.2000 C.3   600  IOG600      0.0174
     39  C39       31.3470   -3.5140   20.3610 C.3   600  IOG600      0.0722
@<TRIPOS>BOND
     1    36    37    1
     2    36    35    1
     3    37    38    1
     4    35    34    1
     5    38    39    1
     6    34    39    1
     7    34    33    1
     8    33    32    1
     9    32    31    1
    10    31    21    1
    11    22    21    2
    12    22    23    1
    13    21    20    1
    14    23    24    2
    15    20    19    1
    16    24    19    1
    17    24    16    1
    18    19    18    2
    19    16    15    1
    20    16    17    1
    21    15    13    1
    22    18    17    2
    23     6     7   ar
    24     6     4   ar
    25     7     1   ar
    26     5     4    1
    27     4     3   ar
    28    17    25    1
    29     1     8    1
    30     1     2   ar
    31    13    14    2
    32    13    12   am
    33     3     2   ar
    34     8     9    1
    35    25    30   ar
    36    25    26   ar
    37    30    29   ar
    38    12    10    1
    39    26    27   ar
    40     9    10    1
    41    29    28   ar
    42    10    11    1
    43    27    28   ar
