@<TRIPOS>MOLECULE
2iok_IOK_A_1.pdb
 30 33 0 0 0
SMALL
GASTEIGER

@<TRIPOS>ATOM
      1  C1        15.8130   35.8830   49.8880 C.ar  600  IOK600     -0.0219
      2  C2        14.7030   36.0910   50.7260 C.ar  600  IOK600     -0.0010
      3  C3        13.4320   36.2650   50.1780 C.ar  600  IOK600      0.0417
      4  C4        13.2600   36.2310   48.7960 C.ar  600  IOK600      0.1957
      5  O5        12.0210   36.3920   48.2900 O.3   600  IOK600     -0.2866
      6  C6        14.3680   36.0660   47.9580 C.ar  600  IOK600      0.0417
      7  C7        15.6420   35.8330   48.5130 C.ar  600  IOK600     -0.0010
      8  C8        17.1660   35.7170   50.5440 C.3   600  IOK600      0.0281
      9  C9        18.3040   35.7050   49.5170 C.3   600  IOK600      0.0263
     10  C10       19.6700   35.7650   50.2260 C.3   600  IOK600      0.0957
     11  C11       20.2190   37.1960   50.2740 C.3   600  IOK600      0.0234
     12  N12       19.5080   35.2640   51.6000 N.am  600  IOK600     -0.2069
     13  C13       19.7070   33.9740   51.8590 C.2   600  IOK600      0.2458
     14  O14       20.0400   33.1950   50.9300 O.2   600  IOK600     -0.2730
     15  C15       19.5540   33.4560   53.2550 C.3   600  IOK600      0.1157
     16  C16       18.6170   34.2690   54.1110 C.2   600  IOK600      0.0191
     17  C17       18.9210   35.1530   55.1780 C.2   600  IOK600      0.1279
     18  N18       17.7520   35.6460   55.6650 N.2   600  IOK600     -0.4022
     19  C19       16.7130   35.1350   54.9380 C.ar  600  IOK600      0.1311
     20  C20       15.3360   35.3240   55.0830 C.ar  600  IOK600      0.0320
     21  C21       14.4810   34.6600   54.1970 C.ar  600  IOK600      0.0026
     22  C22       15.0160   33.8390   53.1800 C.ar  600  IOK600      0.0002
     23  C23       16.3820   33.6210   53.0720 C.ar  600  IOK600      0.0023
     24  C24       17.2400   34.3160   53.9610 C.ar  600  IOK600      0.0285
     25  C25       20.2230   35.5800   55.7620 C.ar  600  IOK600      0.0293
     26  C26       21.4750   35.2110   55.2730 C.ar  600  IOK600      0.0025
     27  C27       22.6520   35.6750   55.8940 C.ar  600  IOK600      0.0001
     28  C28       22.5730   36.4840   57.0220 C.ar  600  IOK600      0.0000
     29  C29       21.3200   36.8740   57.5120 C.ar  600  IOK600      0.0001
     30  C30       20.1570   36.4350   56.8730 C.ar  600  IOK600      0.0025
@<TRIPOS>BOND
     1     6     7   ar
     2     6     4   ar
     3     5     4    1
     4     7     1   ar
     5     4     3   ar
     6     9    10    1
     7     9     8    1
     8     1     8    1
     9     1     2   ar
    10     3     2   ar
    11    10    11    1
    12    10    12    1
    13    14    13    2
    14    12    13   am
    15    13    15    1
    16    23    22   ar
    17    23    24   ar
    18    22    21   ar
    19    15    16    1
    20    24    16    2
    21    24    19   ar
    22    16    17    1
    23    21    20   ar
    24    19    20   ar
    25    19    18    2
    26    17    18    2
    27    17    25    1
    28    26    25   ar
    29    26    27   ar
    30    25    30   ar
    31    27    28   ar
    32    30    29   ar
    33    28    29   ar
