@<TRIPOS>MOLECULE
2iop_ADP_A_1.pdb
 27 29 0 0 0
SMALL
GASTEIGER

@<TRIPOS>ATOM
      1  PB       -13.9900   48.7560 -115.7270 P.3   1001  ADP1001     0.5373
      2  O1B      -13.3670   50.1230 -115.8350 O.3   1001  ADP1001    -0.1143
      3  O2B      -14.6500   48.5280 -114.3940 O.3   1001  ADP1001    -0.1143
      4  O3B      -14.9270   48.4650 -116.8770 O.2   1001  ADP1001    -0.2221
      5  PA       -11.2320   48.1660 -115.6160 P.3   1001  ADP1001     0.2231
      6  O1A      -10.7310   48.8000 -116.8770 O.2   1001  ADP1001    -0.5169
      7  O2A      -10.4200   47.0120 -115.1120 O.3   1001  ADP1001    -0.4370
      8  O3A      -12.7730   47.6740 -115.8380 O.3   1001  ADP1001    -0.2261
      9  O5'      -11.3250   49.3020 -114.4470 O.3   1001  ADP1001    -0.3111
     10  C5'      -11.4660   48.9070 -113.0860 C.3   1001  ADP1001     0.1813
     11  C4'      -12.6670   49.6040 -112.4380 C.3   1001  ADP1001     0.1821
     12  O4'      -12.4970   51.0500 -112.4580 O.3   1001  ADP1001    -0.3135
     13  C3'      -12.8130   49.1640 -110.9910 C.3   1001  ADP1001     0.2184
     14  O3'      -11.8940   48.1190 -110.6850 O.3   1001  ADP1001    -0.2174
     15  C2'      -12.5390   50.3720 -110.1500 C.3   1001  ADP1001     0.2570
     16  O2'      -11.2420   50.2800 -109.5670 O.3   1001  ADP1001    -0.2130
     17  C1'      -12.5910   51.5610 -111.0990 C.3   1001  ADP1001     0.3186
     18  N9       -13.8680   52.2730 -110.9130 N.pl3 1001  ADP1001    -0.1439
     19  C8       -14.9260   52.1900 -111.7800 C.3   1001  ADP1001     0.3377
     20  N7       -15.9110   52.9990 -111.1110 N.2   1001  ADP1001    -0.2095
     21  C5       -15.3390   53.5030 -109.9030 C.2   1001  ADP1001     0.2526
     22  C6       -15.9540   54.2730 -108.9830 C.2   1001  ADP1001     0.4393
     23  N6       -17.3180   54.7690 -108.9920 N.pl3 1001  ADP1001     0.2180
     24  N1       -15.1300   54.6370 -107.8490 N.2   1001  ADP1001     0.0021
     25  C2       -13.7670   54.1930 -107.7170 C.3   1001  ADP1001     0.5254
     26  N3       -13.2160   53.3390 -108.8090 N.2   1001  ADP1001    -0.0055
     27  C4       -14.1610   53.0620 -109.8660 C.2   1001  ADP1001     0.3518
@<TRIPOS>BOND
     1     4     1    2
     2     6     5    2
     3     8     1    1
     4     8     5    1
     5     2     1    1
     6     1     3    1
     7     5     7    1
     8     5     9    1
     9     9    10    1
    10    10    11    1
    11    12    11    1
    12    12    17    1
    13    11    13    1
    14    19    20    1
    15    19    18    1
    16    20    21    2
    17    17    18    1
    18    17    15    1
    19    13    14    1
    20    13    15    1
    21    18    27    1
    22    15    16    1
    23    21    27    1
    24    21    22    1
    25    27    26    2
    26    23    22    1
    27    22    24    2
    28    26    25    1
    29    24    25    1
