@<TRIPOS>MOLECULE
2ior_ADP_A_1.pdb
 27 29 0 0 0
SMALL
GASTEIGER

@<TRIPOS>ATOM
      1  PB        14.4680   24.6460   -1.1350 P.3   1000  ADP1000     0.5373
      2  O1B       15.5420   25.5690   -0.5820 O.3   1000  ADP1000    -0.1143
      3  O2B       14.6320   24.4940   -2.6380 O.2   1000  ADP1000    -0.2221
      4  O3B       14.5230   23.2790   -0.4330 O.3   1000  ADP1000    -0.1143
      5  PA        12.6480   26.7580   -0.3780 P.3   1000  ADP1000     0.2231
      6  O1A       13.5050   27.1250    0.7520 O.3   1000  ADP1000    -0.4370
      7  O2A       11.1640   26.8710   -0.0850 O.2   1000  ADP1000    -0.5169
      8  O3A       12.9640   25.2290   -0.8260 O.3   1000  ADP1000    -0.2261
      9  O5'       13.0500   27.5880   -1.6670 O.3   1000  ADP1000    -0.3111
     10  C5'       12.4130   27.2830   -2.8880 C.3   1000  ADP1000     0.1813
     11  C4'       13.2170   27.7970   -4.0710 C.3   1000  ADP1000     0.1821
     12  O4'       13.0960   29.1910   -4.1850 O.3   1000  ADP1000    -0.3135
     13  C3'       14.7000   27.5250   -3.9760 C.3   1000  ADP1000     0.2184
     14  O3'       15.0510   26.2210   -4.3470 O.3   1000  ADP1000    -0.2174
     15  C2'       15.2590   28.5800   -4.8970 C.3   1000  ADP1000     0.2570
     16  O2'       15.1660   28.1590   -6.2510 O.3   1000  ADP1000    -0.2130
     17  C1'       14.3070   29.7410   -4.6920 C.3   1000  ADP1000     0.3186
     18  N9        14.8060   30.7110   -3.7160 N.pl3 1000  ADP1000    -0.1439
     19  C8        14.3960   30.8880   -2.4140 C.3   1000  ADP1000     0.3377
     20  N7        15.1180   31.8910   -1.8810 N.2   1000  ADP1000    -0.2095
     21  C5        15.9890   32.3630   -2.8210 C.2   1000  ADP1000     0.2526
     22  C6        16.9640   33.3740   -2.8190 C.2   1000  ADP1000     0.4393
     23  N6        17.3340   34.0450   -1.7170 N.pl3 1000  ADP1000     0.2180
     24  N1        17.6670   33.5410   -3.9960 N.2   1000  ADP1000     0.0021
     25  C2        17.4260   32.7760   -5.1060 C.3   1000  ADP1000     0.5254
     26  N3        16.4760   31.7830   -5.1210 N.2   1000  ADP1000    -0.0055
     27  C4        15.7790   31.6150   -3.9770 C.2   1000  ADP1000     0.3518
@<TRIPOS>BOND
     1    16    15    1
     2    26    25    1
     3    26    27    2
     4    25    24    1
     5    15    17    1
     6    15    13    1
     7    17    12    1
     8    17    18    1
     9    14    13    1
    10    12    11    1
    11    11    13    1
    12    11    10    1
    13    24    22    2
    14    27    18    1
    15    27    21    1
    16    18    19    1
    17    10     9    1
    18    21    22    1
    19    21    20    2
    20    22    23    1
    21     3     1    2
    22    19    20    1
    23     9     5    1
    24     1     8    1
    25     1     2    1
    26     1     4    1
    27     8     5    1
    28     5     7    2
    29     5     6    1
