@<TRIPOS>MOLECULE
2ioy_RIP_A_1.pdb
 10 10 0 0 0
SMALL
GASTEIGER

@<TRIPOS>ATOM
      1  C1        11.8990  -17.1550   10.5600 C.3   401  RIP401      0.3024
      2  C2        11.8910  -18.5840   11.0880 C.3   401  RIP401      0.2434
      3  C3        11.5590  -19.5780    9.9710 C.3   401  RIP401      0.2199
      4  C4        10.2340  -19.1820    9.2960 C.3   401  RIP401      0.2143
      5  C5        10.2960  -17.7090    8.8920 C.3   401  RIP401      0.1804
      6  O1        12.1270  -16.2380   11.5860 O.3   401  RIP401     -0.1869
      7  O2        13.0850  -18.9840   11.7100 O.3   401  RIP401     -0.2148
      8  O3        12.6080  -19.6500    9.0360 O.3   401  RIP401     -0.2174
      9  O4        10.0070  -20.0100    8.1860 O.3   401  RIP401     -0.2176
     10  O5        10.6040  -16.9080   10.0300 O.3   401  RIP401     -0.3237
@<TRIPOS>BOND
     1     9     4    1
     2     5     4    1
     3     5    10    1
     4     8     3    1
     5     4     3    1
     6     3     2    1
     7    10     1    1
     8     1     2    1
     9     1     6    1
    10     2     7    1
