@<TRIPOS>MOLECULE
2ipf_FFA_A_1.pdb
 21 24 0 0 0
SMALL
GASTEIGER

@<TRIPOS>ATOM
      1  C1        10.7710    5.0220   14.8710 C.3     3  FFA3        0.0118
      2  C2        10.9650    5.8570   13.5810 C.3     3  FFA3        0.0694
      3  C3        10.9420    5.0290   12.2980 C.2     3  FFA3        0.1725
      4  C4        10.2800    3.6900   12.3280 C.2     3  FFA3        0.0289
      5  C5         9.7190    3.1620   13.4550 C.2     3  FFA3       -0.0420
      6  C6         9.7030    3.8500   14.8440 C.3     3  FFA3        0.0157
      7  C7        10.1200    2.8070   15.9780 C.3     3  FFA3        0.0035
      8  C8         9.2970    1.4660   15.9040 C.3     3  FFA3        0.0007
      9  C9         9.4570    0.8280   14.4950 C.3     3  FFA3        0.0044
     10  C10        9.0440    1.7880   13.3600 C.3     3  FFA3        0.0221
     11  C11       10.0440    3.4270   17.4320 C.3     3  FFA3        0.0004
     12  C12       10.4830    2.3700   18.4930 C.3     3  FFA3        0.0025
     13  C14        9.7330    0.4850   17.0440 C.3     3  FFA3        0.0025
     14  C13        9.5630    1.1090   18.4550 C.3     3  FFA3        0.0282
     15  C15        9.0630   -0.8890   17.2050 C.3     3  FFA3        0.0027
     16  C16        9.5660   -1.3380   18.6050 C.3     3  FFA3        0.0329
     17  C17        9.9450   -0.0590   19.3930 C.3     3  FFA3        0.1519
     18  C18        8.1010    1.5240   18.8630 C.3     3  FFA3        0.0025
     19  C19        8.2850    4.4580   15.0510 C.3     3  FFA3        0.0041
     20  O3        11.4400    5.4600   11.2670 O.2     3  FFA3       -0.2914
     21  O17       11.3540   -0.0980   19.6760 O.3     3  FFA3       -0.2232
@<TRIPOS>BOND
     1    20     3    2
     2     3     4    1
     3     3     2    1
     4     4     5    2
     5    10     5    1
     6    10     9    1
     7     5     6    1
     8     2     1    1
     9     9     8    1
    10     6     1    1
    11     6    19    1
    12     6     7    1
    13     8     7    1
    14     8    13    1
    15     7    11    1
    16    13    15    1
    17    13    14    1
    18    15    16    1
    19    11    12    1
    20    14    12    1
    21    14    18    1
    22    14    17    1
    23    16    17    1
    24    17    21    1
