@<TRIPOS>MOLECULE
2ipf_NAP_A_1.pdb
 48 52 0 0 0
SMALL
GASTEIGER

@<TRIPOS>ATOM
      1  PA        11.0040    8.4680   27.1730 P.3     1  NAP1        0.2189
      2  O1A        9.8800    7.9130   27.9930 O.3     1  NAP1       -0.4371
      3  O2A       12.4020    8.2630   27.5910 O.2     1  NAP1       -0.5170
      4  O5B       10.7300   10.0370   26.9500 O.3     1  NAP1       -0.3112
      5  C5B        9.3970   10.4930   26.6190 C.3     1  NAP1        0.1813
      6  C4B        9.4170   11.9890   26.4130 C.3     1  NAP1        0.1820
      7  O4B       10.0220   12.6540   27.5370 O.3     1  NAP1       -0.3136
      8  C3B       10.1960   12.5300   25.1970 C.3     1  NAP1        0.2157
      9  O3B        9.3120   12.6180   24.1030 O.3     1  NAP1       -0.2175
     10  C2B       10.7590   13.8770   25.7120 C.3     1  NAP1        0.2314
     11  O2B       10.2660   14.9940   24.9830 O.3     1  NAP1       -0.2630
     12  C1B       10.3300   13.9790   27.1510 C.3     1  NAP1        0.3158
     13  N9A       11.3600   14.4440   28.0940 N.pl3   1  NAP1       -0.1439
     14  C8A       12.6430   13.9310   28.2560 C.3     1  NAP1        0.3377
     15  N7A       13.3430   14.5480   29.1890 N.2     1  NAP1       -0.2095
     16  C5A       12.4910   15.4950   29.6500 C.2     1  NAP1        0.2526
     17  C6A       12.6170   16.5760   30.7340 C.2     1  NAP1        0.4393
     18  N6A       13.7400   16.7280   31.4490 N.pl3   1  NAP1        0.2180
     19  N1A       11.5110   17.3890   30.9390 N.2     1  NAP1        0.0021
     20  C2A       10.3600   17.2220   30.1980 C.3     1  NAP1        0.5254
     21  N3A       10.1490   16.2830   29.2060 N.2     1  NAP1       -0.0055
     22  C4A       11.2550   15.4560   28.9880 C.2     1  NAP1        0.3518
     23  O3        10.7920    7.9060   25.6950 O.3     1  NAP1       -0.2703
     24  PN        10.9530    6.5310   24.9540 P.3     1  NAP1        0.2189
     25  O1N       10.0290    6.5040   23.8140 O.2     1  NAP1       -0.5170
     26  O2N       10.7530    5.4740   26.0020 O.3     1  NAP1       -0.4371
     27  O5D       12.4420    6.4920   24.4310 O.3     1  NAP1       -0.3112
     28  C5D       13.5760    6.2050   25.2440 C.3     1  NAP1        0.1813
     29  C4D       14.4040    5.1300   24.6080 C.3     1  NAP1        0.1799
     30  O4D       13.8640    3.8240   24.9760 O.3     1  NAP1       -0.3327
     31  C3D       14.4390    5.0620   23.0660 C.3     1  NAP1        0.2158
     32  O3D       15.1830    6.0860   22.4170 O.3     1  NAP1       -0.2175
     33  C2D       14.9130    3.6330   22.8520 C.3     1  NAP1        0.2309
     34  O2D       16.3350    3.6100   22.9320 O.3     1  NAP1       -0.2158
     35  C1D       14.1690    2.8830   23.9750 C.3     1  NAP1        0.2263
     36  N1N       12.8890    2.2300   23.5460 N.pl3   1  NAP1       -0.2787
     37  C2N       12.9210    0.8340   23.4830 C.3     1  NAP1        0.1244
     38  C3N       11.7790    0.1080   23.0910 C.2     1  NAP1        0.0544
     39  C7N       11.7850   -1.4010   23.0150 C.2     1  NAP1        0.2818
     40  O7N       10.7680   -1.9940   22.6630 O.2     1  NAP1       -0.2670
     41  N7N       12.9210   -2.0540   23.3460 N.am    1  NAP1       -0.0839
     42  C4N       10.5670    0.8440   22.7530 C.2     1  NAP1        0.0033
     43  C5N       10.5360    2.2680   22.8200 C.2     1  NAP1        0.0157
     44  C6N       11.6870    2.9620   23.2140 C.2     1  NAP1        0.0633
     45  P2B       11.2000   16.0700   24.2580 P.3     1  NAP1        0.5328
     46  O1X       12.0610   15.3350   23.2610 O.2     1  NAP1       -0.2224
     47  O2X       10.1740   17.0250   23.6740 O.3     1  NAP1       -0.1145
     48  O3X       12.0070   16.7030   25.3530 O.3     1  NAP1       -0.1145
@<TRIPOS>BOND
     1    32    31    1
     2    40    39    2
     3    42    43    1
     4    42    38    2
     5    43    44    2
     6    33    34    1
     7    33    31    1
     8    33    35    1
     9    39    38    1
    10    39    41   am
    11    31    29    1
    12    38    37    1
    13    44    36    1
    14    46    45    2
    15    37    36    1
    16    36    35    1
    17    47    45    1
    18    25    24    2
    19    35    30    1
    20     9     8    1
    21    45    11    1
    22    45    48    1
    23    27    24    1
    24    27    28    1
    25    29    30    1
    26    29    28    1
    27    24    23    1
    28    24    26    1
    29    11    10    1
    30     8    10    1
    31     8     6    1
    32    23     1    1
    33    10    12    1
    34     6     5    1
    35     6     7    1
    36     5     4    1
    37     4     1    1
    38    12     7    1
    39    12    13    1
    40     1     3    2
    41     1     2    1
    42    13    14    1
    43    13    22    1
    44    14    15    1
    45    22    21    2
    46    22    16    1
    47    15    16    2
    48    21    20    1
    49    16    17    1
    50    20    19    1
    51    17    19    2
    52    17    18    1
