@<TRIPOS>MOLECULE
2ipg_NAP_A_1.pdb
 48 52 0 0 0
SMALL
GASTEIGER

@<TRIPOS>ATOM
      1  PA        14.4740   -9.7440   30.8170 P.3     1  NAP1        0.2189
      2  O1A       15.7810  -10.3490   31.2280 O.2     1  NAP1       -0.5170
      3  O2A       13.7660   -8.8070   31.7240 O.3     1  NAP1       -0.4371
      4  O5B       13.4920  -10.9380   30.4150 O.3     1  NAP1       -0.3112
      5  C5B       13.9950  -12.0130   29.5890 C.3     1  NAP1        0.1813
      6  C4B       12.8690  -12.9940   29.3250 C.3     1  NAP1        0.1820
      7  O4B       12.2240  -13.3620   30.5550 O.3     1  NAP1       -0.3136
      8  C3B       11.7220  -12.5160   28.4240 C.3     1  NAP1        0.2157
      9  O3B       12.0360  -12.8540   27.0800 O.3     1  NAP1       -0.2175
     10  C2B       10.4890  -13.2290   29.0310 C.3     1  NAP1        0.2314
     11  O2B        9.8640  -14.1230   28.1230 O.3     1  NAP1       -0.2630
     12  C1B       11.0070  -13.9910   30.2270 C.3     1  NAP1        0.3158
     13  N9A       10.1710  -13.9330   31.4400 N.pl3   1  NAP1       -0.1439
     14  C8A        9.7180  -12.7920   32.1020 C.3     1  NAP1        0.3377
     15  N7A        8.9870  -13.0560   33.1700 N.2     1  NAP1       -0.2095
     16  C5A        8.9600  -14.4180   33.2080 C.2     1  NAP1        0.2526
     17  C6A        8.3060  -15.4330   34.1620 C.2     1  NAP1        0.4393
     18  N6A        7.5880  -15.0450   35.2180 N.pl3   1  NAP1        0.2180
     19  N1A        8.4980  -16.7740   33.8770 N.2     1  NAP1        0.0021
     20  C2A        9.2450  -17.1700   32.7820 C.3     1  NAP1        0.5254
     21  N3A        9.8710  -16.3420   31.8700 N.2     1  NAP1       -0.0055
     22  C4A        9.6860  -14.9840   32.1440 C.2     1  NAP1        0.3518
     23  O3        14.7300   -9.0530   29.3950 O.3     1  NAP1       -0.2703
     24  PN        15.4720   -7.7760   28.8430 P.3     1  NAP1        0.2189
     25  O1N       15.8530   -8.0100   27.4420 O.2     1  NAP1       -0.5170
     26  O2N       16.5970   -7.5250   29.8010 O.3     1  NAP1       -0.4371
     27  O5D       14.4190   -6.5900   28.9210 O.3     1  NAP1       -0.3112
     28  C5D       13.9730   -5.9680   30.1310 C.3     1  NAP1        0.1813
     29  C4D       14.0170   -4.4740   29.9950 C.3     1  NAP1        0.1799
     30  O4D       15.3730   -4.0120   30.2380 O.3     1  NAP1       -0.3327
     31  C3D       13.6890   -3.8810   28.6120 C.3     1  NAP1        0.2158
     32  O3D       12.3180   -3.8770   28.2610 O.3     1  NAP1       -0.2175
     33  C2D       14.3540   -2.5210   28.6910 C.3     1  NAP1        0.2309
     34  O2D       13.4370   -1.6210   29.2920 O.3     1  NAP1       -0.2158
     35  C1D       15.6240   -2.8280   29.5090 C.3     1  NAP1        0.2263
     36  N1N       16.8630   -3.0400   28.6820 N.pl3   1  NAP1       -0.2787
     37  C2N       17.8100   -2.0120   28.7420 C.3     1  NAP1        0.1244
     38  C3N       19.0090   -2.0980   28.0070 C.2     1  NAP1        0.0544
     39  C7N       20.0480   -1.0030   28.0490 C.2     1  NAP1        0.2818
     40  O7N       21.0760   -1.1140   27.3800 O.2     1  NAP1       -0.2670
     41  N7N       19.8140    0.0700   28.8280 N.am    1  NAP1       -0.0839
     42  C4N       19.2420   -3.2830   27.1850 C.2     1  NAP1        0.0033
     43  C5N       18.2780   -4.3290   27.1270 C.2     1  NAP1        0.0157
     44  C6N       17.0930   -4.2130   27.8690 C.2     1  NAP1        0.0633
     45  P2B        8.2970  -14.0330   27.7460 P.3     1  NAP1        0.5328
     46  O1X        8.0550  -12.6600   27.1690 O.3     1  NAP1       -0.1145
     47  O2X        8.1530  -15.1940   26.7840 O.2     1  NAP1       -0.2224
     48  O3X        7.5480  -14.2540   29.0290 O.3     1  NAP1       -0.1145
@<TRIPOS>BOND
     1    47    45    2
     2     9     8    1
     3    43    42    1
     4    43    44    2
     5    46    45    1
     6    42    38    2
     7    40    39    2
     8    25    24    2
     9    45    11    1
    10    45    48    1
    11    44    36    1
    12    38    39    1
    13    38    37    1
    14    39    41   am
    15    11    10    1
    16    32    31    1
    17     8    10    1
    18     8     6    1
    19    31    33    1
    20    31    29    1
    21    36    37    1
    22    36    35    1
    23    33    34    1
    24    33    35    1
    25    24    27    1
    26    24    23    1
    27    24    26    1
    28    27    28    1
    29    10    12    1
    30     6     5    1
    31     6     7    1
    32    23     1    1
    33    35    30    1
    34     5     4    1
    35    29    28    1
    36    29    30    1
    37    12     7    1
    38    12    13    1
    39     4     1    1
    40     1     2    2
    41     1     3    1
    42    13    14    1
    43    13    22    1
    44    21    22    2
    45    21    20    1
    46    14    15    1
    47    22    16    1
    48    20    19    1
    49    15    16    2
    50    16    17    1
    51    19    17    2
    52    17    18    1
