@<TRIPOS>MOLECULE
2ipg_FFA_A_1.pdb
 21 24 0 0 0
SMALL
GASTEIGER

@<TRIPOS>ATOM
      1  C1        14.2420   -3.6640   19.8520 C.3     3  FFA3        0.0118
      2  C2        13.2380   -3.6980   18.6700 C.3     3  FFA3        0.0694
      3  C3        13.5390   -2.6980   17.5550 C.2     3  FFA3        0.1725
      4  C4        14.9180   -2.1450   17.4470 C.2     3  FFA3        0.0289
      5  C5        15.9200   -2.4700   18.3090 C.2     3  FFA3       -0.0420
      6  C6        15.7730   -3.4390   19.5250 C.3     3  FFA3        0.0157
      7  C7        16.4480   -2.7940   20.8160 C.3     3  FFA3        0.0035
      8  C8        17.9210   -2.3060   20.5440 C.3     3  FFA3        0.0007
      9  C9        17.9400   -1.2910   19.3660 C.3     3  FFA3        0.0044
     10  C10       17.3070   -1.8580   18.0800 C.3     3  FFA3        0.0221
     11  C11       16.4040   -3.7570   22.0770 C.3     3  FFA3        0.0004
     12  C12       17.0620   -3.0560   23.3060 C.3     3  FFA3        0.0025
     13  C14       18.5510   -1.6980   21.8370 C.3     3  FFA3        0.0025
     14  C13       18.5570   -2.6920   23.0220 C.3     3  FFA3        0.0282
     15  C15       19.9990   -1.1700   21.8360 C.3     3  FFA3        0.0027
     16  C16       20.2630   -0.9560   23.3470 C.3     3  FFA3        0.0329
     17  C17       19.3070   -1.9020   24.1180 C.3     3  FFA3        0.1519
     18  C18       19.3800   -4.0140   22.8220 C.3     3  FFA3        0.0025
     19  C19       16.4060   -4.8000   19.1140 C.3     3  FFA3        0.0041
     20  O3        12.6690   -2.3720   16.7580 O.2     3  FFA3       -0.2914
     21  O17       18.4190   -1.1070   24.9260 O.3     3  FFA3       -0.2232
@<TRIPOS>BOND
     1    20     3    2
     2     4     3    1
     3     4     5    2
     4     3     2    1
     5    10     5    1
     6    10     9    1
     7     5     6    1
     8     2     1    1
     9    19     6    1
    10     9     8    1
    11     6     1    1
    12     6     7    1
    13     8     7    1
    14     8    13    1
    15     7    11    1
    16    15    13    1
    17    15    16    1
    18    13    14    1
    19    11    12    1
    20    18    14    1
    21    14    12    1
    22    14    17    1
    23    16    17    1
    24    17    21    1
