@<TRIPOS>MOLECULE
2ipj_NAP_A_1.pdb
 48 52 0 0 0
SMALL
GASTEIGER

@<TRIPOS>ATOM
      1  PA       105.0170   17.9490  175.8480 P.3     1  NAP1        0.2189
      2  O1A      104.9480   16.5690  176.3870 O.2     1  NAP1       -0.5170
      3  O2A      105.1570   19.0990  176.7680 O.3     1  NAP1       -0.4371
      4  O5B      103.7170   18.1970  174.9060 O.3     1  NAP1       -0.3112
      5  C5B      103.4760   17.4540  173.6920 C.3     1  NAP1        0.1813
      6  C4B      102.2850   18.0970  172.9660 C.3     1  NAP1        0.1820
      7  O4B      101.2830   18.5190  173.9210 O.3     1  NAP1       -0.3136
      8  C3B      102.5730   19.3750  172.1570 C.3     1  NAP1        0.2157
      9  O3B      102.8300   19.0360  170.8120 O.3     1  NAP1       -0.2175
     10  C2B      101.3240   20.2600  172.3730 C.3     1  NAP1        0.2314
     11  O2B      100.6470   20.6160  171.1710 O.3     1  NAP1       -0.2630
     12  C1B      100.4280   19.4420  173.2760 C.3     1  NAP1        0.3158
     13  N9A       99.7260   20.1780  174.3430 N.pl3   1  NAP1       -0.1439
     14  C8A      100.2240   21.2100  175.1280 C.3     1  NAP1        0.3377
     15  N7A       99.3520   21.6720  176.0070 N.2     1  NAP1       -0.2095
     16  C5A       98.2400   20.9150  175.7930 C.2     1  NAP1        0.2526
     17  C6A       96.9370   20.9010  176.4060 C.2     1  NAP1        0.4393
     18  N6A       96.6200   21.7430  177.3950 N.pl3   1  NAP1        0.2180
     19  N1A       96.0090   19.9770  175.9350 N.2     1  NAP1        0.0021
     20  C2A       96.3260   19.1060  174.9170 C.3     1  NAP1        0.5254
     21  N3A       97.5340   19.0410  174.2700 N.2     1  NAP1       -0.0055
     22  C4A       98.4490   19.9790  174.7610 C.2     1  NAP1        0.3518
     23  O3       106.1920   17.9710  174.7520 O.3     1  NAP1       -0.2703
     24  PN       107.7640   17.9330  174.6730 P.3     1  NAP1        0.2189
     25  O1N      108.1660   18.8040  173.5510 O.2     1  NAP1       -0.5170
     26  O2N      108.1330   16.4840  174.5510 O.3     1  NAP1       -0.4371
     27  O5D      108.3160   18.5260  176.0390 O.3     1  NAP1       -0.3112
     28  C5D      108.1520   19.8980  176.4250 C.3     1  NAP1        0.1813
     29  C4D      109.4680   20.6140  176.4720 C.3     1  NAP1        0.1799
     30  O4D      110.4280   19.8030  177.1980 O.3     1  NAP1       -0.3327
     31  C3D      110.1960   20.8850  175.1380 C.3     1  NAP1        0.2158
     32  O3D      109.6360   21.8940  174.3150 O.3     1  NAP1       -0.2175
     33  C2D      111.6190   21.1200  175.6330 C.3     1  NAP1        0.2309
     34  O2D      111.7460   22.4690  176.0470 O.3     1  NAP1       -0.2158
     35  C1D      111.7350   20.0850  176.7540 C.3     1  NAP1        0.2263
     36  N1N      112.3640   18.7990  176.3270 N.pl3   1  NAP1       -0.2787
     37  C2N      113.6500   18.5850  176.8040 C.3     1  NAP1        0.1244
     38  C3N      114.3440   17.4150  176.4690 C.2     1  NAP1        0.0544
     39  C7N      115.7520   17.1510  176.9720 C.2     1  NAP1        0.2818
     40  O7N      116.3330   16.1050  176.6440 O.2     1  NAP1       -0.2670
     41  N7N      116.3260   18.0760  177.7690 N.am    1  NAP1       -0.0839
     42  C4N      113.6790   16.4370  175.6140 C.2     1  NAP1        0.0033
     43  C5N      112.3610   16.6570  175.1270 C.2     1  NAP1        0.0157
     44  C6N      111.7030   17.8310  175.4800 C.2     1  NAP1        0.0633
     45  P2B      100.3430   22.1490  170.7520 P.3     1  NAP1        0.5328
     46  O1X      101.6750   22.8710  170.6850 O.3     1  NAP1       -0.1145
     47  O2X       99.6160   21.9730  169.4350 O.2     1  NAP1       -0.2224
     48  O3X       99.4440   22.7080  171.8250 O.3     1  NAP1       -0.1145
@<TRIPOS>BOND
     1    47    45    2
     2    46    45    1
     3    45    11    1
     4    45    48    1
     5     9     8    1
     6    11    10    1
     7     8    10    1
     8     8     6    1
     9    10    12    1
    10     6     5    1
    11     6     7    1
    12    12     7    1
    13    12    13    1
    14    25    24    2
    15     5     4    1
    16    21    22    2
    17    21    20    1
    18    32    31    1
    19    13    22    1
    20    13    14    1
    21    26    24    1
    22    24    23    1
    23    24    27    1
    24    23     1    1
    25    22    16    1
    26     4     1    1
    27    20    19    1
    28    43    44    2
    29    43    42    1
    30    14    15    1
    31    31    33    1
    32    31    29    1
    33    44    36    1
    34    42    38    2
    35    33    34    1
    36    33    35    1
    37    16    15    2
    38    16    17    1
    39     1     2    2
    40     1     3    1
    41    19    17    2
    42    27    28    1
    43    36    35    1
    44    36    37    1
    45    17    18    1
    46    28    29    1
    47    38    37    1
    48    38    39    1
    49    29    30    1
    50    40    39    2
    51    35    30    1
    52    39    41   am
