@<TRIPOS>MOLECULE
2ipj_FFA_A_1.pdb
 21 24 0 0 0
SMALL
GASTEIGER

@<TRIPOS>ATOM
      1  C1       116.3270   19.3780  167.0000 C.3   325  FFA325      0.0118
      2  C2       116.8290   19.8260  165.6010 C.3   325  FFA325      0.0694
      3  C3       118.2570   19.3800  165.2810 C.2   325  FFA325      0.1725
      4  C4       118.8310   18.2320  166.0420 C.2   325  FFA325      0.0289
      5  C5       118.1510   17.5720  167.0190 C.2   325  FFA325     -0.0420
      6  C6       116.7010   17.9160  167.4840 C.3   325  FFA325      0.0157
      7  C7       116.6190   17.9060  169.0740 C.3   325  FFA325      0.0035
      8  C8       117.2270   16.5990  169.7140 C.3   325  FFA325      0.0007
      9  C9       118.7000   16.4210  169.2540 C.3   325  FFA325      0.0044
     10  C10      118.8380   16.3920  167.7160 C.3   325  FFA325      0.0221
     11  C11      115.1490   18.1590  169.6010 C.3   325  FFA325      0.0004
     12  C12      115.1320   18.1610  171.1570 C.3   325  FFA325      0.0025
     13  C14      117.1030   16.6410  171.2740 C.3   325  FFA325      0.0025
     14  C13      115.6340   16.8050  171.7460 C.3   325  FFA325      0.0282
     15  C15      117.5980   15.4750  172.1440 C.3   325  FFA325      0.0027
     16  C16      117.0140   15.8480  173.5330 C.3   325  FFA325      0.0329
     17  C17      115.7520   16.7200  173.2840 C.3   325  FFA325      0.1519
     18  C18      114.6390   15.6590  171.3340 C.3   325  FFA325      0.0025
     19  C19      115.7330   16.9020  166.8060 C.3   325  FFA325      0.0041
     20  O3       118.9120   19.9400  164.4120 O.2   325  FFA325     -0.2914
     21  O17      115.9580   18.0090  173.8920 O.3   325  FFA325     -0.2232
@<TRIPOS>BOND
     1    20     3    2
     2     3     2    1
     3     3     4    1
     4     2     1    1
     5     4     5    2
     6    19     6    1
     7     1     6    1
     8     5     6    1
     9     5    10    1
    10     6     7    1
    11    10     9    1
    12     7    11    1
    13     7     8    1
    14     9     8    1
    15    11    12    1
    16     8    13    1
    17    12    14    1
    18    13    14    1
    19    13    15    1
    20    18    14    1
    21    14    17    1
    22    15    16    1
    23    17    16    1
    24    17    21    1
