@<TRIPOS>MOLECULE
2ipl_BGC_A_1.pdb
 12 12 0 0 0
SMALL
GASTEIGER

@<TRIPOS>ATOM
      1  C2         5.5270    0.3890   18.3540 C.3   501  BGC501      0.2434
      2  C3         5.7050    0.6440   19.8410 C.3   501  BGC501      0.2199
      3  C4         7.1730    0.7040   20.2280 C.3   501  BGC501      0.2144
      4  C5         7.9330    1.6610   19.3080 C.3   501  BGC501      0.1836
      5  C6         9.4320    1.5560   19.5840 C.3   501  BGC501      0.2142
      6  C1         6.3440    1.4120   17.5710 C.3   501  BGC501      0.3024
      7  O1         6.2440    1.1490   16.2000 O.3   501  BGC501     -0.1869
      8  O2         4.1540    0.5110   18.0010 O.3   501  BGC501     -0.2148
      9  O3         5.0590   -0.3250   20.6310 O.3   501  BGC501     -0.2174
     10  O4         7.2310    1.1280   21.5810 O.3   501  BGC501     -0.2176
     11  O5         7.7040    1.3050   17.9620 O.3   501  BGC501     -0.3236
     12  O6        10.2040    2.3720   18.7100 O.3   501  BGC501     -0.2176
@<TRIPOS>BOND
     1     7     6    1
     2     6    11    1
     3     6     1    1
     4    11     4    1
     5     8     1    1
     6     1     2    1
     7    12     5    1
     8     4     5    1
     9     4     3    1
    10     2     3    1
    11     2     9    1
    12     3    10    1
