@<TRIPOS>MOLECULE
2ipm_BGC_A_1.pdb
 12 12 0 0 0
SMALL
GASTEIGER

@<TRIPOS>ATOM
      1  C2        16.3520   -5.4730   17.5910 C.3   501  BGC501      0.2434
      2  C3        16.8210   -5.8980   18.9840 C.3   501  BGC501      0.2199
      3  C4        15.6500   -6.0530   19.9300 C.3   501  BGC501      0.2144
      4  C5        14.5830   -6.9620   19.3160 C.3   501  BGC501      0.1836
      5  C6        13.3290   -6.9820   20.1840 C.3   501  BGC501      0.2142
      6  C1        15.2880   -6.4490   17.1260 C.3   501  BGC501      0.3024
      7  O1        14.7890   -6.0080   15.9030 O.3   501  BGC501     -0.1869
      8  O2        17.4380   -5.4860   16.6910 O.3   501  BGC501     -0.2148
      9  O3        17.7170   -4.9520   19.5400 O.3   501  BGC501     -0.2174
     10  O4        16.1500   -6.6300   21.1170 O.3   501  BGC501     -0.2176
     11  O5        14.2050   -6.4810   18.0340 O.3   501  BGC501     -0.3236
     12  O6        12.3130   -7.7960   19.6170 O.3   501  BGC501     -0.2176
@<TRIPOS>BOND
     1     7     6    1
     2     8     1    1
     3     6     1    1
     4     6    11    1
     5     1     2    1
     6    11     4    1
     7     2     9    1
     8     2     3    1
     9     4     3    1
    10     4     5    1
    11    12     5    1
    12     3    10    1
