@<TRIPOS>MOLECULE
2ipn_BGC_A_1.pdb
 12 12 0 0 0
SMALL
GASTEIGER

@<TRIPOS>ATOM
      1  C2        37.6150   30.3220   48.7310 C.3   701  BGC701      0.2434
      2  C3        38.1140   29.8580   50.0890 C.3   701  BGC701      0.2199
      3  C4        36.9660   29.6820   51.0690 C.3   701  BGC701      0.2144
      4  C5        35.8780   28.7860   50.4690 C.3   701  BGC701      0.1836
      5  C6        34.6570   28.7440   51.3650 C.3   701  BGC701      0.2142
      6  C1        36.5370   29.3580   48.2620 C.3   701  BGC701      0.3024
      7  O1        36.0070   29.8060   47.0430 O.3   701  BGC701     -0.1869
      8  O2        38.6720   30.3260   47.7930 O.3   701  BGC701     -0.2148
      9  O3        39.0380   30.7720   50.6420 O.3   701  BGC701     -0.2174
     10  O4        37.5160   29.1090   52.2360 O.3   701  BGC701     -0.2176
     11  O5        35.4830   29.3060   49.2060 O.3   701  BGC701     -0.3236
     12  O6        33.6070   27.9700   50.8040 O.3   701  BGC701     -0.2176
@<TRIPOS>BOND
     1     7     6    1
     2     8     1    1
     3     6     1    1
     4     6    11    1
     5     1     2    1
     6    11     4    1
     7     2     9    1
     8     2     3    1
     9     4     3    1
    10     4     5    1
    11    12     5    1
    12     3    10    1
