@<TRIPOS>MOLECULE
2ipo_1IP_A_1.pdb
 16 15 0 0 0
SMALL
GASTEIGER

@<TRIPOS>ATOM
      1  OAG       46.3370   27.8020   15.8210 O.3   401  1IP401     -0.3568
      2  PAP       45.2020   28.9150   16.0730 P.3   401  1IP401      0.1264
      3  OAH       45.5620   30.1270   15.0730 O.2   401  1IP401     -0.4596
      4  OAE       45.1510   29.3620   17.4870 O.3   401  1IP401     -0.3568
      5  CAJ       43.6480   28.1940   15.4930 C.3   401  1IP401      0.1454
      6  CAM       42.4670   29.1140   15.8100 C.2   401  1IP401      0.2492
      7  OAC       42.2250   30.1020   15.1150 O.2   401  1IP401     -0.2728
      8  N         41.7630   28.7530   16.8780 N.am  401  1IP401     -0.1947
      9  CA        40.5790   29.4950   17.3350 C.3   401  1IP401      0.2069
     10  C         40.9650   30.8580   17.9110 C.2   401  1IP401      0.3847
     11  O1        40.0440   31.5490   18.3970 O.co2 401  1IP401     -0.2437
     12  O         42.1720   31.1850   17.8490 O.co2 401  1IP401     -0.2437
     13  CB        39.8350   28.6660   18.3840 C.3   401  1IP401      0.1217
     14  CG        40.7070   28.3230   19.5960 C.2   401  1IP401      0.2631
     15  OD1       40.3060   27.5270   20.4420 O.2   401  1IP401     -0.2716
     16  ND2       41.8830   28.9400   19.6600 N.am  401  1IP401     -0.0877
@<TRIPOS>BOND
     1     3     2    2
     2     7     6    2
     3     5     6    1
     4     5     2    1
     5     6     8   am
     6     1     2    1
     7     2     4    1
     8     8     9    1
     9     9    10    1
    10     9    13    1
    11    12    10   ar
    12    10    11   ar
    13    13    14    1
    14    14    16   am
    15    14    15    2
