@<TRIPOS>MOLECULE
2ips_HEM_A_1.pdb
 43 50 0 0 0
SMALL
GASTEIGER

@<TRIPOS>ATOM
      1  CHA        8.8740    0.3910   29.4050 C.2   708  HEM708      0.0000
      2  CHB        9.4030    4.9670   29.1420 C.2   708  HEM708      0.0000
      3  CHC       11.2470    4.4240   24.8610 C.2   708  HEM708      0.0000
      4  CHD       10.8830   -0.3470   25.1250 C.2   708  HEM708      0.0000
      5  C1A        8.8780    1.6120   29.7380 C.2   708  HEM708      0.0000
      6  C2A        8.4960    2.0660   31.0300 C.2   708  HEM708      0.0000
      7  C3A        8.6480    3.3820   31.0000 C.2   708  HEM708      0.0000
      8  C4A        9.1170    3.7150   29.6520 C.2   708  HEM708      0.0000
      9  CMA        8.3860    4.3660   32.1570 C.3   708  HEM708      0.0000
     10  CAA        8.0120    1.1430   32.1870 C.3   708  HEM708      0.0000
     11  CBA        9.0760    0.2230   32.7900 C.3   708  HEM708      0.0000
     12  CGA        8.5410   -0.6650   33.9250 C.2   708  HEM708      0.0000
     13  O1A        7.6840   -0.1940   34.7980 O.co2 708  HEM708      0.0000
     14  O2A        8.9990   -1.8590   33.9390 O.co2 708  HEM708      0.0000
     15  C1B        9.9640    5.2510   27.9330 C.ar  708  HEM708      0.0000
     16  C2B       10.2830    6.5500   27.4610 C.ar  708  HEM708      0.0000
     17  C3B       10.8090    6.3650   26.2440 C.ar  708  HEM708      0.0000
     18  C4B       10.7970    4.9780   25.9770 C.ar  708  HEM708      0.0000
     19  CMB       10.1160    7.8750   28.2080 C.3   708  HEM708      0.0000
     20  CAB       11.3260    7.4650   25.2880 C.2   708  HEM708      0.0000
     21  CBB       10.5650    8.5490   25.0350 C.2   708  HEM708      0.0000
     22  C1C       11.3290    3.0940   24.5210 C.2   708  HEM708      0.0000
     23  C2C       11.8360    2.5490   23.2350 C.2   708  HEM708      0.0000
     24  C3C       11.7430    1.1900   23.3220 C.2   708  HEM708      0.0000
     25  C4C       11.1800    0.9150   24.6400 C.2   708  HEM708      0.0000
     26  CMC       12.3460    3.3530   21.9480 C.3   708  HEM708      0.0000
     27  CAC       12.1250    0.0620   22.2770 C.2   708  HEM708      0.0000
     28  CBC       13.0010    0.0760   21.2770 C.2   708  HEM708      0.0000
     29  C1D       10.2740   -0.5540   26.3420 C.ar  708  HEM708      0.0000
     30  C2D        9.8350   -1.8580   26.7270 C.ar  708  HEM708      0.0000
     31  C3D        9.1890   -1.6680   28.0620 C.ar  708  HEM708      0.0000
     32  C4D        9.3490   -0.1930   28.3050 C.ar  708  HEM708      0.0000
     33  CMD        9.9090   -3.2400   26.0440 C.3   708  HEM708      0.0000
     34  CAD        8.5440   -2.9040   28.8560 C.3   708  HEM708      0.0000
     35  CBD        7.2410   -3.4820   28.1840 C.3   708  HEM708      0.0000
     36  CGD        6.1810   -3.9650   29.1530 C.2   708  HEM708      0.0000
     37  O1D        5.7140   -5.1060   28.9880 O.co2 708  HEM708      0.0000
     38  O2D        5.8270   -3.2180   30.1060 O.co2 708  HEM708      0.0000
     39  NA         9.2450    2.5870   28.8970 N.2   708  HEM708      0.0000
     40  NB        10.2750    4.3070   27.0040 N.ar  708  HEM708      0.0000
     41  NC        10.9170    2.0830   25.3530 N.2   708  HEM708      0.0000
     42  ND         9.9730    0.4240   27.2990 N.ar  708  HEM708      0.0000
     43 FE         10.7150    2.3350   27.2820 Fe    708  HEM708      0.0000
@<TRIPOS>BOND
     1    28    27    2
     2    26    23    1
     3    27    24    1
     4    23    24    2
     5    23    22    1
     6    24    25    1
     7    22     3    2
     8    22    41    1
     9    25     4    1
    10    25    41    2
    11     3    18    1
    12    21    20    2
    13     4    29    2
    14    20    17    1
    15    41    43    1
    16    18    17   ar
    17    18    40   ar
    18    33    30    1
    19    17    16   ar
    20    29    30   ar
    21    29    42   ar
    22    30    31   ar
    23    40    43    1
    24    40    15   ar
    25    43    42    1
    26    43    39    1
    27    42    32   ar
    28    16    15   ar
    29    16    19    1
    30    15     2    1
    31    31    32   ar
    32    31    34    1
    33    35    34    1
    34    35    36    1
    35    32     1    2
    36    39     8    1
    37    39     5    2
    38    37    36   ar
    39     2     8    2
    40    36    38   ar
    41     1     5    1
    42     8     7    1
    43     5     6    1
    44     7     6    2
    45     7     9    1
    46     6    10    1
    47    10    11    1
    48    11    12    1
    49    12    14   ar
    50    12    13   ar
