@<TRIPOS>MOLECULE
2ipw_2CL_A_1.pdb
 12 12 0 0 0
SMALL
GASTEIGER

@<TRIPOS>ATOM
      1  C1        17.9830   24.3740   63.0480 C.ar  317  2CL317      0.0102
      2  C2        19.2220   24.7040   62.5150 C.ar  317  2CL317      0.0550
      3  C3        19.8400   23.8400   61.6240 C.ar  317  2CL317      0.0111
      4  C4        19.2290   22.6470   61.2600 C.ar  317  2CL317      0.0017
      5  C5        17.9930   22.3170   61.7990 C.ar  317  2CL317      0.0111
      6  C6        17.3650   23.1760   62.6940 C.ar  317  2CL317      0.0550
      7  C7        17.3890   25.2320   64.1340 C.3   317  2CL317      0.1420
      8  C8        16.3920   26.2550   63.6330 C.2   317  2CL317      0.3693
      9 CL1        19.9690   26.2630   62.8880 Cl    317  2CL317     -0.0825
     10 CL2        15.7900   22.7380   63.3750 Cl    317  2CL317     -0.0825
     11  O1        16.2390   26.4350   62.4060 O.co2 317  2CL317     -0.2453
     12  O2        15.7560   26.8920   64.4890 O.co2 317  2CL317     -0.2453
@<TRIPOS>BOND
     1     4     3   ar
     2     4     5   ar
     3     3     2   ar
     4     5     6   ar
     5    11     8   ar
     6     2     9    1
     7     2     1   ar
     8     6     1   ar
     9     6    10    1
    10     1     7    1
    11     8     7    1
    12     8    12   ar
