@<TRIPOS>MOLECULE
2ipw_NAP_A_1.pdb
 48 52 0 0 0
SMALL
GASTEIGER

@<TRIPOS>ATOM
      1  PA        23.5350   27.7690   72.7370 P.3   316  NAP316      0.2189
      2  O1A       24.4580   28.7400   72.1360 O.2   316  NAP316     -0.5170
      3  O2A       22.6180   28.2030   73.7920 O.3   316  NAP316     -0.4371
      4  O5B       24.3650   26.5370   73.2990 O.3   316  NAP316     -0.3112
      5  C5B       23.6950   25.3440   73.7300 C.3   316  NAP316      0.1813
      6  C4B       24.8170   24.4090   74.1470 C.3   316  NAP316      0.1820
      7  O4B       25.6380   25.0820   75.1080 O.3   316  NAP316     -0.3136
      8  C3B       24.4180   23.1010   74.7830 C.3   316  NAP316      0.2157
      9  O3B       25.4150   22.1570   74.4230 O.3   316  NAP316     -0.2175
     10  C2B       24.6130   23.2900   76.2610 C.3   316  NAP316      0.2314
     11  O2B       24.9220   22.0290   76.8810 O.3   316  NAP316     -0.2630
     12  C1B       25.7860   24.2440   76.2660 C.3   316  NAP316      0.3158
     13  N9A       25.7500   25.1000   77.4730 N.pl3 316  NAP316     -0.1439
     14  C8A       24.6730   25.6750   78.0470 C.3   316  NAP316      0.3377
     15  N7A       25.0120   26.2890   79.1870 N.2   316  NAP316     -0.2095
     16  C5A       26.3210   26.0830   79.2820 C.2   316  NAP316      0.2526
     17  C6A       27.1230   26.4380   80.3580 C.2   316  NAP316      0.4393
     18  N6A       26.7060   27.2420   81.3320 N.pl3 316  NAP316      0.2180
     19  N1A       28.4090   26.0290   80.3010 N.2   316  NAP316      0.0021
     20  C2A       28.8920   25.3470   79.2590 C.3   316  NAP316      0.5254
     21  N3A       28.1130   25.0120   78.2350 N.2   316  NAP316     -0.0055
     22  C4A       26.8130   25.3500   78.2330 C.2   316  NAP316      0.3518
     23  O3        22.7830   27.0080   71.5360 O.3   316  NAP316     -0.2703
     24  PN        21.4790   27.0260   70.5580 P.3   316  NAP316      0.2189
     25  O1N       20.6710   25.8750   71.0260 O.3   316  NAP316     -0.4371
     26  O2N       21.9460   27.0180   69.1610 O.2   316  NAP316     -0.5170
     27  O5D       20.7100   28.4370   70.7680 O.3   316  NAP316     -0.3112
     28  C5D       19.7950   28.6670   71.8510 C.3   316  NAP316      0.1813
     29  C4D       18.3350   28.5670   71.4280 C.3   316  NAP316      0.1799
     30  O4D       18.0910   29.4970   70.3760 O.3   316  NAP316     -0.3327
     31  C3D       17.9270   27.2390   70.8320 C.3   316  NAP316      0.2158
     32  O3D       17.8000   26.1630   71.7570 O.3   316  NAP316     -0.2175
     33  C2D       16.6270   27.6450   70.1990 C.3   316  NAP316      0.2309
     34  O2D       15.6770   27.7970   71.2430 O.3   316  NAP316     -0.2158
     35  C1D       16.9880   29.0010   69.6250 C.3   316  NAP316      0.2263
     36  N1N       17.4300   28.9240   68.2150 N.pl3 316  NAP316     -0.2787
     37  C2N       16.6160   29.5420   67.2730 C.3   316  NAP316      0.1244
     38  C3N       16.9420   29.4850   65.9280 C.2   316  NAP316      0.0544
     39  C7N       16.0390   30.1360   64.9000 C.2   316  NAP316      0.2818
     40  O7N       16.2180   29.9100   63.7140 O.2   316  NAP316     -0.2670
     41  N7N       15.0970   30.9540   65.3480 N.am  316  NAP316     -0.0839
     42  C4N       18.0950   28.8080   65.5360 C.2   316  NAP316      0.0033
     43  C5N       18.9290   28.1940   66.4650 C.2   316  NAP316      0.0157
     44  C6N       18.5920   28.2530   67.8090 C.2   316  NAP316      0.0633
     45  P2B       23.8060   21.2380   77.7110 P.3   316  NAP316      0.5328
     46  O1X       22.5170   21.4970   77.0430 O.2   316  NAP316     -0.2224
     47  O2X       24.2850   19.8620   77.5460 O.3   316  NAP316     -0.1145
     48  O3X       23.9410   21.8070   79.0710 O.3   316  NAP316     -0.1145
@<TRIPOS>BOND
     1    40    39    2
     2    39    41   am
     3    39    38    1
     4    42    38    2
     5    42    43    1
     6    38    37    1
     7    43    44    2
     8    37    36    1
     9    44    36    1
    10    36    35    1
    11    26    24    2
    12    35    33    1
    13    35    30    1
    14    33    31    1
    15    33    34    1
    16    30    29    1
    17    24    27    1
    18    24    25    1
    19    24    23    1
    20    27    28    1
    21    31    29    1
    22    31    32    1
    23    29    28    1
    24    23     1    1
    25     2     1    2
    26     1     4    1
    27     1     3    1
    28     4     5    1
    29     5     6    1
    30     6     8    1
    31     6     7    1
    32     9     8    1
    33     8    10    1
    34     7    12    1
    35    10    12    1
    36    10    11    1
    37    12    13    1
    38    11    45    1
    39    46    45    2
    40    13    14    1
    41    13    22    1
    42    47    45    1
    43    45    48    1
    44    14    15    1
    45    22    21    2
    46    22    16    1
    47    21    20    1
    48    15    16    2
    49    20    19    1
    50    16    17    1
    51    19    17    2
    52    17    18    1
