@<TRIPOS>MOLECULE
2ipx_MTA_A_1.pdb
 20 22 0 0 0
SMALL
GASTEIGER

@<TRIPOS>ATOM
      1  CS        21.0110    7.3990   48.6010 C.3   4001  MTA4001     0.0693
      2  S5'       21.8170    5.8440   48.7140 S.3   4001  MTA4001    -0.1367
      3  C5'       21.0230    4.3020   48.3860 C.3   4001  MTA4001     0.0899
      4  C4'       19.8900    4.0320   49.3810 C.3   4001  MTA4001     0.1630
      5  O4'       19.0050    3.0380   48.8500 O.3   4001  MTA4001    -0.3153
      6  C2'       19.8320    2.0770   50.8100 C.3   4001  MTA4001     0.2569
      7  O2'       19.5210    1.6660   52.1590 O.3   4001  MTA4001    -0.2130
      8  C3'       20.3880    3.4940   50.7170 C.3   4001  MTA4001     0.2168
      9  O3'       19.8600    4.3150   51.7640 O.3   4001  MTA4001    -0.2175
     10  C1'       18.6050    2.1590   49.9030 C.3   4001  MTA4001     0.3185
     11  N9        18.1580    0.8280   49.4180 N.pl3 4001  MTA4001    -0.1439
     12  C8        18.9050   -0.1610   48.8670 C.3   4001  MTA4001     0.3377
     13  N7        18.1390   -1.2480   48.5650 N.2   4001  MTA4001    -0.2095
     14  C5        16.8740   -0.9530   48.9370 C.2   4001  MTA4001     0.2526
     15  C6        15.5590   -1.6360   48.9150 C.2   4001  MTA4001     0.4393
     16  N6        15.4370   -2.8970   48.4310 N.pl3 4001  MTA4001     0.2180
     17  N1        14.4910   -0.9540   49.3900 N.2   4001  MTA4001     0.0021
     18  C2        14.5720    0.2950   49.8850 C.3   4001  MTA4001     0.5254
     19  N3        15.7360    0.9790   49.9490 N.2   4001  MTA4001    -0.0055
     20  C4        16.8940    0.4130   49.4980 C.2   4001  MTA4001     0.3518
@<TRIPOS>BOND
     1     3     2    1
     2     3     4    1
     3    16    15    1
     4    13    12    1
     5    13    14    2
     6     1     2    1
     7     5     4    1
     8     5    10    1
     9    12    11    1
    10    15    14    1
    11    15    17    2
    12    14    20    1
    13     4     8    1
    14    17    18    1
    15    11    20    1
    16    11    10    1
    17    20    19    2
    18    18    19    1
    19    10     6    1
    20     8     6    1
    21     8     9    1
    22     6     7    1
