@<TRIPOS>MOLECULE
2iq0_NAP_A_1.pdb
 48 52 0 0 0
SMALL
GASTEIGER

@<TRIPOS>ATOM
      1  PA        23.5310   28.1530   72.3190 P.3   316  NAP316      0.2189
      2  O1A       24.4070   29.1660   71.7230 O.2   316  NAP316     -0.5170
      3  O2A       22.6050   28.5410   73.3920 O.3   316  NAP316     -0.4371
      4  O5B       24.4360   26.9490   72.8290 O.3   316  NAP316     -0.3112
      5  C5B       23.8330   25.7610   73.3340 C.3   316  NAP316      0.1813
      6  C4B       24.9770   24.8390   73.7150 C.3   316  NAP316      0.1820
      7  O4B       25.7890   25.4680   74.7310 O.3   316  NAP316     -0.3136
      8  C3B       24.5410   23.5130   74.3040 C.3   316  NAP316      0.2157
      9  O3B       25.4210   22.4820   73.8770 O.3   316  NAP316     -0.2175
     10  C2B       24.6560   23.6900   75.7980 C.3   316  NAP316      0.2314
     11  O2B       24.9490   22.4270   76.3990 O.3   316  NAP316     -0.2630
     12  C1B       25.8250   24.6360   75.8970 C.3   316  NAP316      0.3158
     13  N9A       25.7740   25.4680   77.1220 N.pl3 316  NAP316     -0.1439
     14  C8A       24.7150   26.1130   77.6480 C.3   316  NAP316      0.3377
     15  N7A       25.0760   26.7520   78.7660 N.2   316  NAP316     -0.2095
     16  C5A       26.3650   26.4710   78.9110 C.2   316  NAP316      0.2526
     17  C6A       27.1930   26.8810   79.9590 C.2   316  NAP316      0.4393
     18  N6A       26.7830   27.6630   80.9550 N.pl3 316  NAP316      0.2180
     19  N1A       28.4710   26.4400   79.9140 N.2   316  NAP316      0.0021
     20  C2A       28.9180   25.6680   78.9170 C.3   316  NAP316      0.5254
     21  N3A       28.1220   25.2910   77.9170 N.2   316  NAP316     -0.0055
     22  C4A       26.8290   25.6720   77.8980 C.2   316  NAP316      0.3518
     23  O3        22.8220   27.3510   71.1200 O.3   316  NAP316     -0.2703
     24  PN        21.4890   27.3380   70.2080 P.3   316  NAP316      0.2189
     25  O1N       20.6890   26.1980   70.6700 O.3   316  NAP316     -0.4371
     26  O2N       21.9280   27.3780   68.8110 O.2   316  NAP316     -0.5170
     27  O5D       20.7800   28.7690   70.4620 O.3   316  NAP316     -0.3112
     28  C5D       19.8740   29.0020   71.5590 C.3   316  NAP316      0.1813
     29  C4D       18.4240   28.9480   71.0970 C.3   316  NAP316      0.1799
     30  O4D       18.2660   29.8830   70.0230 O.3   316  NAP316     -0.3327
     31  C3D       18.0460   27.6340   70.4500 C.3   316  NAP316      0.2158
     32  O3D       17.8660   26.5220   71.3160 O.3   316  NAP316     -0.2175
     33  C2D       16.7860   28.0620   69.7520 C.3   316  NAP316      0.2309
     34  O2D       15.7280   28.0850   70.7080 O.3   316  NAP316     -0.2158
     35  C1D       17.1550   29.4490   69.2420 C.3   316  NAP316      0.2263
     36  N1N       17.5560   29.4420   67.8300 N.pl3 316  NAP316     -0.2787
     37  C2N       16.7180   29.9920   66.8640 C.3   316  NAP316      0.1244
     38  C3N       17.0490   29.8970   65.5160 C.2   316  NAP316      0.0544
     39  C7N       16.1710   30.5800   64.4630 C.2   316  NAP316      0.2818
     40  O7N       16.3910   30.4220   63.2600 O.2   316  NAP316     -0.2670
     41  N7N       15.2230   31.3790   64.9400 N.am  316  NAP316     -0.0839
     42  C4N       18.2280   29.2620   65.1420 C.2   316  NAP316      0.0033
     43  C5N       19.0910   28.7300   66.0970 C.2   316  NAP316      0.0157
     44  C6N       18.7520   28.8170   67.4420 C.2   316  NAP316      0.0633
     45  P2B       23.8880   21.5760   77.2350 P.3   316  NAP316      0.5328
     46  O1X       22.5670   21.7760   76.6090 O.2   316  NAP316     -0.2224
     47  O2X       24.4670   20.2430   77.0220 O.3   316  NAP316     -0.1145
     48  O3X       24.0250   22.1080   78.6000 O.3   316  NAP316     -0.1145
@<TRIPOS>BOND
     1    40    39    2
     2    39    41   am
     3    39    38    1
     4    42    38    2
     5    42    43    1
     6    38    37    1
     7    43    44    2
     8    37    36    1
     9    44    36    1
    10    36    35    1
    11    26    24    2
    12    35    33    1
    13    35    30    1
    14    33    31    1
    15    33    34    1
    16    30    29    1
    17    24    27    1
    18    24    25    1
    19    24    23    1
    20    31    29    1
    21    31    32    1
    22    27    28    1
    23    29    28    1
    24    23     1    1
    25     2     1    2
    26     1     4    1
    27     1     3    1
    28     4     5    1
    29     5     6    1
    30     6     8    1
    31     6     7    1
    32     9     8    1
    33     8    10    1
    34     7    12    1
    35    10    12    1
    36    10    11    1
    37    12    13    1
    38    11    45    1
    39    46    45    2
    40    47    45    1
    41    13    14    1
    42    13    22    1
    43    45    48    1
    44    14    15    1
    45    22    21    2
    46    22    16    1
    47    21    20    1
    48    15    16    2
    49    16    17    1
    50    20    19    1
    51    19    17    2
    52    17    18    1
