@<TRIPOS>MOLECULE
2iqd_NAP_A_1.pdb
 48 52 0 0 0
SMALL
GASTEIGER

@<TRIPOS>ATOM
      1  PA        23.5400   28.0870   72.4420 P.3   316  NAP316      0.2189
      2  O1A       24.4230   29.1250   71.9100 O.2   316  NAP316     -0.5170
      3  O2A       22.5150   28.4760   73.4130 O.3   316  NAP316     -0.4371
      4  O5B       24.4130   26.8790   73.0120 O.3   316  NAP316     -0.3112
      5  C5B       23.8130   25.6840   73.5110 C.3   316  NAP316      0.1813
      6  C4B       24.9960   24.7950   73.8010 C.3   316  NAP316      0.1820
      7  O4B       25.8580   25.4230   74.7770 O.3   316  NAP316     -0.3136
      8  C3B       24.5800   23.4660   74.3650 C.3   316  NAP316      0.2157
      9  O3B       25.5270   22.4870   73.9490 O.3   316  NAP316     -0.2175
     10  C2B       24.7390   23.6330   75.8510 C.3   316  NAP316      0.2314
     11  O2B       25.0510   22.3590   76.4170 O.3   316  NAP316     -0.2630
     12  C1B       25.9160   24.5950   75.9550 C.3   316  NAP316      0.3158
     13  N9A       25.9070   25.4580   77.1690 N.pl3 316  NAP316     -0.1439
     14  C8A       24.8560   26.0880   77.7220 C.3   316  NAP316      0.3377
     15  N7A       25.2330   26.7270   78.8320 N.2   316  NAP316     -0.2095
     16  C5A       26.5250   26.4780   78.9530 C.2   316  NAP316      0.2526
     17  C6A       27.3640   26.8570   80.0090 C.2   316  NAP316      0.4393
     18  N6A       26.9500   27.5930   81.0340 N.pl3 316  NAP316      0.2180
     19  N1A       28.6490   26.4140   79.9510 N.2   316  NAP316      0.0021
     20  C2A       29.0870   25.6460   78.9540 C.3   316  NAP316      0.5254
     21  N3A       28.2600   25.2860   77.9660 N.2   316  NAP316     -0.0055
     22  C4A       26.9720   25.6800   77.9290 C.2   316  NAP316      0.3518
     23  O3        22.8910   27.3860   71.1680 O.3   316  NAP316     -0.2703
     24  PN        21.5620   27.4180   70.2900 P.3   316  NAP316      0.2189
     25  O1N       20.7080   26.3420   70.8250 O.3   316  NAP316     -0.4371
     26  O2N       22.0150   27.3630   68.9050 O.2   316  NAP316     -0.5170
     27  O5D       20.9090   28.8650   70.5810 O.3   316  NAP316     -0.3112
     28  C5D       19.9330   29.0400   71.6250 C.3   316  NAP316      0.1813
     29  C4D       18.5200   28.9270   71.0900 C.3   316  NAP316      0.1799
     30  O4D       18.3420   29.9070   70.0680 O.3   316  NAP316     -0.3327
     31  C3D       18.1080   27.6010   70.4560 C.3   316  NAP316      0.2158
     32  O3D       17.8540   26.5400   71.3980 O.3   316  NAP316     -0.2175
     33  C2D       16.8250   28.1140   69.8340 C.3   316  NAP316      0.2309
     34  O2D       15.7900   28.2310   70.8020 O.3   316  NAP316     -0.2158
     35  C1D       17.2110   29.4840   69.3070 C.3   316  NAP316      0.2263
     36  N1N       17.5450   29.4070   67.8630 N.pl3 316  NAP316     -0.2787
     37  C2N       16.6510   29.9110   66.9220 C.3   316  NAP316      0.1244
     38  C3N       16.9600   29.8800   65.5580 C.2   316  NAP316      0.0544
     39  C7N       16.0480   30.5530   64.5370 C.2   316  NAP316      0.2818
     40  O7N       16.2180   30.4160   63.3230 O.2   316  NAP316     -0.2670
     41  N7N       15.1120   31.3540   65.0550 N.am  316  NAP316     -0.0839
     42  C4N       18.1610   29.2930   65.1420 C.2   316  NAP316      0.0033
     43  C5N       19.0560   28.7680   66.0690 C.2   316  NAP316      0.0157
     44  C6N       18.7560   28.8460   67.4280 C.2   316  NAP316      0.0633
     45  P2B       23.9380   21.6140   77.2890 P.3   316  NAP316      0.5328
     46  O1X       22.6150   21.9050   76.6970 O.2   316  NAP316     -0.2224
     47  O2X       24.4110   20.2240   77.1280 O.3   316  NAP316     -0.1145
     48  O3X       24.1350   22.2220   78.6270 O.3   316  NAP316     -0.1145
@<TRIPOS>BOND
     1    40    39    2
     2    39    41   am
     3    39    38    1
     4    42    38    2
     5    42    43    1
     6    38    37    1
     7    43    44    2
     8    37    36    1
     9    44    36    1
    10    36    35    1
    11    26    24    2
    12    35    33    1
    13    35    30    1
    14    33    31    1
    15    33    34    1
    16    30    29    1
    17    24    27    1
    18    24    25    1
    19    24    23    1
    20    31    29    1
    21    31    32    1
    22    27    28    1
    23    29    28    1
    24    23     1    1
    25     2     1    2
    26     1     4    1
    27     1     3    1
    28     4     5    1
    29     5     6    1
    30     6     8    1
    31     6     7    1
    32     9     8    1
    33     8    10    1
    34     7    12    1
    35    10    12    1
    36    10    11    1
    37    12    13    1
    38    11    45    1
    39    46    45    2
    40    47    45    1
    41    13    14    1
    42    13    22    1
    43    45    48    1
    44    14    15    1
    45    22    21    2
    46    22    16    1
    47    21    20    1
    48    15    16    2
    49    16    17    1
    50    20    19    1
    51    19    17    2
    52    17    18    1
