@<TRIPOS>MOLECULE
2iqg_F2I_A_1.pdb
 41 43 0 0 0
SMALL
GASTEIGER

@<TRIPOS>ATOM
      1  N1        14.1920   -4.5720   17.0800 N.am  801  F2I801     -0.2004
      2  C4        13.3380   -3.0420   18.8190 C.ar  801  F2I801      0.0549
      3  C5        12.2580   -2.6510   17.9760 C.ar  801  F2I801      0.0091
      4  C6        10.3290   -1.0910   17.4110 C.2   801  F2I801      0.2490
      5  C7        13.1660   -0.3560   21.5730 C.3   801  F2I801      0.0310
      6  C8        14.1320   -4.2580   18.4430 C.2   801  F2I801      0.2648
      7  C10        8.8970   -3.1020   17.9970 C.3   801  F2I801      0.0937
      8  C13        7.6310   -2.8360   18.8410 C.3   801  F2I801      0.0215
      9  C15       14.8670   -5.7600   16.4890 C.3   801  F2I801      0.1316
     10  C17       13.8420   -6.3180   15.4750 C.3   801  F2I801      0.0508
     11  C20       19.7260   -5.7770   18.2620 C.ar  801  F2I801     -0.0044
     12  C21       19.7350   -5.8040   19.6830 C.ar  801  F2I801     -0.0028
     13  C22       19.9230   -7.0310   20.3770 C.ar  801  F2I801      0.0002
     14  C24       20.0970   -8.2480   18.2390 C.ar  801  F2I801      0.0298
     15  C26       11.2670   -7.6380   18.0700 C.ar  801  F2I801      0.1421
     16  C28       12.5240   -6.6330   16.1800 C.ar  801  F2I801     -0.0159
     17  C         11.4760   -1.5170   18.3050 C.ar  801  F2I801      0.0534
     18  C1        11.7750   -0.7700   19.4800 C.ar  801  F2I801      0.0003
     19  C2        12.8530   -1.1540   20.3280 C.ar  801  F2I801     -0.0216
     20  C3        13.6320   -2.2950   19.9910 C.ar  801  F2I801      0.0003
     21  O         10.3730    0.0410   16.9580 O.2   801  F2I801     -0.2699
     22  N          9.2200   -1.9640   17.1090 N.am  801  F2I801     -0.2761
     23  C9         8.3690   -1.6810   15.9200 C.3   801  F2I801      0.0937
     24  C11        9.1310   -1.7450   14.5810 C.3   801  F2I801      0.0215
     25  C12        9.3600   -3.1860   14.1140 C.3   801  F2I801      0.0018
     26  C14        7.8550   -1.7460   19.9000 C.3   801  F2I801      0.0018
     27  O1        14.6650   -4.9590   19.2940 O.2   801  F2I801     -0.2684
     28  C16       16.2420   -5.4200   15.8810 C.3   801  F2I801      0.1894
     29  C18       17.2040   -4.9860   16.9780 C.3   801  F2I801      0.1237
     30  N2        18.5270   -4.7260   16.4310 N.3   801  F2I801     -0.2105
     31  C19       19.5010   -4.4610   17.4840 C.3   801  F2I801      0.1151
     32  C23       20.1030   -8.2490   19.6600 C.ar  801  F2I801      0.0058
     33  C25       19.9100   -7.0170   17.5460 C.ar  801  F2I801      0.0029
     34  I         20.3510  -10.0460   17.1770 I     801  F2I801     -0.0425
     35  C27       12.4960   -7.3630   17.4160 C.ar  801  F2I801      0.0256
     36  C29       11.3020   -6.1940   15.6250 C.ar  801  F2I801      0.0256
     37  C30       10.0700   -6.4710   16.2770 C.ar  801  F2I801      0.1421
     38  C31       10.0490   -7.1910   17.4990 C.ar  801  F2I801      0.0592
     39  F         11.2630   -8.3060   19.2050 F     801  F2I801     -0.2041
     40  F1         8.9520   -6.0520   15.7440 F     801  F2I801     -0.2041
     41  O2        16.7880   -6.5770   15.3220 O.3   801  F2I801     -0.2197
@<TRIPOS>BOND
     1    25    24    1
     2    24    23    1
     3    41    28    1
     4    10    16    1
     5    10     9    1
     6    36    16   ar
     7    36    37   ar
     8    40    37    1
     9    28     9    1
    10    28    29    1
    11    23    22    1
    12    16    35   ar
    13    37    38   ar
    14    30    29    1
    15    30    31    1
    16     9     1    1
    17    21     4    2
    18     1     6   am
    19    22     4   am
    20    22     7    1
    21    34    14    1
    22     4    17    1
    23    35    15   ar
    24    31    11    1
    25    38    15   ar
    26    33    14   ar
    27    33    11   ar
    28     3    17   ar
    29     3     2   ar
    30     7     8    1
    31    15    39    1
    32    14    32   ar
    33    11    12   ar
    34    17    18   ar
    35     6     2    1
    36     6    27    2
    37     2    20   ar
    38     8    26    1
    39    18    19   ar
    40    32    13   ar
    41    12    13   ar
    42    20    19   ar
    43    19     5    1
