@<TRIPOS>MOLECULE
2irw_NN4_A_1.pdb
 28 31 0 0 0
SMALL
GASTEIGER

@<TRIPOS>ATOM
      1  C4        92.7600   88.5380  277.2660 C.3   911  NN4911      0.0017
      2  C5        92.2280   87.7140  276.1010 C.3   911  NN4911      0.0205
      3  C6        93.0180   86.4190  276.0470 C.3   911  NN4911      0.0104
      4  C7        91.3560   85.3550  277.5770 C.3   911  NN4911      0.0104
      5  C8        91.0830   87.4960  278.7710 C.3   911  NN4911      0.0017
      6  C10       90.5650   86.6500  277.6160 C.3   911  NN4911      0.0205
      7  C15       89.1650   88.8470  275.1610 C.2   911  NN4911      0.2775
      8  C20       86.9160   89.7660  274.7510 C.3   911  NN4911      0.0532
      9  C21       88.2490   91.4400  277.3100 C.ar  911  NN4911      0.1391
     10  C22       89.5060   91.9180  277.6010 C.ar  911  NN4911      0.0400
     11  C24       88.5290   93.9450  278.3480 C.ar  911  NN4911      0.1389
     12  C26       87.1270   92.1970  277.5470 C.ar  911  NN4911      0.0400
     13  C28       89.9310   95.7240  278.6510 C.3   911  NN4911      0.2525
     14  O17       89.1670   88.1840  274.1310 O.2   911  NN4911     -0.2696
     15  N11       89.9790   88.6000  276.2370 N.am  911  NN4911     -0.2043
     16  C9        90.7530   87.3910  276.2930 C.3   911  NN4911      0.0953
     17  C3        92.5670   87.7920  278.5790 C.3   911  NN4911      0.0006
     18  C2        93.3520   86.4930  278.5060 C.3   911  NN4911      0.0087
     19  C1        92.8320   85.6600  277.3480 C.3   911  NN4911      0.0722
     20  C12       93.6460   84.4080  277.2230 C.2   911  NN4911      0.2598
     21  O14       94.8680   84.4210  277.2590 O.2   911  NN4911     -0.2717
     22  N13       92.9050   83.2640  277.0490 N.am  911  NN4911     -0.0878
     23  C16       88.2710   90.0450  275.3680 C.3   911  NN4911      0.2023
     24  C19       88.9630   91.2120  274.6870 C.3   911  NN4911      0.0532
     25  O18       88.0910   90.1610  276.7950 O.3   911  NN4911     -0.4739
     26  C25       87.2690   93.4610  278.0700 C.ar  911  NN4911      0.0400
     27  O27       88.6180   95.2280  278.8750 O.3   911  NN4911     -0.4714
     28  C23       89.6530   93.1810  278.1200 C.ar  911  NN4911      0.0400
@<TRIPOS>BOND
     1    14     7    2
     2    24    23    1
     3     8    23    1
     4     7    23    1
     5     7    15   am
     6    23    25    1
     7     3     2    1
     8     3    19    1
     9     2    16    1
    10     2     1    1
    11    15    16    1
    12    16     6    1
    13    25     9    1
    14    22    20   am
    15    20    21    2
    16    20    19    1
    17     1    17    1
    18     9    12   ar
    19     9    10   ar
    20    19     4    1
    21    19    18    1
    22    12    26   ar
    23     4     6    1
    24    10    28   ar
    25     6     5    1
    26    26    11   ar
    27    28    11   ar
    28    11    27    1
    29    18    17    1
    30    17     5    1
    31    13    27    1
