@<TRIPOS>MOLECULE
2irw_NAP_A_1.pdb
 48 52 0 0 0
SMALL
GASTEIGER

@<TRIPOS>ATOM
      1  PA        93.4790   79.0510  276.9220 P.3   901  NAP901      0.2189
      2  O1A       94.6230   79.7870  277.5090 O.2   901  NAP901     -0.5170
      3  O2A       92.6070   78.3950  277.9330 O.3   901  NAP901     -0.4371
      4  O5B       94.0090   77.9320  275.9130 O.3   901  NAP901     -0.3112
      5  C5B       94.9550   78.2650  274.9360 C.3   901  NAP901      0.1813
      6  C4B       95.4890   76.9780  274.3300 C.3   901  NAP901      0.1820
      7  O4B       96.6030   77.3150  273.5300 O.3   901  NAP901     -0.3136
      8  C3B       95.9590   75.9700  275.3750 C.3   901  NAP901      0.2157
      9  O3B       95.5320   74.6640  275.0640 O.3   901  NAP901     -0.2175
     10  C2B       97.4670   76.0520  275.2990 C.3   901  NAP901      0.2314
     11  O2B       98.0840   74.8140  275.5320 O.3   901  NAP901     -0.2630
     12  C1B       97.7200   76.5270  273.8830 C.3   901  NAP901      0.3158
     13  N9A       98.9790   77.2840  273.7640 N.pl3 901  NAP901     -0.1439
     14  C8A       99.3940   78.3660  274.4970 C.3   901  NAP901      0.3377
     15  N7A      100.6130   78.7400  274.0380 N.2   901  NAP901     -0.2095
     16  C5A      100.9750   77.9150  273.0220 C.2   901  NAP901      0.2526
     17  C6A      102.1030   77.8380  272.2120 C.2   901  NAP901      0.4393
     18  N6A      103.1090   78.6930  272.3500 N.pl3 901  NAP901      0.2180
     19  N1A      102.1810   76.8590  271.2570 N.2   901  NAP901      0.0021
     20  C2A      101.1470   75.9630  271.0930 C.3   901  NAP901      0.5254
     21  N3A      100.0290   76.0370  271.8890 N.2   901  NAP901     -0.0055
     22  C4A       99.9500   76.9960  272.8430 C.2   901  NAP901      0.3518
     23  O3        92.6170   80.0590  276.0150 O.3   901  NAP901     -0.2703
     24  PN        91.0410   80.0300  275.6870 P.3   901  NAP901      0.2189
     25  O1N       90.3880   80.9100  276.6790 O.3   901  NAP901     -0.4371
     26  O2N       90.6120   78.6210  275.5080 O.2   901  NAP901     -0.5170
     27  O5D       90.9500   80.7940  274.2720 O.3   901  NAP901     -0.3112
     28  C5D       90.9920   80.0930  273.0510 C.3   901  NAP901      0.1813
     29  C4D       90.7620   81.0760  271.9070 C.3   901  NAP901      0.1799
     30  O4D       89.6050   81.8620  272.1210 O.3   901  NAP901     -0.3327
     31  C3D       91.9210   82.0360  271.7600 C.3   901  NAP901      0.2158
     32  O3D       92.2670   82.0410  270.4020 O.3   901  NAP901     -0.2175
     33  C2D       91.3720   83.3880  272.1430 C.3   901  NAP901      0.2309
     34  O2D       91.9160   84.3880  271.3170 O.3   901  NAP901     -0.2158
     35  C1D       89.8790   83.2300  271.9170 C.3   901  NAP901      0.2263
     36  N1N       89.0980   84.0470  272.8520 N.pl3 901  NAP901     -0.2787
     37  C2N       89.1290   83.7820  274.1920 C.3   901  NAP901      0.1244
     38  C3N       88.3830   84.5690  275.0670 C.2   901  NAP901      0.0544
     39  C7N       88.0980   84.0480  276.4370 C.2   901  NAP901      0.2818
     40  O7N       87.1600   84.7280  277.2330 O.2   901  NAP901     -0.2670
     41  N7N       88.7400   82.9630  276.8590 N.am  901  NAP901     -0.0839
     42  C4N       87.6130   85.6230  274.5740 C.2   901  NAP901      0.0033
     43  C5N       87.5920   85.8780  273.2080 C.2   901  NAP901      0.0157
     44  C6N       88.3460   85.0750  272.3580 C.2   901  NAP901      0.0633
     45  P2B       99.5400   74.7640  276.2040 P.3   901  NAP901      0.5328
     46  O1X       99.7350   76.0080  277.0300 O.3   901  NAP901     -0.1145
     47  O2X       99.6420   73.5190  277.0560 O.3   901  NAP901     -0.1145
     48  O3X      100.5730   74.7400  275.1230 O.2   901  NAP901     -0.2224
@<TRIPOS>BOND
     1    32    31    1
     2    20    19    1
     3    20    21    1
     4    19    17    2
     5    34    33    1
     6    31    29    1
     7    31    33    1
     8    21    22    2
     9    29    30    1
    10    29    28    1
    11    35    30    1
    12    35    33    1
    13    35    36    1
    14    17    18    1
    15    17    16    1
    16    44    36    1
    17    44    43    2
    18    22    16    1
    19    22    13    1
    20    36    37    1
    21    16    15    2
    22    28    27    1
    23    43    42    1
    24     7    12    1
    25     7     6    1
    26    13    12    1
    27    13    14    1
    28    12    10    1
    29    15    14    1
    30    37    38    1
    31    27    24    1
    32     6     5    1
    33     6     8    1
    34    42    38    2
    35     5     4    1
    36     9     8    1
    37    38    39    1
    38    48    45    2
    39    10     8    1
    40    10    11    1
    41    26    24    2
    42    11    45    1
    43    24    23    1
    44    24    25    1
    45     4     1    1
    46    23     1    1
    47    45    46    1
    48    45    47    1
    49    39    41   am
    50    39    40    2
    51     1     2    2
    52     1     3    1
