@<TRIPOS>MOLECULE
2irx_GTP_A_1.pdb
 32 34 0 0 0
SMALL
GASTEIGER

@<TRIPOS>ATOM
      1  PG        24.2290   35.6540   13.9700 P.3   305  GTP305      0.5373
      2  O1G       22.8830   36.0990   14.3990 O.3   305  GTP305     -0.1143
      3  O2G       25.2440   36.7730   14.0770 O.2   305  GTP305     -0.2221
      4  O3G       24.6700   34.4060   14.6850 O.3   305  GTP305     -0.1143
      5  O3B       24.0190   35.1970   12.4240 O.3   305  GTP305     -0.2258
      6  PB        24.4080   35.9730   11.0760 P.3   305  GTP305      0.2277
      7  O1B       24.2730   37.4550   11.2100 O.3   305  GTP305     -0.4368
      8  O2B       23.5540   35.4870    9.9700 O.2   305  GTP305     -0.5168
      9  O3A       25.9670   35.6600   10.9660 O.3   305  GTP305     -0.2700
     10  PA        26.8290   34.7110    9.9910 P.3   305  GTP305      0.2189
     11  O1A       26.0040   33.5720    9.4510 O.2   305  GTP305     -0.5170
     12  O2A       28.0090   34.2870   10.8340 O.3   305  GTP305     -0.4371
     13  O5'       27.2850   35.6880    8.8210 O.3   305  GTP305     -0.3112
     14  C5'       28.0060   36.9040    9.0560 C.3   305  GTP305      0.1813
     15  C4'       28.5950   37.4100    7.7320 C.3   305  GTP305      0.1799
     16  O4'       29.4530   36.4620    7.0970 O.3   305  GTP305     -0.3326
     17  C3'       27.5180   37.7250    6.7110 C.3   305  GTP305      0.2158
     18  O3'       28.0520   38.7710    5.9440 O.3   305  GTP305     -0.2175
     19  C2'       27.4380   36.4520    5.8540 C.3   305  GTP305      0.2310
     20  O2'       26.9380   36.5620    4.5280 O.3   305  GTP305     -0.2158
     21  C1'       28.8840   35.9840    5.8640 C.3   305  GTP305      0.2293
     22  N9        29.1440   34.5380    5.9730 N.pl3 305  GTP305     -0.2354
     23  C8        28.4470   33.5720    6.6550 C.3   305  GTP305      0.2246
     24  N7        29.1330   32.4150    6.5270 N.2   305  GTP305     -0.2322
     25  C5        30.2660   32.6510    5.8130 C.2   305  GTP305      0.2182
     26  C6        31.3290   31.8300    5.4140 C.1   305  GTP305      0.2372
     27  O6        31.3380   30.6290    5.6980 O.2   305  GTP305     -0.2069
     28  N1        32.3810   32.3910    4.6940 N.2   305  GTP305     -0.2485
     29  C2        32.3900   33.7370    4.3670 C.1   305  GTP305      0.2531
     30  N2        33.4050   34.2450    3.6540 N.pl3 305  GTP305     -0.0226
     31  N3        31.3250   34.5480    4.7620 N.2   305  GTP305     -0.3074
     32  C4        30.2860   33.9950    5.4770 C.2   305  GTP305      0.2300
@<TRIPOS>BOND
     1    30    29    1
     2    29    28    2
     3    29    31    2
     4    20    19    1
     5    28    26    2
     6    31    32    2
     7    26    27    2
     8    26    25    1
     9    32    25    1
    10    32    22    1
    11    25    24    2
    12    19    21    1
    13    19    17    1
    14    21    22    1
    15    21    16    1
    16    18    17    1
    17    22    23    1
    18    24    23    1
    19    17    15    1
    20    16    15    1
    21    15    14    1
    22    13    14    1
    23    13    10    1
    24    11    10    2
    25     8     6    2
    26    10    12    1
    27    10     9    1
    28     9     6    1
    29     6     7    1
    30     6     5    1
    31     5     1    1
    32     1     3    2
    33     1     2    1
    34     1     4    1
