@<TRIPOS>MOLECULE
2iry_DGT_A_1.pdb
 31 33 0 0 0
SMALL
GASTEIGER

@<TRIPOS>ATOM
      1  PG        -5.7590   34.7260   39.8820 P.3   1102  DGT1102     0.5373
      2  O1G       -5.8250   35.9400   40.7710 O.3   1102  DGT1102    -0.1143
      3  O2G       -6.9440   33.8050   40.0860 O.3   1102  DGT1102    -0.1143
      4  O3G       -4.4070   34.0450   39.9070 O.2   1102  DGT1102    -0.2221
      5  O3B       -5.8610   35.3150   38.3670 O.3   1102  DGT1102    -0.2258
      6  PB        -6.0630   34.4410   37.0110 P.3   1102  DGT1102     0.2277
      7  O1B       -5.1900   35.0210   35.9280 O.2   1102  DGT1102    -0.5168
      8  O2B       -5.9600   32.9570   37.2710 O.3   1102  DGT1102    -0.4368
      9  O3A       -7.6160   34.7370   36.6300 O.3   1102  DGT1102    -0.2700
     10  PA        -8.1420   36.2090   36.2100 P.3   1102  DGT1102     0.2189
     11  O1A       -9.6530   36.2310   36.2430 O.2   1102  DGT1102    -0.5170
     12  O2A       -7.4180   37.2310   37.0600 O.3   1102  DGT1102    -0.4371
     13  O5'       -7.6610   36.3070   34.6570 O.3   1102  DGT1102    -0.3112
     14  C5'       -8.1850   35.4350   33.6360 C.3   1102  DGT1102     0.1812
     15  C4'       -9.6160   34.9730   33.9240 C.3   1102  DGT1102     0.1772
     16  O4'      -10.5670   35.7500   33.1900 O.3   1102  DGT1102    -0.3347
     17  C3'       -9.8830   33.5150   33.6020 C.3   1102  DGT1102     0.1857
     18  O3'       -9.7890   32.7370   34.7950 O.3   1102  DGT1102    -0.2203
     19  C2'      -11.2990   33.4850   33.0550 C.3   1102  DGT1102     0.0865
     20  C1'      -11.6290   34.9340   32.7050 C.3   1102  DGT1102     0.1981
     21  N9       -11.6940   35.1390   31.2390 N.pl3 1102  DGT1102    -0.2374
     22  C8       -10.8490   34.6070   30.3380 C.3   1102  DGT1102     0.2245
     23  N7       -11.1530   34.9790   29.0730 N.2   1102  DGT1102    -0.2322
     24  C5       -12.2270   35.7790   29.1590 C.2   1102  DGT1102     0.2182
     25  C6       -13.0610   36.5250   28.1900 C.1   1102  DGT1102     0.2372
     26  O6       -12.7940   36.4610   26.9770 O.2   1102  DGT1102    -0.2069
     27  N1       -14.0900   37.2540   28.6560 N.2   1102  DGT1102    -0.2485
     28  C2       -14.3780   37.3180   29.9780 C.1   1102  DGT1102     0.2531
     29  N2       -15.4260   38.0760   30.3770 N.pl3 1102  DGT1102    -0.0226
     30  N3       -13.6500   36.6640   30.9300 N.2   1102  DGT1102    -0.3074
     31  C4       -12.5840   35.8920   30.5850 C.2   1102  DGT1102     0.2299
@<TRIPOS>BOND
     1    26    25    2
     2    25    27    2
     3    25    24    1
     4    27    28    2
     5    23    24    2
     6    23    22    1
     7    24    31    1
     8    28    29    1
     9    28    30    2
    10    22    21    1
    11    31    30    2
    12    31    21    1
    13    21    20    1
    14    20    19    1
    15    20    16    1
    16    19    17    1
    17    16    15    1
    18    17    15    1
    19    17    18    1
    20    14    15    1
    21    14    13    1
    22    13    10    1
    23     7     6    2
    24    10    11    2
    25    10     9    1
    26    10    12    1
    27     9     6    1
    28     6     8    1
    29     6     5    1
    30     5     1    1
    31     1     4    2
    32     1     3    1
    33     1     2    1
