@<TRIPOS>MOLECULE
2irz_I02_A_1.pdb
 39 42 0 0 0
SMALL
GASTEIGER

@<TRIPOS>ATOM
      1  C1        32.2250   44.6480    6.2300 C.ar  386  I02386     -0.0003
      2  C2        32.4960   45.6210    5.1500 C.ar  386  I02386     -0.0024
      3  C3        32.3750   47.0640    5.2950 C.ar  386  I02386     -0.0003
      4  C4        32.0100   47.5830    6.5810 C.ar  386  I02386      0.0294
      5  C5        31.7670   46.6240    7.6340 C.ar  386  I02386      0.1401
      6  C6        31.8460   45.1800    7.5050 C.ar  386  I02386      0.0294
      7  C7        32.9070   45.2060    3.7920 C.3   386  I02386      0.1178
      8  N1        31.8570   44.4580    3.1170 N.am  386  I02386     -0.1989
      9  C8        31.1640   44.9150    2.0360 C.2   386  I02386      0.2651
     10  C9        30.1390   43.9950    1.5190 C.ar  386  I02386      0.0565
     11  C10       30.3300   42.5780    1.5080 C.ar  386  I02386      0.0093
     12  C11       29.3090   41.6960    1.0440 C.ar  386  I02386      0.0565
     13  C12       28.0700   42.2110    0.5890 C.ar  386  I02386      0.0208
     14  C13       27.8380   43.6310    0.5820 C.ar  386  I02386      0.0688
     15  C14       28.8950   44.5180    1.0300 C.ar  386  I02386      0.0207
     16  N2        26.5780   44.0580    0.2130 N.pl3 386  I02386     -0.1925
     17  S1        25.7940   45.1940    1.0460 S.O2  386  I02386      0.0588
     18  C15       26.1490   46.8010    0.3190 C.3   386  I02386      0.1999
     19  C16       25.9560   43.5940   -1.0430 C.3   386  I02386      0.1388
     20  O1        31.3600   46.0200    1.5280 O.2   386  I02386     -0.2684
     21  O2        26.3340   45.2180    2.3670 O.2   386  I02386     -0.1542
     22  O3        24.4010   44.8890    0.8770 O.2   386  I02386     -0.1542
     23  C17       34.1930   44.3400    3.8480 C.3   386  I02386      0.0283
     24  F1        31.4540   47.1260    8.8350 F     386  I02386     -0.2042
     25  C20       31.4460   37.7650    2.7430 C.3   386  I02386      0.1506
     26  N3        31.4040   38.5060    4.0150 N.3   386  I02386     -0.1245
     27  C21       30.9600   36.3270    2.9700 C.3   386  I02386      0.0289
     28  C22       32.8420   37.7650    2.1020 C.3   386  I02386      0.0530
     29  C23       34.4060   41.6550    0.8990 C.ar  386  I02386     -0.0000
     30  C24       33.6140   40.8970   -0.0570 C.ar  386  I02386     -0.0003
     31  C25       33.1030   39.6010    0.3350 C.ar  386  I02386     -0.0042
     32  C26       33.4030   39.1090    1.6870 C.ar  386  I02386     -0.0203
     33  C27       34.2080   39.8700    2.6390 C.ar  386  I02386     -0.0042
     34  C28       34.7130   41.1720    2.2390 C.ar  386  I02386     -0.0003
     35  N35       29.6650   38.1620    0.8410 N.ar  386  I02386     -0.1099
     36  N4        29.1190   39.2390    0.4160 N.ar  386  I02386     -0.1072
     37  C29       29.5970   40.2920    1.1370 C.ar  386  I02386      0.2497
     38  O4        30.4020   39.7890    2.0290 O.2   386  I02386     -0.4181
     39  C30       30.4790   38.4870    1.8630 C.ar  386  I02386      0.2421
@<TRIPOS>BOND
     1    19    16    1
     2    30    31   ar
     3    30    29   ar
     4    16    14    1
     5    16    17    1
     6    18    17    1
     7    31    32   ar
     8    36    35   ar
     9    36    37   ar
    10    14    13   ar
    11    14    15   ar
    12    13    12   ar
    13    35    39   ar
    14    22    17    2
    15    29    34   ar
    16    15    10   ar
    17    12    37    1
    18    12    11   ar
    19    17    21    2
    20    37    38   ar
    21    11    10   ar
    22    10     9    1
    23    20     9    2
    24    32    28    1
    25    32    33   ar
    26    39    38   ar
    27    39    25    1
    28     9     8   am
    29    28    25    1
    30    34    33   ar
    31    25    27    1
    32    25    26    1
    33     8     7    1
    34     7    23    1
    35     7     2    1
    36     2     3   ar
    37     2     1   ar
    38     3     4   ar
    39     1     6   ar
    40     4     5   ar
    41     6     5   ar
    42     5    24    1
