@<TRIPOS>MOLECULE
2is0_I03_A_1.pdb
 39 41 0 0 0
SMALL
GASTEIGER

@<TRIPOS>ATOM
      1  C1        32.2120   44.6970    6.2880 C.ar  386  I03386     -0.0003
      2  C2        32.5680   45.5980    5.1870 C.ar  386  I03386     -0.0024
      3  C3        32.5130   47.0440    5.2780 C.ar  386  I03386     -0.0003
      4  C4        32.1020   47.6220    6.5340 C.ar  386  I03386      0.0294
      5  C5        31.8440   46.7160    7.6250 C.ar  386  I03386      0.1401
      6  C6        31.8920   45.2720    7.5480 C.ar  386  I03386      0.0294
      7  C7        33.0420   45.0360    3.8750 C.3   386  I03386      0.1178
      8  N1        32.0340   44.2360    3.1800 N.am  386  I03386     -0.1989
      9  C8        31.2980   44.6760    2.1100 C.2   386  I03386      0.2651
     10  C9        30.2940   43.7250    1.5460 C.ar  386  I03386      0.0565
     11  C10       30.4610   42.2830    1.4070 C.ar  386  I03386      0.0111
     12  C11       29.3610   41.4750    0.9070 C.ar  386  I03386      0.0771
     13  C12       28.1300   42.0850    0.5790 C.ar  386  I03386      0.0226
     14  C13       27.9380   43.4900    0.6760 C.ar  386  I03386      0.0689
     15  C14       29.0370   44.2950    1.1570 C.ar  386  I03386      0.0207
     16  N2        26.7020   43.9860    0.2950 N.pl3 386  I03386     -0.1925
     17  S1        25.9190   45.1560    1.1060 S.O2  386  I03386      0.0588
     18  C15       26.2010   46.7160    0.2850 C.3   386  I03386      0.1999
     19  C16       26.0660   43.6160   -0.9820 C.3   386  I03386      0.1388
     20  O1        31.4640   45.8050    1.6560 O.2   386  I03386     -0.2684
     21  O2        26.4930   45.2170    2.4100 O.2   386  I03386     -0.1542
     22  O3        24.5350   44.8250    0.9440 O.2   386  I03386     -0.1542
     23  C17       34.3150   44.1500    4.0690 C.3   386  I03386      0.0283
     24  F1        31.5540   47.2300    8.8200 F     386  I03386     -0.2042
     25  C18       29.4230   40.0400    0.6400 C.2   386  I03386      0.3413
     26  O4        30.2830   39.4230    1.4720 O.3   386  I03386     -0.4438
     27  O5        28.7810   39.4840   -0.1960 O.2   386  I03386     -0.2449
     28  C19       30.4240   37.9460    1.5350 C.3   386  I03386      0.2290
     29  C20       31.5390   37.6370    2.4940 C.3   386  I03386      0.1516
     30  N3        31.3970   38.4940    3.6730 N.3   386  I03386     -0.1275
     31  C21       31.2340   36.2150    2.8920 C.3   386  I03386      0.2035
     32  C22       32.9490   37.8260    1.9000 C.3   386  I03386      0.0503
     33  C23       34.5490   41.7140    0.7390 C.ar  386  I03386     -0.0000
     34  C24       33.6730   41.0130   -0.1910 C.ar  386  I03386     -0.0003
     35  C25       33.0920   39.7490    0.2100 C.ar  386  I03386     -0.0042
     36  C26       33.4200   39.2130    1.5340 C.ar  386  I03386     -0.0206
     37  C27       34.2500   39.9410    2.4860 C.ar  386  I03386     -0.0042
     38  C28       34.8360   41.2100    2.0780 C.ar  386  I03386     -0.0003
     39  O6        32.0390   35.8570    3.8430 O.3   386  I03386     -0.2187
@<TRIPOS>BOND
     1    19    16    1
     2    27    25    2
     3    34    35   ar
     4    34    33   ar
     5    35    36   ar
     6    18    17    1
     7    16    14    1
     8    16    17    1
     9    13    14   ar
    10    13    12   ar
    11    25    12    1
    12    25    26    1
    13    14    15   ar
    14    33    38   ar
    15    12    11   ar
    16    22    17    2
    17    17    21    2
    18    15    10   ar
    19    11    10   ar
    20    26    28    1
    21    36    32    1
    22    36    37   ar
    23    28    29    1
    24    10     9    1
    25    20     9    2
    26    32    29    1
    27    38    37   ar
    28     9     8   am
    29    29    31    1
    30    29    30    1
    31    31    39    1
    32     8     7    1
    33     7    23    1
    34     7     2    1
    35     2     3   ar
    36     2     1   ar
    37     3     4   ar
    38     1     6   ar
    39     4     5   ar
    40     6     5   ar
    41     5    24    1
