@<TRIPOS>MOLECULE
2is4_ANP_A_1.pdb
 31 33 0 0 0
SMALL
GASTEIGER

@<TRIPOS>ATOM
      1  PG        94.1970   -3.1880  -40.0740 P.3   700  ANP700      0.4884
      2  O1G       93.9970   -4.6810  -40.8190 O.2   700  ANP700     -0.2331
      3  O2G       92.9280   -2.2910  -40.4140 O.3   700  ANP700     -0.1240
      4  O3G       94.4180   -3.3960  -38.6470 O.3   700  ANP700     -0.1240
      5  PB        95.8310   -1.6940  -42.1420 P.3   700  ANP700      0.4669
      6  O1B       94.5890   -1.0790  -42.6170 O.3   700  ANP700     -0.1253
      7  O2B       96.5590   -2.6360  -42.9940 O.2   700  ANP700     -0.2351
      8  N3B       95.5050   -2.4590  -40.6820 N.3   700  ANP700     -0.0163
      9  PA        96.9200    0.9370  -41.9170 P.3   700  ANP700      0.2220
     10  O1A       96.6880    1.3500  -43.2750 O.2   700  ANP700     -0.5170
     11  O2A       95.9760    1.4430  -40.9530 O.3   700  ANP700     -0.4370
     12  O3A       96.9630   -0.6610  -41.8270 O.3   700  ANP700     -0.2360
     13  O5'       98.3190    1.3600  -41.4920 O.3   700  ANP700     -0.3111
     14  C5'       98.9850    1.1740  -40.2480 C.3   700  ANP700      0.1813
     15  C4'       99.9030    2.3830  -39.9660 C.3   700  ANP700      0.1821
     16  O4'      101.0050    2.4190  -40.8340 O.3   700  ANP700     -0.3135
     17  C3'       99.2650    3.7490  -40.1590 C.3   700  ANP700      0.2184
     18  O3'       99.7770    4.5520  -39.0340 O.3   700  ANP700     -0.2174
     19  C2'       99.7350    4.2300  -41.4980 C.3   700  ANP700      0.2570
     20  O2'       99.6250    5.6180  -41.5560 O.3   700  ANP700     -0.2130
     21  C1'      101.0820    3.6800  -41.5410 C.3   700  ANP700      0.3186
     22  N9       101.6490    3.2670  -42.8390 N.pl3 700  ANP700     -0.1439
     23  C8       101.1530    2.4040  -43.7540 C.3   700  ANP700      0.3377
     24  N7       101.9690    2.2860  -44.8050 N.2   700  ANP700     -0.2095
     25  C5       103.0040    3.0530  -44.5800 C.2   700  ANP700      0.2526
     26  C6       104.2730    3.4290  -45.2930 C.2   700  ANP700      0.4393
     27  N6       104.5720    2.9050  -46.4590 N.pl3 700  ANP700      0.2180
     28  N1       105.1720    4.3380  -44.6920 N.2   700  ANP700      0.0021
     29  C2       104.9060    4.9120  -43.4660 C.3   700  ANP700      0.5254
     30  N3       103.7490    4.6170  -42.7610 N.2   700  ANP700     -0.0055
     31  C4       102.7890    3.7180  -43.2610 C.2   700  ANP700      0.3518
@<TRIPOS>BOND
     1    27    26    1
     2    26    28    2
     3    26    25    1
     4    24    25    2
     5    24    23    1
     6    28    29    1
     7    25    31    1
     8    23    22    1
     9    29    30    1
    10    10     9    2
    11    31    22    1
    12    31    30    2
    13     7     5    2
    14    22    21    1
    15     6     5    1
    16     5    12    1
    17     5     8    1
    18     9    12    1
    19     9    13    1
    20     9    11    1
    21    20    19    1
    22    21    19    1
    23    21    16    1
    24    19    17    1
    25    13    14    1
    26    16    15    1
    27     2     1    2
    28     8     1    1
    29     3     1    1
    30    14    15    1
    31    17    15    1
    32    17    18    1
    33     1     4    1
