@<TRIPOS>MOLECULE
2is6_ADP_A_1.pdb
 27 29 0 0 0
SMALL
GASTEIGER

@<TRIPOS>ATOM
      1  PB        -5.4180    3.2660   28.6380 P.3   700  ADP700      0.5373
      2  O1B       -4.0570    3.3960   29.1930 O.3   700  ADP700     -0.1143
      3  O2B       -6.3350    2.3610   29.2700 O.3   700  ADP700     -0.1143
      4  O3B       -5.2610    3.0260   27.0100 O.2   700  ADP700     -0.2221
      5  PA        -5.6090    6.1160   29.2420 P.3   700  ADP700      0.2231
      6  O1A       -4.8710    6.1490   30.5020 O.3   700  ADP700     -0.4370
      7  O2A       -4.4800    6.6010   28.3470 O.2   700  ADP700     -0.5169
      8  O3A       -6.1390    4.6850   28.7330 O.3   700  ADP700     -0.2261
      9  O5'       -6.9710    6.9360   29.0520 O.3   700  ADP700     -0.3111
     10  C5'       -7.2620    7.6940   27.7890 C.3   700  ADP700      0.1813
     11  C4'       -7.7100    9.1390   28.0240 C.3   700  ADP700      0.1821
     12  O4'       -8.7700    9.3080   29.0280 O.3   700  ADP700     -0.3135
     13  C3'       -6.6480    9.9690   28.5640 C.3   700  ADP700      0.2184
     14  O3'       -6.6850   11.2050   27.8410 O.3   700  ADP700     -0.2174
     15  C2'       -6.9410   10.1240   30.0510 C.3   700  ADP700      0.2570
     16  O2'       -6.3030   11.2540   30.6150 O.3   700  ADP700     -0.2130
     17  C1'       -8.3930   10.1600   30.0980 C.3   700  ADP700      0.3186
     18  N9        -9.0510    9.5410   31.3060 N.pl3 700  ADP700     -0.1439
     19  C8        -8.8080    8.3210   31.9400 C.3   700  ADP700      0.3377
     20  N7        -9.6310    8.1680   32.9950 N.2   700  ADP700     -0.2095
     21  C5       -10.4110    9.2270   33.0940 C.2   700  ADP700      0.2526
     22  C6       -11.5330    9.6720   34.0540 C.2   700  ADP700      0.4393
     23  N6       -11.8540    8.8740   35.0200 N.pl3 700  ADP700      0.2180
     24  N1       -12.0770   10.9450   33.7230 N.2   700  ADP700      0.0021
     25  C2       -11.6830   11.8050   32.6280 C.3   700  ADP700      0.5254
     26  N3       -10.6590   11.4160   31.7410 N.2   700  ADP700     -0.0055
     27  C4       -10.0140   10.1620   31.9440 C.2   700  ADP700      0.3518
@<TRIPOS>BOND
     1     4     1    2
     2    10    11    1
     3    10     9    1
     4    14    13    1
     5    11    13    1
     6    11    12    1
     7     7     5    2
     8    13    15    1
     9     1     8    1
    10     1     2    1
    11     1     3    1
    12     8     5    1
    13    12    17    1
    14     9     5    1
    15     5     6    1
    16    15    17    1
    17    15    16    1
    18    17    18    1
    19    18    19    1
    20    18    27    1
    21    26    27    2
    22    26    25    1
    23    19    20    1
    24    27    21    1
    25    25    24    1
    26    20    21    2
    27    21    22    1
    28    24    22    2
    29    22    23    1
