@<TRIPOS>MOLECULE
2is7_NAP_A_1.pdb
 48 52 0 0 0
SMALL
GASTEIGER

@<TRIPOS>ATOM
      1  PA        23.4640   28.2770   72.2450 P.3   316  NAP316      0.2189
      2  O1A       24.3740   29.3450   71.7580 O.2   316  NAP316     -0.5170
      3  O2A       22.4590   28.7190   73.2000 O.3   316  NAP316     -0.4371
      4  O5B       24.3930   27.0850   72.8190 O.3   316  NAP316     -0.3112
      5  C5B       23.8320   25.8850   73.3100 C.3   316  NAP316      0.1813
      6  C4B       24.9770   24.9760   73.7570 C.3   316  NAP316      0.1820
      7  O4B       25.7140   25.6210   74.7930 O.3   316  NAP316     -0.3136
      8  C3B       24.4890   23.6390   74.2900 C.3   316  NAP316      0.2157
      9  O3B       25.3820   22.6190   73.8600 O.3   316  NAP316     -0.2175
     10  C2B       24.5770   23.8000   75.7890 C.3   316  NAP316      0.2314
     11  O2B       24.9100   22.5820   76.4390 O.3   316  NAP316     -0.2630
     12  C1B       25.7320   24.7760   75.9410 C.3   316  NAP316      0.3158
     13  N9A       25.6460   25.5880   77.1640 N.pl3 316  NAP316     -0.1439
     14  C8A       24.5480   26.2610   77.6490 C.3   316  NAP316      0.3377
     15  N7A       24.9190   26.9100   78.7800 N.2   316  NAP316     -0.2095
     16  C5A       26.2390   26.6650   79.0060 C.2   316  NAP316      0.2526
     17  C6A       27.1230   27.0690   80.0090 C.2   316  NAP316      0.4393
     18  N6A       26.6920   27.8570   81.0050 N.pl3 316  NAP316      0.2180
     19  N1A       28.4400   26.6450   79.9750 N.2   316  NAP316      0.0021
     20  C2A       28.8890   25.8150   78.9450 C.3   316  NAP316      0.5254
     21  N3A       28.0050   25.4230   77.9550 N.2   316  NAP316     -0.0055
     22  C4A       26.7030   25.8370   77.9920 C.2   316  NAP316      0.3518
     23  O3        22.8100   27.4690   70.9960 O.3   316  NAP316     -0.2703
     24  PN        21.4520   27.4610   70.1470 P.3   316  NAP316      0.2189
     25  O1N       20.6010   26.3510   70.6120 O.3   316  NAP316     -0.4371
     26  O2N       21.8910   27.4400   68.7210 O.2   316  NAP316     -0.5170
     27  O5D       20.7520   28.9030   70.3120 O.3   316  NAP316     -0.3112
     28  C5D       19.9180   29.1610   71.4350 C.3   316  NAP316      0.1813
     29  C4D       18.4430   29.0640   71.0480 C.3   316  NAP316      0.1799
     30  O4D       18.1320   30.0430   70.0660 O.3   316  NAP316     -0.3327
     31  C3D       17.9620   27.7650   70.3990 C.3   316  NAP316      0.2158
     32  O3D       17.8380   26.6670   71.2730 O.3   316  NAP316     -0.2175
     33  C2D       16.6420   28.2140   69.8060 C.3   316  NAP316      0.2309
     34  O2D       15.6980   28.2780   70.8460 O.3   316  NAP316     -0.2158
     35  C1D       17.0200   29.6080   69.2910 C.3   316  NAP316      0.2263
     36  N1N       17.4140   29.5260   67.8470 N.pl3 316  NAP316     -0.2787
     37  C2N       16.6190   30.1050   66.9160 C.3   316  NAP316      0.1244
     38  C3N       16.9670   30.0390   65.5640 C.2   316  NAP316      0.0544
     39  C7N       16.0680   30.6680   64.5470 C.2   316  NAP316      0.2818
     40  O7N       16.2680   30.3040   63.2330 O.2   316  NAP316     -0.2670
     41  N7N       15.1390   31.5460   64.9130 N.am  316  NAP316     -0.0839
     42  C4N       18.1250   29.3950   65.1560 C.2   316  NAP316      0.0033
     43  C5N       18.9580   28.8180   66.1210 C.2   316  NAP316      0.0157
     44  C6N       18.5780   28.9110   67.4660 C.2   316  NAP316      0.0633
     45  P2B       23.8100   21.7030   77.2110 P.3   316  NAP316      0.5328
     46  O1X       22.4420   21.8710   76.6270 O.2   316  NAP316     -0.2224
     47  O2X       24.3660   20.2980   77.0730 O.3   316  NAP316     -0.1145
     48  O3X       23.8030   22.0840   78.6810 O.3   316  NAP316     -0.1145
@<TRIPOS>BOND
     1    40    39    2
     2    39    41   am
     3    39    38    1
     4    42    38    2
     5    42    43    1
     6    38    37    1
     7    43    44    2
     8    37    36    1
     9    44    36    1
    10    36    35    1
    11    26    24    2
    12    35    33    1
    13    35    30    1
    14    33    31    1
    15    33    34    1
    16    30    29    1
    17    24    27    1
    18    24    25    1
    19    24    23    1
    20    27    28    1
    21    31    29    1
    22    31    32    1
    23    23     1    1
    24    29    28    1
    25     2     1    2
    26     1     4    1
    27     1     3    1
    28     4     5    1
    29     5     6    1
    30     6     8    1
    31     6     7    1
    32     9     8    1
    33     8    10    1
    34     7    12    1
    35    10    12    1
    36    10    11    1
    37    12    13    1
    38    11    45    1
    39    46    45    2
    40    47    45    1
    41    13    14    1
    42    13    22    1
    43    45    48    1
    44    14    15    1
    45    21    22    2
    46    21    20    1
    47    22    16    1
    48    15    16    2
    49    20    19    1
    50    16    17    1
    51    19    17    2
    52    17    18    1
