@<TRIPOS>MOLECULE
2is7_2CL_A_1.pdb
 12 12 0 0 0
SMALL
GASTEIGER

@<TRIPOS>ATOM
      1  C1        17.5410   24.7640   62.5570 C.ar  317  2CL317      0.0102
      2  C2        18.5940   25.1330   61.7360 C.ar  317  2CL317      0.0550
      3  C3        18.9430   24.3330   60.6400 C.ar  317  2CL317      0.0111
      4  C4        18.2600   23.1440   60.3610 C.ar  317  2CL317      0.0017
      5  C5        17.2050   22.7550   61.1900 C.ar  317  2CL317      0.0111
      6  C6        16.8670   23.5740   62.2750 C.ar  317  2CL317      0.0550
      7  C7        17.1870   25.6330   63.7540 C.3   317  2CL317      0.1420
      8  C8        16.1600   26.7160   63.4840 C.2   317  2CL317      0.3693
      9 CL1        19.4840   26.6490   62.0730 Cl    317  2CL317     -0.0825
     10 CL2        15.5150   23.0700   63.3000 Cl    317  2CL317     -0.0825
     11  O1        15.7740   26.9420   62.3010 O.co2 317  2CL317     -0.2453
     12  O2        15.7180   27.3430   64.4730 O.co2 317  2CL317     -0.2453
@<TRIPOS>BOND
     1     4     3   ar
     2     4     5   ar
     3     3     2   ar
     4     5     6   ar
     5     2     9    1
     6     2     1   ar
     7     6     1   ar
     8     6    10    1
     9    11     8   ar
    10     1     7    1
    11     8     7    1
    12     8    12   ar
