@<TRIPOS>MOLECULE
2isa_HEM_A_1.pdb
 43 50 0 0 0
SMALL
GASTEIGER

@<TRIPOS>ATOM
      1  CHA      -11.0830  -49.1920   -3.3100 C.2   486  HEM486      0.0000
      2  CHB      -12.4120  -51.7010   -7.2710 C.2   486  HEM486      0.0000
      3  CHC       -8.3190  -50.2530   -9.3980 C.2   486  HEM486      0.0000
      4  CHD       -7.4860  -47.0640   -5.8630 C.2   486  HEM486      0.0000
      5  C1A      -11.7880  -49.9940   -4.1920 C.ar  486  HEM486      0.0000
      6  C2A      -13.0520  -50.6270   -3.9010 C.ar  486  HEM486      0.0000
      7  C3A      -13.4260  -51.3190   -4.9870 C.ar  486  HEM486      0.0000
      8  C4A      -12.4010  -51.1500   -6.0060 C.ar  486  HEM486      0.0000
      9  CMA      -14.7140  -52.1550   -5.1710 C.3   486  HEM486      0.0000
     10  CAA      -13.8190  -50.4690   -2.5750 C.3   486  HEM486      0.0000
     11  CBA      -14.7810  -49.3110   -2.8610 C.3   486  HEM486      0.0000
     12  CGA      -15.6340  -48.8940   -1.7030 C.2   486  HEM486      0.0000
     13  O1A      -15.6740  -47.6580   -1.4760 O.co2 486  HEM486      0.0000
     14  O2A      -16.2900  -49.7460   -1.0400 O.co2 486  HEM486      0.0000
     15  C1B      -11.4610  -51.4700   -8.2430 C.2   486  HEM486      0.0000
     16  C2B      -11.5110  -51.8910   -9.6370 C.2   486  HEM486      0.0000
     17  C3B      -10.3630  -51.4820  -10.2210 C.2   486  HEM486      0.0000
     18  C4B       -9.5700  -50.8020   -9.2130 C.2   486  HEM486      0.0000
     19  CMB      -12.7030  -52.6590  -10.2560 C.3   486  HEM486      0.0000
     20  CAB       -9.8860  -51.6480  -11.6840 C.2   486  HEM486      0.0000
     21  CBB      -10.5380  -52.4200  -12.5550 C.2   486  HEM486      0.0000
     22  C1C       -7.7770  -49.2110   -8.6920 C.ar  486  HEM486      0.0000
     23  C2C       -6.7230  -48.3150   -9.1420 C.ar  486  HEM486      0.0000
     24  C3C       -6.5090  -47.4210   -8.1580 C.ar  486  HEM486      0.0000
     25  C4C       -7.4090  -47.7420   -7.0570 C.ar  486  HEM486      0.0000
     26  CMC       -5.9880  -48.3790  -10.5070 C.3   486  HEM486      0.0000
     27  CAC       -5.4920  -46.2570   -8.1320 C.2   486  HEM486      0.0000
     28  CBC       -5.2480  -45.4890   -9.2050 C.2   486  HEM486      0.0000
     29  C1D       -8.3440  -47.3330   -4.8110 C.2   486  HEM486      0.0000
     30  C2D       -8.3600  -46.6510   -3.5480 C.2   486  HEM486      0.0000
     31  C3D       -9.4940  -47.3100   -2.7300 C.2   486  HEM486      0.0000
     32  C4D      -10.0480  -48.3220   -3.5990 C.2   486  HEM486      0.0000
     33  CMD       -7.4360  -45.4980   -3.1270 C.3   486  HEM486      0.0000
     34  CAD       -9.9350  -46.9550   -1.3100 C.3   486  HEM486      0.0000
     35  CBD      -10.7650  -45.6740   -1.3820 C.3   486  HEM486      0.0000
     36  CGD      -11.0140  -45.2350    0.0280 C.2   486  HEM486      0.0000
     37  O1D      -10.0430  -44.7820    0.7050 O.co2 486  HEM486      0.0000
     38  O2D      -12.1880  -45.3510    0.4670 O.co2 486  HEM486      0.0000
     39  NA       -11.4210  -50.3460   -5.4870 N.ar  486  HEM486      0.0000
     40  NB       -10.2660  -50.8200   -8.0210 N.2   486  HEM486      0.0000
     41  NC        -8.1710  -48.8350   -7.4250 N.ar  486  HEM486      0.0000
     42  ND        -9.3370  -48.3030   -4.7950 N.2   486  HEM486      0.0000
     43 FE         -9.8820  -49.3990   -6.4740 Fe    486  HEM486      0.0000
@<TRIPOS>BOND
     1    21    20    2
     2    20    17    1
     3    26    23    1
     4    19    16    1
     5    17    16    2
     6    17    18    1
     7    16    15    1
     8     3    18    2
     9     3    22    1
    10    18    40    1
    11    28    27    2
    12    23    22   ar
    13    23    24   ar
    14    22    41   ar
    15    15    40    2
    16    15     2    1
    17    24    27    1
    18    24    25   ar
    19    40    43    1
    20    41    25   ar
    21    41    43    1
    22     2     8    2
    23    25     4    1
    24    43    39    1
    25    43    42    1
    26     8    39   ar
    27     8     7   ar
    28     4    29    2
    29    39     5   ar
    30     9     7    1
    31     7     6   ar
    32    29    42    1
    33    29    30    1
    34    42    32    2
    35     5     6   ar
    36     5     1    2
    37     6    10    1
    38    32     1    1
    39    32    31    1
    40    30    33    1
    41    30    31    2
    42    11    10    1
    43    11    12    1
    44    31    34    1
    45    12    13   ar
    46    12    14   ar
    47    35    34    1
    48    35    36    1
    49    36    38   ar
    50    36    37   ar
