@<TRIPOS>MOLECULE
2isc_223_A_1.pdb
 19 21 0 0 0
SMALL
GASTEIGER

@<TRIPOS>ATOM
      1  N1        -9.3570  -15.9570  -38.7000 N.2   401  223401     -0.0278
      2  C2        -8.5100  -15.0070  -37.9480 C.3   401  223401      0.3922
      3  C4        -6.5900  -16.0300  -39.0980 C.2   401  223401      0.1045
      4  C5        -7.3830  -16.9100  -39.8050 C.2   401  223401      0.1884
      5  C6        -8.8510  -16.8590  -39.5790 C.2   401  223401      0.4315
      6  C8        -5.2950  -17.2880  -40.3770 C.2   401  223401      0.0978
      7  N6        -9.6010  -17.6470  -40.1960 N.pl3 401  223401      0.2177
      8  N3        -7.0710  -15.1140  -38.2190 N.2   401  223401     -0.2171
      9  C9        -5.2690  -16.2580  -39.4400 C.2   401  223401      0.0321
     10  N7        -6.5770  -17.6740  -40.5790 N.2   401  223401     -0.2350
     11  C10       -4.0430  -15.5050  -38.9780 C.3   401  223401      0.1023
     12  N1'       -3.4630  -15.8110  -37.6760 N.3   401  223401     -0.2665
     13  C6'       -3.6240  -17.2150  -37.2590 C.3   401  223401      0.0776
     14  C4'       -3.8990  -17.1820  -35.7550 C.3   401  223401      0.0807
     15  C5'       -5.1430  -17.9940  -35.3780 C.3   401  223401      0.1860
     16  O5'       -5.3290  -19.1610  -36.1930 O.3   401  223401     -0.2203
     17  C3'       -4.0610  -15.7080  -35.3890 C.3   401  223401      0.1717
     18  O3'       -2.9210  -15.2410  -34.6730 O.3   401  223401     -0.2215
     19  C2'       -4.1010  -14.9290  -36.6900 C.3   401  223401      0.1057
@<TRIPOS>BOND
     1    10     6    1
     2    10     4    2
     3     6     9    2
     4     7     5    1
     5     4     5    1
     6     4     3    1
     7     5     1    2
     8     9     3    1
     9     9    11    1
    10     3     8    2
    11    11    12    1
    12     1     2    1
    13     8     2    1
    14    12    13    1
    15    12    19    1
    16    13    14    1
    17    19    17    1
    18    16    15    1
    19    14    17    1
    20    14    15    1
    21    17    18    1
