@<TRIPOS>MOLECULE
2isf_NAP_A_1.pdb
 48 52 0 0 0
SMALL
GASTEIGER

@<TRIPOS>ATOM
      1  PA        23.5730   27.9800   72.5400 P.3   316  NAP316      0.2189
      2  O1A       24.4230   29.0370   72.0100 O.2   316  NAP316     -0.5170
      3  O2A       22.5830   28.3120   73.5550 O.3   316  NAP316     -0.4371
      4  O5B       24.4650   26.8160   73.1090 O.3   316  NAP316     -0.3112
      5  C5B       23.8600   25.6140   73.5920 C.3   316  NAP316      0.1813
      6  C4B       25.0200   24.7220   73.9670 C.3   316  NAP316      0.1820
      7  O4B       25.8710   25.3240   74.9500 O.3   316  NAP316     -0.3136
      8  C3B       24.6030   23.3950   74.5470 C.3   316  NAP316      0.2157
      9  O3B       25.5170   22.4240   74.0910 O.3   316  NAP316     -0.2175
     10  C2B       24.7120   23.5630   76.0400 C.3   316  NAP316      0.2314
     11  O2B       24.9920   22.2970   76.6290 O.3   316  NAP316     -0.2630
     12  C1B       25.9050   24.4830   76.1130 C.3   316  NAP316      0.3158
     13  N9A       25.8770   25.3030   77.3590 N.pl3 316  NAP316     -0.1439
     14  C8A       24.8280   25.9670   77.8890 C.3   316  NAP316      0.3377
     15  N7A       25.1970   26.6110   79.0050 N.2   316  NAP316     -0.2095
     16  C5A       26.4910   26.3170   79.1380 C.2   316  NAP316      0.2526
     17  C6A       27.3180   26.7200   80.1850 C.2   316  NAP316      0.4393
     18  N6A       26.8900   27.4890   81.1840 N.pl3 316  NAP316      0.2180
     19  N1A       28.5870   26.2710   80.1450 N.2   316  NAP316      0.0021
     20  C2A       29.0230   25.5020   79.1510 C.3   316  NAP316      0.5254
     21  N3A       28.2280   25.1330   78.1480 N.2   316  NAP316     -0.0055
     22  C4A       26.9430   25.5100   78.1240 C.2   316  NAP316      0.3518
     23  O3        22.9080   27.2570   71.2840 O.3   316  NAP316     -0.2703
     24  PN        21.5540   27.1710   70.4230 P.3   316  NAP316      0.2189
     25  O1N       20.7490   26.0640   70.9730 O.3   316  NAP316     -0.4371
     26  O2N       21.9410   27.1030   69.0030 O.2   316  NAP316     -0.5170
     27  O5D       20.8550   28.6030   70.6320 O.3   316  NAP316     -0.3112
     28  C5D       19.9210   28.8620   71.6990 C.3   316  NAP316      0.1813
     29  C4D       18.4740   28.8030   71.2390 C.3   316  NAP316      0.1799
     30  O4D       18.2770   29.7630   70.2030 O.3   316  NAP316     -0.3327
     31  C3D       18.0330   27.4870   70.6030 C.3   316  NAP316      0.2158
     32  O3D       17.8550   26.3480   71.4550 O.3   316  NAP316     -0.2175
     33  C2D       16.7560   27.9580   69.9640 C.3   316  NAP316      0.2309
     34  O2D       15.6820   27.9800   70.8940 O.3   316  NAP316     -0.2158
     35  C1D       17.1360   29.3490   69.4640 C.3   316  NAP316      0.2263
     36  N1N       17.5070   29.3210   68.0340 N.pl3 316  NAP316     -0.2787
     37  C2N       16.6520   29.8650   67.0670 C.3   316  NAP316      0.1244
     38  C3N       16.9820   29.7790   65.7140 C.2   316  NAP316      0.0544
     39  C7N       16.1290   30.4640   64.6390 C.2   316  NAP316      0.2818
     40  O7N       16.3760   30.3030   63.4410 O.2   316  NAP316     -0.2670
     41  N7N       15.1600   31.2480   65.0810 N.am  316  NAP316     -0.0839
     42  C4N       18.1750   29.1530   65.3510 C.2   316  NAP316      0.0033
     43  C5N       19.0480   28.6200   66.3030 C.2   316  NAP316      0.0157
     44  C6N       18.7030   28.7050   67.6450 C.2   316  NAP316      0.0633
     45  P2B       23.9810   21.4750   77.5550 P.3   316  NAP316      0.5328
     46  O1X       22.6530   21.6120   76.9450 O.2   316  NAP316     -0.2224
     47  O2X       24.5810   20.1410   77.4410 O.3   316  NAP316     -0.1145
     48  O3X       24.1750   22.0630   78.8860 O.3   316  NAP316     -0.1145
@<TRIPOS>BOND
     1    40    39    2
     2    39    41   am
     3    39    38    1
     4    42    38    2
     5    42    43    1
     6    38    37    1
     7    43    44    2
     8    37    36    1
     9    44    36    1
    10    36    35    1
    11    26    24    2
    12    35    33    1
    13    35    30    1
    14    33    31    1
    15    33    34    1
    16    30    29    1
    17    24    27    1
    18    24    25    1
    19    24    23    1
    20    31    29    1
    21    31    32    1
    22    27    28    1
    23    29    28    1
    24    23     1    1
    25     2     1    2
    26     1     4    1
    27     1     3    1
    28     4     5    1
    29     5     6    1
    30     6     8    1
    31     6     7    1
    32     9     8    1
    33     8    10    1
    34     7    12    1
    35    10    12    1
    36    10    11    1
    37    12    13    1
    38    11    45    1
    39    46    45    2
    40    13    14    1
    41    13    22    1
    42    47    45    1
    43    45    48    1
    44    14    15    1
    45    22    21    2
    46    22    16    1
    47    21    20    1
    48    15    16    2
    49    16    17    1
    50    20    19    1
    51    19    17    2
    52    17    18    1
