@<TRIPOS>MOLECULE
2isf_PAC_A_1.pdb
 10 10 0 0 0
SMALL
GASTEIGER

@<TRIPOS>ATOM
      1  C1        16.6430   26.4550   63.6170 C.2   317  PAC317      0.3692
      2  C2        17.6870   25.3600   63.7290 C.3   317  PAC317      0.1404
      3  C1'       17.3490   24.1350   62.9200 C.ar  317  PAC317     -0.0109
      4  C2'       18.2280   23.6680   61.9430 C.ar  317  PAC317     -0.0037
      5  C3'       17.9480   22.5040   61.2200 C.ar  317  PAC317     -0.0003
      6  C4'       16.7730   21.7950   61.4710 C.ar  317  PAC317     -0.0000
      7  C5'       15.8870   22.2490   62.4470 C.ar  317  PAC317     -0.0003
      8  C6'       16.1770   23.4170   63.1630 C.ar  317  PAC317     -0.0037
      9  O1        16.1210   26.8920   64.6650 O.co2 317  PAC317     -0.2453
     10  O2        16.3450   26.8730   62.4750 O.co2 317  PAC317     -0.2453
@<TRIPOS>BOND
     1     5     6   ar
     2     5     4   ar
     3     6     7   ar
     4     4     3   ar
     5     7     8   ar
     6    10     1   ar
     7     3     8   ar
     8     3     2    1
     9     1     2    1
    10     1     9   ar
