@<TRIPOS>MOLECULE
2isj_FMN_A_1.pdb
 31 33 0 0 0
SMALL
GASTEIGER

@<TRIPOS>ATOM
      1  N1        29.3510    4.6430   13.9640 N.2   502  FMN502     -0.2890
      2  C2        29.8930    4.3490   15.1650 C.1   502  FMN502      0.3669
      3  O2        29.3580    4.7680   16.2010 O.2   502  FMN502     -0.1744
      4  N3        31.0460    3.5780   15.2520 N.2   502  FMN502     -0.2300
      5  C4        31.6790    3.0820   14.0660 C.1   502  FMN502      0.2513
      6  O4        32.6730    2.4180   14.1610 O.2   502  FMN502     -0.2057
      7  C4A       31.0960    3.3920   12.7890 C.2   502  FMN502      0.2700
      8  N5        31.6820    2.9060   11.5410 N.2   502  FMN502     -0.3878
      9  C5A       31.0560    3.2210   10.2890 C.2   502  FMN502      0.1320
     10  C6        31.6330    2.7210    9.0720 C.2   502  FMN502      0.0250
     11  C7        30.9850    3.0340    7.8120 C.2   502  FMN502     -0.0238
     12  C7M       31.6400    2.4710    6.5430 C.3   502  FMN502      0.0308
     13  C8        29.7770    3.8370    7.7870 C.2   502  FMN502     -0.0280
     14  C8M       29.0040    4.2220    6.5070 C.3   502  FMN502      0.0304
     15  C9        29.2280    4.3220    8.9890 C.2   502  FMN502     -0.0041
     16  C9A       29.8590    4.0230   10.2680 C.3   502  FMN502      0.1497
     17  N10       29.3090    4.5040   11.5320 N.pl3 502  FMN502     -0.2691
     18  C10       29.9180    4.1860   12.7820 C.2   502  FMN502      0.2416
     19  C1'       28.0890    5.3170   11.4490 C.3   502  FMN502      0.1294
     20  C2'       28.2830    6.8370   11.1820 C.3   502  FMN502      0.2044
     21  O2'       28.9500    7.4880   12.2790 O.3   502  FMN502     -0.2185
     22  C3'       26.8980    7.2980   10.9920 C.3   502  FMN502      0.2164
     23  O3'       26.5370    6.9840    9.6400 O.3   502  FMN502     -0.2175
     24  C4'       26.5360    8.7890   11.2410 C.3   502  FMN502      0.2147
     25  O4'       27.3680    9.4210   12.2220 O.3   502  FMN502     -0.2176
     26  C5'       25.1130    8.7100   11.6760 C.3   502  FMN502      0.1892
     27  O5'       24.3650    8.4840   10.5140 O.3   502  FMN502     -0.2674
     28  P         22.8560    8.2190   10.6300 P.3   502  FMN502      0.5327
     29  O1P       22.9550    6.7770   11.2620 O.3   502  FMN502     -0.1145
     30  O2P       22.3070    8.1080    9.2810 O.2   502  FMN502     -0.2224
     31  O3P       22.2700    9.1220   11.6450 O.3   502  FMN502     -0.1145
@<TRIPOS>BOND
     1    14    13    1
     2    12    11    1
     3    13    11    1
     4    13    15    2
     5    11    10    2
     6    15    16    1
     7    10     9    1
     8    30    28    2
     9    23    22    1
    10    16     9    1
    11    16    17    1
    12     9     8    2
    13    27    28    1
    14    27    26    1
    15    28    29    1
    16    28    31    1
    17    22    20    1
    18    22    24    1
    19    20    19    1
    20    20    21    1
    21    24    26    1
    22    24    25    1
    23    19    17    1
    24    17    18    1
    25     8     7    2
    26    18     7    1
    27    18     1    2
    28     7     5    1
    29     1     2    2
    30     5     6    2
    31     5     4    2
    32     2     4    2
    33     2     3    2
