@<TRIPOS>MOLECULE
2isk_FNR_A_1.pdb
 31 33 0 0 0
SMALL
GASTEIGER

@<TRIPOS>ATOM
      1  C9A        2.3290   -3.8160   11.1990 C.3   502  FNR502      0.1497
      2  N10        2.6990   -4.2320   12.5400 N.pl3 502  FNR502     -0.2691
      3  CAA        1.8720   -3.9330   13.6680 C.2   502  FNR502      0.2416
      4  N1         2.2730   -4.3240   14.9360 N.2   502  FNR502     -0.2890
      5  C2         1.5280   -4.0500   16.0210 C.1   502  FNR502      0.3669
      6  O2         1.9210   -4.4020   17.1340 O.2   502  FNR502     -0.1744
      7  N3         0.3290   -3.3740   15.9080 N.2   502  FNR502     -0.2300
      8  C4        -0.1440   -2.9450   14.6210 C.1   502  FNR502      0.2513
      9  O4        -1.1890   -2.3540   14.5360 O.2   502  FNR502     -0.2057
     10  C4A        0.6610   -3.2350   13.4670 C.2   502  FNR502      0.2700
     11  N5         0.2570   -2.8210   12.1410 N.2   502  FNR502     -0.3878
     12  C5A        1.0960   -3.1070   11.0120 C.2   502  FNR502      0.1320
     13  C6         0.6840   -2.6670    9.7040 C.2   502  FNR502      0.0250
     14  C7         1.5480   -2.9490    8.5810 C.2   502  FNR502     -0.0238
     15  C7M        1.0780   -2.4620    7.2070 C.3   502  FNR502      0.0308
     16  C8         2.7890   -3.6550    8.7710 C.2   502  FNR502     -0.0280
     17  C8M        3.7840   -3.9960    7.6430 C.3   502  FNR502      0.0304
     18  C9         3.1700   -4.0830   10.0550 C.2   502  FNR502     -0.0041
     19  C1'        3.9630   -4.9580   12.6860 C.3   502  FNR502      0.1294
     20  C2'        3.8800   -6.4890   12.4660 C.3   502  FNR502      0.2044
     21  O2'        3.0590   -7.1200   13.4810 O.3   502  FNR502     -0.2185
     22  C3'        5.3000   -6.8820   12.5400 C.3   502  FNR502      0.2164
     23  O3'        5.9710   -6.5280   11.3000 O.3   502  FNR502     -0.2175
     24  C4'        5.6900   -8.3500   12.8720 C.3   502  FNR502      0.2147
     25  O4'        4.7280   -9.0450   13.6660 O.3   502  FNR502     -0.2176
     26  C5'        6.9750   -8.0390   13.5250 C.3   502  FNR502      0.1892
     27  O5'        7.9560   -8.2880   12.5780 O.3   502  FNR502     -0.2674
     28  P          9.3870   -7.7910   12.8790 P.3   502  FNR502      0.5327
     29  O1P        8.9900   -6.3000   12.5060 O.3   502  FNR502     -0.1145
     30  O2P       10.3200   -8.2490   11.8310 O.2   502  FNR502     -0.2224
     31  O3P        9.7060   -7.8060   14.3450 O.3   502  FNR502     -0.1145
@<TRIPOS>BOND
     1    15    14    1
     2    17    16    1
     3    14    16    1
     4    14    13    2
     5    16    18    2
     6    13    12    1
     7    18     1    1
     8    12     1    1
     9    12    11    2
    10     1     2    1
    11    23    22    1
    12    30    28    2
    13    11    10    2
    14    20    22    1
    15    20    19    1
    16    20    21    1
    17    29    28    1
    18     2    19    1
    19     2     3    1
    20    22    24    1
    21    27    28    1
    22    27    26    1
    23    24    26    1
    24    24    25    1
    25    28    31    1
    26    10     3    1
    27    10     8    1
    28     3     4    2
    29     9     8    2
    30     8     7    2
    31     4     5    2
    32     7     5    2
    33     5     6    2
