@<TRIPOS>MOLECULE
2isl_FNR_A_1.pdb
 31 33 0 0 0
SMALL
GASTEIGER

@<TRIPOS>ATOM
      1  C9A       30.5990    4.1320   11.3140 C.3   502  FNR502      0.1497
      2  N10       30.1450    4.5210   12.5980 N.pl3 502  FNR502     -0.2691
      3  CAA       30.8340    4.1910   13.7850 C.2   502  FNR502      0.2416
      4  N1        30.3060    4.4710   14.9850 N.2   502  FNR502     -0.2890
      5  C2        30.8990    4.0710   16.1530 C.1   502  FNR502      0.3669
      6  O2        30.3960    4.3190   17.2270 O.2   502  FNR502     -0.1744
      7  N3        32.1440    3.3410   16.0620 N.2   502  FNR502     -0.2300
      8  C4        32.7770    2.9590   14.8600 C.1   502  FNR502      0.2513
      9  O4        33.8330    2.3090   14.8570 O.2   502  FNR502     -0.2057
     10  C4A       32.0740    3.4020   13.6050 C.2   502  FNR502      0.2700
     11  N5        32.5300    3.0280   12.3920 N.2   502  FNR502     -0.3878
     12  C5A       31.7720    3.2950   11.2700 C.2   502  FNR502      0.1320
     13  C6        32.1760    2.7380   10.0080 C.2   502  FNR502      0.0250
     14  C7        31.5070    3.0250    8.8380 C.2   502  FNR502     -0.0238
     15  C7M       31.9390    2.4250    7.5460 C.3   502  FNR502      0.0308
     16  C8        30.3580    3.8960    8.8610 C.2   502  FNR502     -0.0280
     17  C8M       29.6300    4.2730    7.5830 C.3   502  FNR502      0.0304
     18  C9        29.8970    4.3950   10.0960 C.2   502  FNR502     -0.0041
     19  C1'       28.8600    5.2360   12.6960 C.3   502  FNR502      0.1294
     20  C2'       29.0190    6.7620   12.5470 C.3   502  FNR502      0.2044
     21  O2'       29.6060    7.3120   13.7170 O.3   502  FNR502     -0.2185
     22  C3'       27.6520    7.3460   12.2690 C.3   502  FNR502      0.2164
     23  O3'       27.3780    7.1600   10.8820 O.3   502  FNR502     -0.2175
     24  C4'       27.5170    8.8540   12.5890 C.3   502  FNR502      0.2147
     25  O4'       27.6040    9.0140   14.0090 O.3   502  FNR502     -0.2176
     26  C5'       26.1460    9.4480   12.1650 C.3   502  FNR502      0.1892
     27  O5'       25.4190    8.5540   11.3290 O.3   502  FNR502     -0.2674
     28  P         24.0670    7.8900   11.7680 P.3   502  FNR502      0.5327
     29  O1P       24.2100    6.4690   11.6330 O.3   502  FNR502     -0.1145
     30  O2P       23.1090    8.5460   10.8610 O.2   502  FNR502     -0.2224
     31  O3P       23.6780    8.1740   13.1890 O.3   502  FNR502     -0.1145
@<TRIPOS>BOND
     1    15    14    1
     2    17    16    1
     3    14    16    1
     4    14    13    2
     5    16    18    2
     6    13    12    1
     7    18     1    1
     8    30    28    2
     9    23    22    1
    10    12     1    1
    11    12    11    2
    12     1     2    1
    13    27    28    1
    14    27    26    1
    15    29    28    1
    16    28    31    1
    17    26    24    1
    18    22    20    1
    19    22    24    1
    20    11    10    2
    21    20    19    1
    22    20    21    1
    23    24    25    1
    24     2    19    1
    25     2     3    1
    26    10     3    1
    27    10     8    1
    28     3     4    2
    29     9     8    2
    30     8     7    2
    31     4     5    2
    32     7     5    2
    33     5     6    2
