@<TRIPOS>MOLECULE
2iso_GFF_A_1.pdb
 33 35 0 0 0
SMALL
GASTEIGER

@<TRIPOS>ATOM
      1  P1         5.0270    5.0270   14.6190 P.3   338  GFF338      0.2210
      2  O1A        3.9100    4.9580   15.5860 O.3   338  GFF338     -0.4371
      3  O2A        6.4160    5.1810   15.1310 O.2   338  GFF338     -0.5170
      4  O3A        4.9360    3.7980   13.7380 O.3   338  GFF338     -0.2448
      5  O5'        4.7330    6.2810   13.6750 O.3   338  GFF338     -0.3111
      6  P2         3.8650    2.7330   13.6440 P.3   338  GFF338      0.4402
      7  O1B        3.8440    2.2810   12.2240 O.2   338  GFF338     -0.2491
      8  O2B        2.5930    3.1130   14.3040 O.3   338  GFF338     -0.1351
      9  C3B        4.5330    1.2520   14.5780 C.3   338  GFF338      0.3975
     10  F1B        4.1910    0.1320   13.8720 F     338  GFF338     -0.1836
     11  F2B        5.8960    1.3580   14.5970 F     338  GFF338     -0.1836
     12  P3         3.9220    1.1140   16.3510 P.3   338  GFF338      0.1913
     13  O1G        3.5300    2.4710   16.8150 O.3   338  GFF338     -0.3531
     14  O2G        4.9550    0.3510   17.1150 O.3   338  GFF338     -0.3531
     15  O3G        2.7080    0.2680   16.2540 O.2   338  GFF338     -0.4540
     16  C5'        3.4720    6.4190   13.0250 C.3   338  GFF338      0.1812
     17  C4'        3.6570    6.5600   11.5330 C.3   338  GFF338      0.1772
     18  O4'        4.5010    7.6910   11.2550 O.3   338  GFF338     -0.3347
     19  C1'        5.2020    7.4610   10.0360 C.3   338  GFF338      0.1981
     20  N9         6.6310    7.6240   10.2880 N.pl3 338  GFF338     -0.2374
     21  C4         7.5490    8.1230    9.3990 C.2   338  GFF338      0.2299
     22  N3         7.2730    8.5990    8.1680 N.2   338  GFF338     -0.3074
     23  C2         8.3630    8.9870    7.5330 C.1   338  GFF338      0.2531
     24  N2         8.2540    9.5300    6.3000 N.pl3 338  GFF338     -0.0226
     25  N1         9.6350    8.8850    8.0610 N.2   338  GFF338     -0.2485
     26  C6         9.9390    8.3880    9.3270 C.1   338  GFF338      0.2372
     27  O6        11.1170    8.3200    9.6990 O.2   338  GFF338     -0.2069
     28  C5         8.7720    8.0010   10.0270 C.2   338  GFF338      0.2182
     29  N7         8.6210    7.4770   11.3030 N.2   338  GFF338     -0.2322
     30  C8         7.3350    7.2730   11.4160 C.3   338  GFF338      0.2245
     31  C2'        4.8450    6.0460    9.5730 C.3   338  GFF338      0.0865
     32  C3'        4.3640    5.3960   10.8550 C.3   338  GFF338      0.1857
     33  O3'        3.4450    4.3300   10.5970 O.3   338  GFF338     -0.2203
@<TRIPOS>BOND
     1    24    23    1
     2    23    25    2
     3    23    22    2
     4    25    26    2
     5    22    21    2
     6    26    27    2
     7    26    28    1
     8    21    28    1
     9    21    20    1
    10    31    19    1
    11    31    32    1
    12    28    29    2
    13    19    20    1
    14    19    18    1
    15    20    30    1
    16    33    32    1
    17    32    17    1
    18    18    17    1
    19    29    30    1
    20    17    16    1
    21     7     6    2
    22    16     5    1
    23     6     4    1
    24     6     8    1
    25     6     9    1
    26     5     1    1
    27     4     1    1
    28    10     9    1
    29     9    11    1
    30     9    12    1
    31     1     3    2
    32     1     2    1
    33    15    12    2
    34    12    13    1
    35    12    14    1
