@<TRIPOS>MOLECULE
2isp_GGH_A_1.pdb
 31 33 0 0 0
SMALL
GASTEIGER

@<TRIPOS>ATOM
      1  C2         8.3900    8.9760    7.4840 C.1   338  GGH338      0.2531
      2  C4         7.5400    8.1620    9.3570 C.2   338  GGH338      0.2299
      3  C5         8.7570    8.0370    9.9970 C.2   338  GGH338      0.2182
      4  C6         9.9360    8.3900    9.3020 C.1   338  GGH338      0.2372
      5  P1         4.9660    5.0930   14.6560 P.3   338  GGH338      0.2209
      6  P2         3.9110    2.7760   13.6780 P.3   338  GGH338      0.3815
      7  O6        11.1090    8.3100    9.6870 O.2   338  GGH338     -0.2069
      8  O1A        3.8470    5.0380   15.6370 O.3   338  GGH338     -0.4371
      9  O2A        6.3570    5.2490   15.1580 O.2   338  GGH338     -0.5170
     10  O3A        4.9350    3.8680   13.7750 O.3   338  GGH338     -0.2483
     11  O5'        4.6630    6.3340   13.6990 O.3   338  GGH338     -0.3112
     12  O1B        3.9280    2.3040   12.2710 O.2   338  GGH338     -0.2547
     13  O2B        2.6150    3.1550   14.3010 O.3   338  GGH338     -0.1391
     14  C3B        4.6320    1.2710   14.5320 C.3   338  GGH338      0.1768
     15  P3         4.0060    1.0890   16.2870 P.3   338  GGH338      0.1295
     16  O1G        3.5980    2.4500   16.7460 O.3   338  GGH338     -0.3567
     17  O2G        5.0580    0.3530   17.0380 O.3   338  GGH338     -0.3567
     18  O3G        2.8000    0.2270   16.1920 O.2   338  GGH338     -0.4595
     19  C5'        3.4170    6.4390   13.0070 C.3   338  GGH338      0.1812
     20  C4'        3.6370    6.6180   11.5230 C.3   338  GGH338      0.1772
     21  O4'        4.4820    7.7540   11.2490 O.3   338  GGH338     -0.3347
     22  C1'        5.1720    7.5390   10.0130 C.3   338  GGH338      0.1981
     23  N9         6.6050    7.6950   10.2540 N.pl3 338  GGH338     -0.2374
     24  N3         7.2860    8.6130    8.1140 N.2   338  GGH338     -0.3074
     25  N2         8.3090    9.5060    6.2440 N.pl3 338  GGH338     -0.0226
     26  N1         9.6540    8.8640    8.0250 N.2   338  GGH338     -0.2485
     27  N7         8.5880    7.5490   11.2840 N.2   338  GGH338     -0.2322
     28  C8         7.2990    7.3650   11.3950 C.3   338  GGH338      0.2245
     29  C2'        4.8050    6.1240    9.5450 C.3   338  GGH338      0.0865
     30  C3'        4.3380    5.4620   10.8280 C.3   338  GGH338      0.1857
     31  O3'        3.4140    4.3990   10.5740 O.3   338  GGH338     -0.2203
@<TRIPOS>BOND
     1    25     1    1
     2     1    26    2
     3     1    24    2
     4    26     4    2
     5    24     2    2
     6     4     7    2
     7     4     3    1
     8     2     3    1
     9     2    23    1
    10    29    22    1
    11    29    30    1
    12     3    27    2
    13    22    23    1
    14    22    21    1
    15    23    28    1
    16    31    30    1
    17    30    20    1
    18    21    20    1
    19    27    28    1
    20    20    19    1
    21    12     6    2
    22    19    11    1
    23     6    10    1
    24     6    13    1
    25     6    14    1
    26    11     5    1
    27    10     5    1
    28    14    15    1
    29     5     9    2
    30     5     8    1
    31    18    15    2
    32    15    16    1
    33    15    17    1
