@<TRIPOS>MOLECULE
2isq_PLP_A_1.pdb
 15 15 0 0 0
SMALL
GASTEIGER

@<TRIPOS>ATOM
      1  N1        79.8450   44.3040  -19.6540 N.ar  400  PLP400     -0.2452
      2  C2        78.7210   43.8030  -19.0080 C.ar  400  PLP400      0.0978
      3  C2A       77.4450   43.7480  -19.8460 C.3   400  PLP400      0.0555
      4  C3        78.8490   43.4020  -17.6840 C.ar  400  PLP400      0.2049
      5  O3        77.7140   42.9190  -17.0930 O.3   400  PLP400     -0.2857
      6  C4        80.0520   43.4810  -16.9770 C.ar  400  PLP400      0.0182
      7  C4A       80.1390   43.0310  -15.5110 C.3   400  PLP400      0.0342
      8  C5        81.2170   43.9920  -17.6390 C.ar  400  PLP400      0.0261
      9  C6        81.0450   44.3840  -18.9640 C.ar  400  PLP400      0.0965
     10  C5A       82.6180   44.1570  -17.0480 C.3   400  PLP400      0.1815
     11  O4P       83.1980   43.0570  -16.3600 O.3   400  PLP400     -0.2653
     12  P         83.9380   43.2470  -14.9980 P.3   400  PLP400      0.5329
     13  O1P       84.3800   41.8640  -14.6670 O.3   400  PLP400     -0.1145
     14  O2P       82.9260   43.7510  -14.0390 O.3   400  PLP400     -0.1145
     15  O3P       85.0610   44.1620  -15.1660 O.2   400  PLP400     -0.2224
@<TRIPOS>BOND
     1     3     2    1
     2     1     2   ar
     3     1     9   ar
     4     2     4   ar
     5     9     8   ar
     6     4     5    1
     7     4     6   ar
     8     8    10    1
     9     8     6   ar
    10    10    11    1
    11     6     7    1
    12    11    12    1
    13    15    12    2
    14    12    13    1
    15    12    14    1
