@<TRIPOS>MOLECULE
2iss_5RP_A_1.pdb
 13 12 0 0 0
SMALL
GASTEIGER

@<TRIPOS>ATOM
      1  C2        71.8800   -4.8410   76.4580 C.3   294  5RP294      0.1848
      2  C3        73.4040   -4.7290   76.5480 C.3   294  5RP294      0.0711
      3  C5        74.2480   -5.9770   76.8210 C.3   294  5RP294      0.1873
      4  O13       74.3240   -6.7690   75.6320 O.3   294  5RP294     -0.2202
      5  C6        73.6070   -6.8010   77.9430 C.3   294  5RP294      0.2121
      6  O14       73.2210   -5.9340   79.0120 O.3   294  5RP294     -0.2177
      7  C7        74.5820   -7.8600   78.4680 C.3   294  5RP294      0.1891
      8  O8        74.0430   -8.5400   79.6070 O.3   294  5RP294     -0.2674
      9  P9        75.0060   -9.4330   80.5420 P.3   294  5RP294      0.5327
     10  O12       75.3510  -10.7530   79.6890 O.2   294  5RP294     -0.2224
     11  O11       76.2150   -8.7040   80.9850 O.3   294  5RP294     -0.1145
     12  O10       74.0930   -9.9290   81.7720 O.3   294  5RP294     -0.1145
     13  O1        71.4730   -5.2440   75.1480 O.3   294  5RP294     -0.2203
@<TRIPOS>BOND
     1    13     1    1
     2     4     3    1
     3     1     2    1
     4     2     3    1
     5     3     5    1
     6     5     7    1
     7     5     6    1
     8     7     8    1
     9     8     9    1
    10    10     9    2
    11     9    11    1
    12     9    12    1
