@<TRIPOS>MOLECULE
2isv_PGH_A_1.pdb
 10 9 0 0 0
SMALL
GASTEIGER

@<TRIPOS>ATOM
      1  C1       -40.5440  -10.1780  -22.1320 C.2   325  PGH325      0.1177
      2  C2       -41.6040  -11.0830  -23.1130 C.3   325  PGH325      0.2044
      3  N2       -40.0640  -11.0780  -21.2760 N.am  325  PGH325     -0.2004
      4  O2       -39.1200  -10.4910  -20.3370 O.3   325  PGH325     -0.4026
      5  O1       -40.3550   -8.9740  -22.2910 O.2   325  PGH325     -0.5374
      6  O1P      -42.9370  -10.6160  -22.5740 O.3   325  PGH325     -0.2633
      7  O2P      -45.2430  -10.9390  -22.1370 O.3   325  PGH325     -0.1145
      8  O3P      -44.0530  -12.6960  -23.2750 O.3   325  PGH325     -0.1145
      9  O4P      -44.4950  -10.6200  -24.5270 O.2   325  PGH325     -0.2224
     10  P        -44.2480  -11.2270  -23.1600 P.3   325  PGH325      0.5330
@<TRIPOS>BOND
     1     9    10    2
     2     8    10    1
     3    10     6    1
     4    10     7    1
     5     2     6    1
     6     2     1    1
     7     5     1    2
     8     1     3   am
     9     3     4    1
