@<TRIPOS>MOLECULE
2isw_PGH_A_1.pdb
 10 9 0 0 0
SMALL
GASTEIGER

@<TRIPOS>ATOM
      1  C1       -24.8050   15.2140   57.1340 C.2   325  PGH325      0.1177
      2  C2       -26.3380   14.9260   56.4970 C.3   325  PGH325      0.2044
      3  N2       -24.3690   14.0710   57.5790 N.am  325  PGH325     -0.2004
      4  O2       -23.0360   14.2630   58.1280 O.3   325  PGH325     -0.4026
      5  O1       -24.3110   16.3160   57.1080 O.2   325  PGH325     -0.5374
      6  O1P      -27.2340   15.6100   57.5300 O.3   325  PGH325     -0.2633
      7  O2P      -29.4690   15.8600   58.5260 O.3   325  PGH325     -0.1145
      8  O3P      -29.1090   14.1040   56.9150 O.3   325  PGH325     -0.1145
      9  O4P      -29.1150   16.5000   56.0800 O.2   325  PGH325     -0.2224
     10  P        -28.8030   15.5220   57.2660 P.3   325  PGH325      0.5330
@<TRIPOS>BOND
     1     9    10    2
     2     2     1    1
     3     2     6    1
     4     8    10    1
     5     5     1    2
     6     1     3   am
     7    10     6    1
     8    10     7    1
     9     3     4    1
