@<TRIPOS>MOLECULE
2it5_MAN_A_1.pdb
 12 11 0 0 0
SMALL
GASTEIGER

@<TRIPOS>ATOM
      1  C1        11.7570   26.6050  -17.4900 C.3     3  MAN3        0.1777
      2  C2        10.2250   26.6490  -17.6020 C.3     3  MAN3        0.2141
      3  C3         9.6120   26.0090  -16.3520 C.3     3  MAN3        0.2173
      4  C4        10.1190   24.5720  -16.2200 C.3     3  MAN3        0.2142
      5  C5        11.6540   24.5800  -16.1630 C.3     3  MAN3        0.1810
      6  C6        12.2610   23.1920  -16.1230 C.3     3  MAN3        0.2141
      7  O1        11.9160   23.9770  -18.5870 O.3     3  MAN3        0.0000
      8  O2         9.7910   25.9280  -18.7750 O.3     3  MAN3       -0.2176
      9  O3         8.1960   26.0240  -16.4360 O.3     3  MAN3       -0.2175
     10  O4         9.5910   23.9820  -15.0440 O.3     3  MAN3       -0.2176
     11  O5        12.1950   25.2540  -17.3260 O.3     3  MAN3       -0.3481
     12  O6        11.7680   22.3830  -17.1810 O.3     3  MAN3       -0.2176
@<TRIPOS>BOND
     1     8     2    1
     2     2     1    1
     3     2     3    1
     4     1    11    1
     5    11     5    1
     6    12     6    1
     7     9     3    1
     8     3     4    1
     9     4     5    1
    10     4    10    1
    11     5     6    1
