@<TRIPOS>MOLECULE
2it6_MAN_A_1.pdb
 11 11 0 0 0
SMALL
GASTEIGER

@<TRIPOS>ATOM
      1  C1         3.1240   41.3570  -14.6750 C.3     2  MAN2        0.1777
      2  C2         2.6790   41.5780  -13.2270 C.3     2  MAN2        0.2141
      3  C3         1.2040   41.1960  -13.0760 C.3     2  MAN2        0.2173
      4  C4         0.3460   41.9660  -14.0850 C.3     2  MAN2        0.2142
      5  C5         0.8920   41.7910  -15.5070 C.3     2  MAN2        0.1810
      6  C6         0.1770   42.6820  -16.5060 C.3     2  MAN2        0.2141
      7  O2         2.8580   42.9420  -12.8750 O.3     2  MAN2       -0.2176
      8  O3         0.7690   41.4890  -11.7580 O.3     2  MAN2       -0.2175
      9  O4        -0.9900   41.4900  -14.0330 O.3     2  MAN2       -0.2176
     10  O5         2.2990   42.1300  -15.5510 O.3     2  MAN2       -0.3481
     11  O6         1.0940   43.4760  -17.2450 O.3     2  MAN2       -0.2176
@<TRIPOS>BOND
     1    11     6    1
     2     6     5    1
     3    10     5    1
     4    10     1    1
     5     5     4    1
     6     1     2    1
     7     4     9    1
     8     4     3    1
     9     2     3    1
    10     2     7    1
    11     3     8    1
