@<TRIPOS>MOLECULE
2itf_HEM_A_1.pdb
 43 50 0 0 0
SMALL
GASTEIGER

@<TRIPOS>ATOM
      1 FE         12.1200   11.3530   37.1520 Fe    200  HEM200      0.0000
      2  CHA       13.6530    9.3480   39.5050 C.2   200  HEM200      0.0000
      3  CHB       11.9650    8.5460   35.0120 C.2   200  HEM200      0.0000
      4  CHC       10.6790   13.2140   34.6590 C.2   200  HEM200      0.0000
      5  CHD       13.4400   14.1040   38.5380 C.2   200  HEM200      0.0000
      6  NA        12.7370    9.3440   37.2140 N.ar  200  HEM200      0.0000
      7  C1A       13.2630    8.7260   38.3370 C.ar  200  HEM200      0.0000
      8  C2A       13.3270    7.3000   38.0850 C.ar  200  HEM200      0.0000
      9  C3A       12.8630    7.0800   36.8520 C.ar  200  HEM200      0.0000
     10  C4A       12.4790    8.3520   36.2790 C.ar  200  HEM200      0.0000
     11  CMA       12.7430    5.7080   36.1390 C.3   200  HEM200      0.0000
     12  CAA       13.8320    6.2460   39.1020 C.3   200  HEM200      0.0000
     13  CBA       15.3490    6.1030   39.1270 C.3   200  HEM200      0.0000
     14  CGA       15.8010    5.3960   37.8810 C.2   200  HEM200      0.0000
     15  O1A       15.2560    4.2940   37.5890 O.co2 200  HEM200      0.0000
     16  O2A       16.7020    5.9470   37.1880 O.co2 200  HEM200      0.0000
     17  NB        11.4560   10.9530   35.1620 N.2   200  HEM200      0.0000
     18  C1B       11.4510    9.7280   34.5100 C.2   200  HEM200      0.0000
     19  C2B       10.8190    9.9040   33.2130 C.2   200  HEM200      0.0000
     20  C3B       10.4510   11.2030   33.1050 C.2   200  HEM200      0.0000
     21  C4B       10.8570   11.8760   34.3380 C.2   200  HEM200      0.0000
     22  CMB       10.6520    8.7490   32.1930 C.3   200  HEM200      0.0000
     23  CAB        9.7510   11.9390   31.9380 C.2   200  HEM200      0.0000
     24  CBB        8.5430   11.6240   31.4310 C.2   200  HEM200      0.0000
     25  NC        12.1000   13.2870   36.6410 N.ar  200  HEM200      0.0000
     26  C1C       11.3810   13.8920   35.6340 C.ar  200  HEM200      0.0000
     27  C2C       11.4950   15.3310   35.8160 C.ar  200  HEM200      0.0000
     28  C3C       12.2740   15.5440   36.9020 C.ar  200  HEM200      0.0000
     29  C4C       12.6530   14.2660   37.4290 C.ar  200  HEM200      0.0000
     30  CMC       10.8230   16.3620   34.8910 C.3   200  HEM200      0.0000
     31  CAC       12.7560   16.8530   37.5690 C.2   200  HEM200      0.0000
     32  CBC       12.8620   17.9560   36.8510 C.2   200  HEM200      0.0000
     33  ND        13.3640   11.6660   38.7740 N.2   200  HEM200      0.0000
     34  C1D       13.7420   12.9340   39.1780 C.2   200  HEM200      0.0000
     35  C2D       14.5230   12.8440   40.3800 C.2   200  HEM200      0.0000
     36  C3D       14.5970   11.3550   40.7020 C.2   200  HEM200      0.0000
     37  C4D       13.8620   10.7000   39.6430 C.2   200  HEM200      0.0000
     38  CMD       15.1440   14.0030   41.1900 C.3   200  HEM200      0.0000
     39  CAD       15.3340   10.7020   41.8900 C.3   200  HEM200      0.0000
     40  CBD       16.6800   10.1740   41.3950 C.3   200  HEM200      0.0000
     41  CGD       17.4730   11.2720   40.7320 C.2   200  HEM200      0.0000
     42  O1D       17.8370   12.2710   41.4160 O.co2 200  HEM200      0.0000
     43  O2D       17.7430   11.1350   39.5070 O.co2 200  HEM200      0.0000
@<TRIPOS>BOND
     1    24    23    2
     2    23    20    1
     3    22    19    1
     4    20    19    2
     5    20    21    1
     6    19    18    1
     7    21     4    2
     8    21    17    1
     9    18     3    1
    10    18    17    2
    11     4    26    1
    12    30    27    1
    13     3    10    2
    14    17     1    1
    15    26    27   ar
    16    26    25   ar
    17    27    28   ar
    18    11     9    1
    19    10     9   ar
    20    10     6   ar
    21    25     1    1
    22    25    29   ar
    23    32    31    2
    24     9     8   ar
    25    28    29   ar
    26    28    31    1
    27     1     6    1
    28     1    33    1
    29    16    14   ar
    30     6     7   ar
    31    29     5    1
    32    15    14   ar
    33    14    13    1
    34     8     7   ar
    35     8    12    1
    36     7     2    2
    37     5    34    2
    38    33    34    1
    39    33    37    2
    40    12    13    1
    41    34    35    1
    42     2    37    1
    43    43    41   ar
    44    37    36    1
    45    35    36    2
    46    35    38    1
    47    36    39    1
    48    41    40    1
    49    41    42   ar
    50    40    39    1
