@<TRIPOS>MOLECULE
2itk_III_B_1.pdb
 49 51 0 0 0
SMALL
GASTEIGER

@<TRIPOS>ATOM
      1  N         35.4070   32.0600   24.2830 N.3   501  PHE501     -0.1231
      2  CA        34.5740   31.3450   23.3130 C.3   501  PHE501      0.1694
      3  C         34.7720   29.8460   23.6530 C.2   501  PHE501      0.2593
      4  O         35.9280   29.1490   23.5020 O.2   501  PHE501     -0.2718
      5  CB        34.9440   31.6710   21.8630 C.3   501  PHE501      0.0304
      6  N         33.6700   29.2940   24.1150 N.am  502  D11502     -0.1941
      7  CA        33.3440   27.9220   24.5770 C.3   502  D11502      0.1987
      8  CB        32.0100   27.5790   25.1320 C.3   502  D11502      0.1550
      9  CG2       31.7050   26.1080   25.4170 C.3   502  D11502      0.0350
     10  OG1       31.0260   27.9220   24.2050 O.3   502  D11502     -0.2705
     11  P         30.0650   29.1950   24.2400 P.3   502  D11502      0.5326
     12  O1P       30.9470   30.5570   24.0170 O.3   502  D11502     -0.1145
     13  O2P       29.3570   29.3030   25.6960 O.3   502  D11502     -0.1145
     14  O3P       29.1560   28.8350   22.9450 O.2   502  D11502     -0.2224
     15  C         34.4510   27.4590   25.5280 C.2   502  D11502      0.2483
     16  O         34.4610   28.3130   26.6050 O.2   502  D11502     -0.2729
     17  C         37.6910   26.7620   26.5280 C.2   503  YCP503      0.2598
     18  N         35.3120   26.4910   25.3980 N.am  503  YCP503     -0.2715
     19  O         38.8560   26.4170   27.0700 O.2   503  YCP503     -0.2715
     20  CA        36.2670   26.1920   26.4850 C.3   503  YCP503      0.1535
     21  CB        36.6090   24.6930   26.7880 C.3   503  YCP503      0.0293
     22  CD        35.7020   24.1640   24.1950 C.3   503  YCP503      0.0216
     23  CE        35.5890   25.6340   24.2010 C.3   503  YCP503      0.0939
     24  CG        36.6990   24.0090   25.3860 C.3   503  YCP503      0.0040
     25  C1        40.8380   28.4860   22.4850 C.ar  504  ALA504     -0.0042
     26  C2        39.5120   28.7360   22.9470 C.ar  504  ALA504     -0.0200
     27  C3        38.4440   28.0600   22.2650 C.ar  504  ALA504     -0.0042
     28  C4        38.6450   27.1660   21.1580 C.ar  504  ALA504     -0.0003
     29  C4A       39.9850   26.9410   20.7100 C.ar  504  ALA504     -0.0000
     30  C5        40.3080   26.0770   19.6120 C.ar  504  ALA504     -0.0000
     31  C6        41.6470   25.8600   19.1770 C.ar  504  ALA504     -0.0000
     32  C7        42.7120   26.5290   19.8490 C.ar  504  ALA504     -0.0000
     33  C8        42.4830   27.4140   20.9560 C.ar  504  ALA504     -0.0000
     34  C8A       41.1110   27.6130   21.3740 C.ar  504  ALA504     -0.0003
     35  C9        39.0990   29.6370   24.1170 C.3   504  ALA504      0.0574
     36  CA        39.0370   28.7490   25.4170 C.3   504  ALA504      0.1771
     37  C         39.3080   29.6310   26.6390 C.2   504  ALA504      0.2623
     38  N         37.8170   27.8570   25.7210 N.am  504  ALA504     -0.1960
     39  O         38.1290   30.0950   27.1730 O.2   504  ALA504     -0.2715
     40  N         40.4670   29.8500   27.2680 N.am  505  GLN505     -0.1917
     41  CA        40.7720   30.5930   28.5110 C.3   505  GLN505      0.1965
     42  C         40.2630   32.0510   28.5900 C.2   505  GLN505      0.2848
     43  O         39.6330   32.4170   29.7470 O.2   505  GLN505     -0.2694
     44  CB        42.2960   30.6010   28.7910 C.2   505  GLN505      0.0091
     45  CG        43.0810   30.6490   30.1310 C.2   505  GLN505      0.0587
     46  CD        44.6170   30.8290   29.9950 C.2   505  GLN505      0.2841
     47  OE1       45.4740   29.9410   30.5390 O.2   505  GLN505     -0.2667
     48  NE2       45.0780   31.9090   29.3130 N.am  505  GLN505     -0.0837
     49  N         40.4830   32.7980   27.4860 N.am  506  NH2506     -0.0860
@<TRIPOS>BOND
     1    31    30   ar
     2    31    32   ar
     3    30    29   ar
     4    32    33   ar
     5    29    28   ar
     6    29    34   ar
     7    33    34   ar
     8    28    27   ar
     9    34    25   ar
    10     5     2    1
    11    27    26   ar
    12    25    26   ar
    13    14    11    2
    14    26    35    1
    15     2     3    1
    16     2     1    1
    17     4     3    2
    18     3     6   am
    19    12    11    1
    20     6     7    1
    21    35    36    1
    22    22    23    1
    23    22    24    1
    24    23    18    1
    25    10    11    1
    26    10     8    1
    27    11    13    1
    28     7     8    1
    29     7    15    1
    30     8     9    1
    31    24    21    1
    32    18    15   am
    33    18    20    1
    34    36    38    1
    35    36    37    1
    36    15    16    2
    37    38    17   am
    38    20    17    1
    39    20    21    1
    40    17    19    2
    41    37    39    2
    42    37    40   am
    43    40    41    1
    44    49    42   am
    45    41    42    1
    46    41    44    1
    47    42    43    2
    48    44    45    2
    49    48    46   am
    50    46    45    1
    51    46    47    2
