@<TRIPOS>MOLECULE
2itm_XUL_A_1.pdb
 10 9 0 0 0
SMALL
GASTEIGER

@<TRIPOS>ATOM
      1  C1        25.5800   68.7180   92.6580 C.3   4930  XUL4930     0.2175
      2  C2        24.6120   68.5500   93.8170 C.3   4930  XUL4930     0.2175
      3  C3        23.8300   69.7340   94.2640 C.3   4930  XUL4930     0.2175
      4  C4        22.3960   69.4160   93.9320 C.3   4930  XUL4930     0.2175
      5  C5        21.5040   70.6400   93.9300 C.3   4930  XUL4930     0.2175
      6  O1        26.8190   69.2070   93.1020 O.3   4930  XUL4930    -0.2175
      7  O2        24.0440   67.2810   94.0540 O.3   4930  XUL4930    -0.2175
      8  O3        24.2230   70.7920   93.4390 O.3   4930  XUL4930    -0.2175
      9  O4        22.4460   68.8590   92.6480 O.3   4930  XUL4930    -0.2175
     10  O5        22.2810   71.7650   94.1920 O.3   4930  XUL4930    -0.2175
@<TRIPOS>BOND
     1     9     4    1
     2     1     6    1
     3     1     2    1
     4     8     3    1
     5     2     7    1
     6     2     3    1
     7     5     4    1
     8     5    10    1
     9     4     3    1
