@<TRIPOS>MOLECULE
2itn_ANP_A_1.pdb
 31 33 0 0 0
SMALL
GASTEIGER

@<TRIPOS>ATOM
      1  PG       -48.9190   -6.7160  -26.7340 P.3   2021  ANP2021     0.4884
      2  O1G      -49.7120   -5.5790  -27.3500 O.3   2021  ANP2021    -0.1240
      3  O2G      -48.8480   -8.0290  -27.4740 O.2   2021  ANP2021    -0.2331
      4  O3G      -49.2580   -6.9680  -25.2760 O.3   2021  ANP2021    -0.1240
      5  PB       -46.6570   -5.2400  -25.5880 P.3   2021  ANP2021     0.4669
      6  O1B      -45.8950   -6.2600  -24.7580 O.3   2021  ANP2021    -0.1253
      7  O2B      -45.9140   -3.9980  -26.0420 O.2   2021  ANP2021    -0.2351
      8  N3B      -47.3050   -6.0900  -26.9600 N.3   2021  ANP2021    -0.0163
      9  PA       -49.1310   -3.7210  -25.0740 P.3   2021  ANP2021     0.2220
     10  O1A      -50.4750   -4.3850  -25.3320 O.3   2021  ANP2021    -0.4370
     11  O2A      -48.6020   -2.7050  -26.0600 O.2   2021  ANP2021    -0.5170
     12  O3A      -47.9780   -4.8200  -24.7290 O.3   2021  ANP2021    -0.2360
     13  O5'      -49.1490   -3.0310  -23.6240 O.3   2021  ANP2021    -0.3111
     14  C5'      -48.3600   -3.6190  -22.5990 C.3   2021  ANP2021     0.1813
     15  C4'      -48.8300   -3.0590  -21.2780 C.3   2021  ANP2021     0.1821
     16  O4'      -48.9330   -1.6380  -21.4050 O.3   2021  ANP2021    -0.3135
     17  C3'      -50.2200   -3.5310  -20.8850 C.3   2021  ANP2021     0.2184
     18  O3'      -50.2210   -4.7570  -20.1690 O.3   2021  ANP2021    -0.2174
     19  C2'      -50.6150   -2.3990  -19.9740 C.3   2021  ANP2021     0.2570
     20  O2'      -50.0180   -2.5820  -18.6880 O.3   2021  ANP2021    -0.2130
     21  C1'      -50.0380   -1.1510  -20.6470 C.3   2021  ANP2021     0.3186
     22  N9       -51.0860   -0.5680  -21.5320 N.pl3 2021  ANP2021    -0.1439
     23  C8       -51.2280   -0.7890  -22.8610 C.3   2021  ANP2021     0.3377
     24  N7       -52.2980   -0.1160  -23.3560 N.2   2021  ANP2021    -0.2095
     25  C5       -52.8720    0.5400  -22.3260 C.2   2021  ANP2021     0.2526
     26  C6       -54.0440    1.4300  -22.1460 C.2   2021  ANP2021     0.4393
     27  N6       -54.8510    1.7520  -23.1760 N.pl3 2021  ANP2021     0.2180
     28  N1       -54.2960    1.9180  -20.9300 N.2   2021  ANP2021     0.0021
     29  C2       -53.5110    1.5910  -19.8890 C.3   2021  ANP2021     0.5254
     30  N3       -52.4360    0.7810  -19.9770 N.2   2021  ANP2021    -0.0055
     31  C4       -52.0740    0.2330  -21.1410 C.2   2021  ANP2021     0.3518
@<TRIPOS>BOND
     1     3     1    2
     2     2     1    1
     3     8     1    1
     4     8     5    1
     5     1     4    1
     6    11     9    2
     7     7     5    2
     8     5     6    1
     9     5    12    1
    10    10     9    1
    11     9    12    1
    12     9    13    1
    13    13    14    1
    14    24    23    1
    15    24    25    2
    16    27    26    1
    17    23    22    1
    18    14    15    1
    19    25    26    1
    20    25    31    1
    21    26    28    2
    22    22    31    1
    23    22    21    1
    24    16    15    1
    25    16    21    1
    26    15    17    1
    27    31    30    2
    28    28    29    1
    29    17    18    1
    30    17    19    1
    31    21    19    1
    32    30    29    1
    33    19    20    1
