@<TRIPOS>MOLECULE
2ito_IRE_A_1.pdb
 31 34 0 0 0
SMALL
GASTEIGER

@<TRIPOS>ATOM
      1  CAO      -45.4800   -2.7160  -15.7450 C.3   2020  IRE2020     0.1046
      2  CAL      -44.4060   -3.5920  -15.0750 C.3   2020  IRE2020     0.1595
      3  OAU      -43.4570   -4.0220  -16.1080 O.3   2020  IRE2020    -0.3508
      4  CAM      -44.0750   -4.8660  -17.1340 C.3   2020  IRE2020     0.1595
      5  CAP      -45.2550   -4.1730  -17.8460 C.3   2020  IRE2020     0.1046
      6  NBE      -46.1310   -3.3930  -16.9140 N.3   2020  IRE2020    -0.2683
      7  CAN      -46.7510   -2.3190  -17.7170 C.3   2020  IRE2020     0.0761
      8  CAJ      -48.2760   -2.4690  -17.8210 C.3   2020  IRE2020     0.0646
      9  CAK      -48.8310   -1.4830  -18.8750 C.3   2020  IRE2020     0.2070
     10  OAV      -49.1940   -0.1540  -18.3610 O.2   2020  IRE2020    -0.4727
     11  CBA      -50.2350    0.4780  -19.0000 C.2   2020  IRE2020     0.1687
     12  CAZ      -51.1310    1.2010  -18.2160 C.2   2020  IRE2020     0.1558
     13  CAH      -52.1950    1.8590  -18.8390 C.3   2020  IRE2020     0.1127
     14  OAT      -50.9480    1.2280  -16.8510 O.2   2020  IRE2020    -0.4723
     15  CAA      -51.1650    2.4870  -16.1950 C.3   2020  IRE2020     0.2521
     16  CAI      -50.3990    0.4370  -20.3940 C.2   2020  IRE2020     0.0484
     17  C5       -51.4580    1.1010  -21.0030 C.2   2020  IRE2020     0.1027
     18  C4       -52.3520    1.8070  -20.2220 C.2   2020  IRE2020     0.0732
     19  N3       -53.3700    2.4460  -20.8190 N.2   2020  IRE2020    -0.2223
     20  C2       -53.5590    2.4110  -22.1310 C.3   2020  IRE2020     0.3917
     21  N1       -52.7310    1.7450  -22.9050 N.2   2020  IRE2020    -0.0327
     22  C6       -51.6810    1.0850  -22.3780 C.2   2020  IRE2020     0.3643
     23  NAS      -50.8760    0.4060  -23.1830 N.pl3 2020  IRE2020    -0.0060
     24  CAY      -50.9780    0.4720  -24.5090 C.ar  2020  IRE2020     0.1844
     25  CAG      -50.9250    1.7140  -25.1330 C.ar  2020  IRE2020     0.0581
     26  CAX      -51.0070    1.8060  -26.5120 C.ar  2020  IRE2020     0.0886
     27 CL        -50.9430    3.3600  -27.2400 Cl    2020  IRE2020    -0.0798
     28  CAW      -51.1410    0.6670  -27.2930 C.ar  2020  IRE2020     0.1508
     29  FAB      -51.2180    0.7930  -28.6340 F     2020  IRE2020    -0.2033
     30  CAD      -51.1890   -0.5850  -26.6740 C.ar  2020  IRE2020     0.0342
     31  CAE      -51.1030   -0.6820  -25.2800 C.ar  2020  IRE2020     0.0468
@<TRIPOS>BOND
     1    29    28    1
     2    28    30   ar
     3    28    26   ar
     4    27    26    1
     5    30    31   ar
     6    26    25   ar
     7    31    24   ar
     8    25    24   ar
     9    24    23    1
    10    23    22    1
    11    21    22    2
    12    21    20    1
    13    22    17    1
    14    20    19    1
    15    17    16    2
    16    17    18    1
    17    19    18    2
    18    16    11    1
    19    18    13    1
    20    11    10    1
    21    11    12    2
    22     9    10    1
    23     9     8    1
    24    13    12    1
    25    12    14    1
    26     5     4    1
    27     5     6    1
    28     8     7    1
    29     7     6    1
    30     4     3    1
    31     6     1    1
    32    14    15    1
    33     3     2    1
    34     1     2    1
