@<TRIPOS>MOLECULE
2itp_AEE_A_1.pdb
 33 37 0 0 0
SMALL
GASTEIGER

@<TRIPOS>ATOM
      1  CAQ      -50.6230   -0.5830  -12.5610 C.3   2019  AEE2019     0.0899
      2  CAO      -49.5610   -0.7780  -11.4520 C.3   2019  AEE2019     0.0897
      3  NBF      -49.3020   -2.2240  -11.1470 N.3   2019  AEE2019    -0.2703
      4  CAN      -50.3550   -2.7930  -10.2580 C.3   2019  AEE2019     0.0722
      5  CAA      -50.5150   -1.9410   -8.9750 C.3   2019  AEE2019     0.0188
      6  CAP      -49.0080   -3.0800  -12.3420 C.3   2019  AEE2019     0.0897
      7  CAR      -49.7880   -2.7090  -13.6360 C.3   2019  AEE2019     0.0899
      8  NBG      -50.1890   -1.2670  -13.8070 N.3   2019  AEE2019    -0.2665
      9  CAS      -49.1930   -0.4480  -14.5800 C.3   2019  AEE2019     0.0992
     10  CAX      -49.9080   -0.1170  -15.8880 C.ar  2019  AEE2019    -0.0061
     11  CAI      -50.9130    0.8550  -15.9060 C.ar  2019  AEE2019    -0.0028
     12  CAK      -51.5930    1.1200  -17.0980 C.ar  2019  AEE2019     0.0023
     13  CAJ      -49.5910   -0.8370  -17.0350 C.ar  2019  AEE2019    -0.0028
     14  CAL      -50.2700   -0.5710  -18.2180 C.ar  2019  AEE2019     0.0023
     15  CAY      -51.2600    0.4100  -18.2610 C.ar  2019  AEE2019     0.0305
     16  CBA      -51.9420    0.6390  -19.4570 C.2   2019  AEE2019     0.1437
     17  NAW      -53.0900    1.3230  -19.5730 N.2   2019  AEE2019    -0.3503
     18  CAM      -51.5900    0.1700  -20.6560 C.2   2019  AEE2019     0.0516
     19  C5       -52.4940    0.5780  -21.5400 C.2   2019  AEE2019     0.1615
     20  C4       -53.4470    1.3140  -20.8530 C.1   2019  AEE2019     0.0942
     21  N3       -54.4940    1.8370  -21.5270 N.2   2019  AEE2019    -0.1548
     22  C2       -54.6330    1.6530  -22.8450 C.3   2019  AEE2019     0.4013
     23  N1       -53.7350    0.9560  -23.5300 N.2   2019  AEE2019    -0.0317
     24  C6       -52.6520    0.4060  -22.9160 C.2   2019  AEE2019     0.3689
     25  NAV      -51.7500   -0.3020  -23.6120 N.pl3 2019  AEE2019    -0.0307
     26  CBE      -52.1210   -0.8630  -24.9160 C.3   2019  AEE2019     0.2274
     27  CAB      -51.2500   -2.0690  -25.3010 C.3   2019  AEE2019     0.0603
     28  CAZ      -52.0290    0.2630  -25.9540 C.ar  2019  AEE2019     0.0239
     29  CAG      -51.4470    1.5000  -25.5840 C.ar  2019  AEE2019    -0.0003
     30  CAD      -51.3600    2.5610  -26.4940 C.ar  2019  AEE2019    -0.0002
     31  CAC      -51.8640    2.3520  -27.7840 C.ar  2019  AEE2019    -0.0000
     32  CAE      -52.4400    1.1210  -28.1590 C.ar  2019  AEE2019    -0.0002
     33  CAH      -52.5420    0.0670  -27.2480 C.ar  2019  AEE2019    -0.0003
@<TRIPOS>BOND
     1    32    31   ar
     2    32    33   ar
     3    31    30   ar
     4    33    28   ar
     5    30    29   ar
     6    28    29   ar
     7    28    26    1
     8    27    26    1
     9    26    25    1
    10    25    24    1
    11    23    24    2
    12    23    22    1
    13    24    19    1
    14    22    21    1
    15    19    20    1
    16    19    18    2
    17    21    20    2
    18    20    17    2
    19    18    16    1
    20    17    16    2
    21    16    15    1
    22    15    14   ar
    23    15    12   ar
    24    14    13   ar
    25    12    11   ar
    26    13    10   ar
    27    11    10   ar
    28    10     9    1
    29     9     8    1
    30     8     7    1
    31     8     1    1
    32     7     6    1
    33     1     2    1
    34     6     3    1
    35     2     3    1
    36     3     4    1
    37     4     5    1
