@<TRIPOS>MOLECULE
2itq_STU_A_1.pdb
 35 42 0 0 0
SMALL
GASTEIGER

@<TRIPOS>ATOM
      1  O4       -48.5330   -2.2820  -22.9360 O.3   2019  STU2019    -0.3186
      2  C25      -49.2370   -2.3580  -21.7660 C.3   2019  STU2019     0.2076
      3  C24      -49.2800   -3.7200  -21.0140 C.3   2019  STU2019     0.0739
      4  C23      -49.3360   -4.8460  -22.1010 C.3   2019  STU2019     0.1086
      5  C22      -49.9900   -4.3130  -23.3990 C.3   2019  STU2019     0.1761
      6  C21      -49.3520   -2.9600  -23.9450 C.3   2019  STU2019     0.1915
      7  C26      -48.4790   -3.3480  -25.1570 C.3   2019  STU2019     0.0566
      8  N2       -50.4660   -1.9850  -24.3390 N.ar  2019  STU2019    -0.3054
      9  C18      -51.0990   -1.0980  -23.5370 C.ar  2019  STU2019     0.0773
     10  C19      -50.9330   -0.8040  -22.1590 C.ar  2019  STU2019     0.0777
     11  C6       -51.7040    0.1650  -21.4780 C.ar  2019  STU2019     0.0250
     12  C7       -52.6800    0.8850  -22.2180 C.ar  2019  STU2019     0.0819
     13  C10      -52.8350    0.5780  -23.5930 C.ar  2019  STU2019     0.0154
     14  C11      -52.0550   -0.3980  -24.2700 C.ar  2019  STU2019     0.0173
     15  C12      -51.9900   -0.9040  -25.5890 C.ar  2019  STU2019     0.0171
     16  C17      -50.9760   -1.8970  -25.6000 C.ar  2019  STU2019     0.0617
     17  C16      -50.7000   -2.5930  -26.8150 C.ar  2019  STU2019     0.0172
     18  C15      -51.4180   -2.2990  -27.9890 C.ar  2019  STU2019     0.0015
     19  C14      -52.4090   -1.3090  -27.9670 C.ar  2019  STU2019     0.0001
     20  C13      -52.7010   -0.6210  -26.7770 C.ar  2019  STU2019     0.0015
     21  C9       -53.9530    1.4390  -24.1630 C.3   2019  STU2019     0.1650
     22  N1       -54.3960    2.1810  -22.9810 N.2   2019  STU2019    -0.1976
     23  C8       -53.6400    1.8750  -21.9130 C.1   2019  STU2019     0.1501
     24  O5       -53.8460    2.3910  -20.8070 O.2   2019  STU2019    -0.2222
     25  C5       -51.2370    0.1300  -20.1490 C.ar  2019  STU2019    -0.0083
     26  C20      -50.2150   -0.8370  -20.0780 C.ar  2019  STU2019     0.0352
     27  C1       -49.4550   -1.1560  -18.7700 C.3   2019  STU2019     0.0435
     28  C2       -50.2590   -0.6830  -17.5420 C.3   2019  STU2019     0.0066
     29  C3       -50.7880    0.7680  -17.6910 C.3   2019  STU2019     0.0051
     30  C4       -51.6970    0.9740  -18.9410 C.3   2019  STU2019     0.0276
     31  N3       -50.0590   -1.3810  -21.3170 N.ar  2019  STU2019    -0.3080
     32  O6       -51.4190   -4.2910  -23.1650 O.3   2019  STU2019    -0.3478
     33  C27      -52.0490   -4.8170  -24.3290 C.3   2019  STU2019     0.1743
     34  N4       -50.0330   -6.0940  -21.6790 N.3   2019  STU2019    -0.2152
     35  C28      -49.1760   -6.9860  -20.8460 C.3   2019  STU2019     0.1075
@<TRIPOS>BOND
     1    18    19   ar
     2    18    17   ar
     3    19    20   ar
     4    17    16   ar
     5    20    15   ar
     6    16    15   ar
     7    16     8   ar
     8    15    14   ar
     9     7     6    1
    10     8     6    1
    11     8     9   ar
    12    33    32    1
    13    14    13   ar
    14    14     9   ar
    15    21    13    1
    16    21    22    1
    17     6     5    1
    18     6     1    1
    19    13    12   ar
    20     9    10   ar
    21     5    32    1
    22     5     4    1
    23    22    23    2
    24     1     2    1
    25    12    23    1
    26    12    11   ar
    27    10    11   ar
    28    10    31   ar
    29     4    34    1
    30     4     3    1
    31    23    24    2
    32     2    31    1
    33     2     3    1
    34    34    35    1
    35    11    25   ar
    36    31    26   ar
    37    25    26   ar
    38    25    30    1
    39    26    27    1
    40    30    29    1
    41    27    28    1
    42    29    28    1
