@<TRIPOS>MOLECULE
2itt_AEE_A_1.pdb
 33 37 0 0 0
SMALL
GASTEIGER

@<TRIPOS>ATOM
      1  CAQ      -50.7210   -0.7810  -12.2970 C.3   2020  AEE2020     0.0899
      2  CAO      -49.5810   -1.4720  -11.4860 C.3   2020  AEE2020     0.0897
      3  NBF      -49.4390   -2.9180  -11.8180 N.3   2020  AEE2020    -0.2703
      4  CAN      -50.5420   -3.7350  -11.2330 C.3   2020  AEE2020     0.0722
      5  CAA      -50.0450   -4.4560   -9.9620 C.3   2020  AEE2020     0.0188
      6  CAP      -49.3030   -3.1600  -13.2780 C.3   2020  AEE2020     0.0897
      7  CAR      -50.5030   -2.5640  -14.0510 C.3   2020  AEE2020     0.0899
      8  NBG      -50.7030   -1.1070  -13.7630 N.3   2020  AEE2020    -0.2665
      9  CAS      -49.7860   -0.2560  -14.5780 C.3   2020  AEE2020     0.0992
     10  CAX      -50.4280   -0.0680  -15.9830 C.ar  2020  AEE2020    -0.0061
     11  CAI      -51.5020    0.8200  -16.1410 C.ar  2020  AEE2020    -0.0028
     12  CAK      -52.0860    0.9790  -17.4070 C.ar  2020  AEE2020     0.0023
     13  CAJ      -49.9620   -0.7930  -17.1020 C.ar  2020  AEE2020    -0.0028
     14  CAL      -50.5530   -0.6360  -18.3700 C.ar  2020  AEE2020     0.0023
     15  CAY      -51.6170    0.2770  -18.5500 C.ar  2020  AEE2020     0.0305
     16  CBA      -52.2660    0.4580  -19.7990 C.2   2020  AEE2020     0.1437
     17  NAW      -53.4050    1.1720  -19.9560 N.2   2020  AEE2020    -0.3503
     18  CAM      -51.9340   -0.0420  -21.0060 C.2   2020  AEE2020     0.0516
     19  C5       -52.8520    0.3590  -21.9170 C.2   2020  AEE2020     0.1615
     20  C4       -53.7830    1.1400  -21.2240 C.1   2020  AEE2020     0.0942
     21  N3       -54.8340    1.6600  -21.8510 N.2   2020  AEE2020    -0.1548
     22  C2       -55.0140    1.4680  -23.1650 C.3   2020  AEE2020     0.4013
     23  N1       -54.1620    0.7450  -23.8950 N.2   2020  AEE2020    -0.0317
     24  C6       -53.0560    0.1510  -23.3160 C.2   2020  AEE2020     0.3689
     25  NAV      -52.1840   -0.5970  -24.0670 N.pl3 2020  AEE2020    -0.0307
     26  CBE      -52.5000   -1.0620  -25.4430 C.3   2020  AEE2020     0.2274
     27  CAB      -51.5830   -2.2000  -25.9180 C.3   2020  AEE2020     0.0603
     28  CAZ      -52.4430    0.1080  -26.4510 C.ar  2020  AEE2020     0.0239
     29  CAG      -51.9650    1.3760  -26.0540 C.ar  2020  AEE2020    -0.0003
     30  CAD      -51.9230    2.4620  -26.9480 C.ar  2020  AEE2020    -0.0002
     31  CAC      -52.3620    2.2610  -28.2710 C.ar  2020  AEE2020    -0.0000
     32  CAE      -52.8350    0.9930  -28.6750 C.ar  2020  AEE2020    -0.0002
     33  CAH      -52.8820   -0.0840  -27.7730 C.ar  2020  AEE2020    -0.0003
@<TRIPOS>BOND
     1    32    31   ar
     2    32    33   ar
     3    31    30   ar
     4    33    28   ar
     5    30    29   ar
     6    28    29   ar
     7    28    26    1
     8    27    26    1
     9    26    25    1
    10    25    24    1
    11    23    24    2
    12    23    22    1
    13    24    19    1
    14    22    21    1
    15    19    20    1
    16    19    18    2
    17    21    20    2
    18    20    17    2
    19    18    16    1
    20    17    16    2
    21    16    15    1
    22    15    14   ar
    23    15    12   ar
    24    14    13   ar
    25    12    11   ar
    26    13    10   ar
    27    11    10   ar
    28    10     9    1
    29     9     8    1
    30     7     8    1
    31     7     6    1
    32     8     1    1
    33     6     3    1
    34     1     2    1
    35     3     2    1
    36     3     4    1
    37     4     5    1
