@<TRIPOS>MOLECULE
2itu_STU_A_1.pdb
 35 42 0 0 0
SMALL
GASTEIGER

@<TRIPOS>ATOM
      1  O4       -47.1360   -1.2090  -19.5330 O.3   2020  STU2020    -0.3186
      2  C25      -48.2140   -1.2840  -18.6910 C.3   2020  STU2020     0.2076
      3  C24      -48.2970   -2.4440  -17.6750 C.3   2020  STU2020     0.0739
      4  C23      -47.7710   -3.7060  -18.3860 C.3   2020  STU2020     0.1086
      5  C22      -47.9450   -3.6030  -19.9560 C.3   2020  STU2020     0.1761
      6  C21      -47.3970   -2.2000  -20.5910 C.3   2020  STU2020     0.1915
      7  C26      -46.0420   -2.4270  -21.2750 C.3   2020  STU2020     0.0566
      8  N2       -48.4800   -1.5600  -21.5860 N.ar  2020  STU2020    -0.3054
      9  C18      -49.5090   -0.7480  -21.2320 C.ar  2020  STU2020     0.0773
     10  C19      -49.8990   -0.2570  -19.9670 C.ar  2020  STU2020     0.0777
     11  C6       -51.0120    0.5830  -19.7870 C.ar  2020  STU2020     0.0250
     12  C7       -51.7720    0.9500  -20.9190 C.ar  2020  STU2020     0.0819
     13  C10      -51.3620    0.4490  -22.1690 C.ar  2020  STU2020     0.0154
     14  C11      -50.2540   -0.3910  -22.3480 C.ar  2020  STU2020     0.0173
     15  C12      -49.6510   -1.0190  -23.4370 C.ar  2020  STU2020     0.0171
     16  C17      -48.5470   -1.7450  -22.9360 C.ar  2020  STU2020     0.0617
     17  C16      -47.7690   -2.4720  -23.8530 C.ar  2020  STU2020     0.0172
     18  C15      -48.0670   -2.4750  -25.2200 C.ar  2020  STU2020     0.0015
     19  C14      -49.1620   -1.7540  -25.6980 C.ar  2020  STU2020     0.0001
     20  C13      -49.9530   -1.0260  -24.8070 C.ar  2020  STU2020     0.0015
     21  C9       -52.3050    0.9740  -23.2260 C.3   2020  STU2020     0.1650
     22  N1       -53.2450    1.7870  -22.4330 N.2   2020  STU2020    -0.1976
     23  C8       -52.9160    1.7510  -21.1480 C.1   2020  STU2020     0.1501
     24  O5       -53.5980    2.3620  -20.3240 O.2   2020  STU2020    -0.2222
     25  C5       -51.0450    0.8440  -18.4040 C.ar  2020  STU2020    -0.0083
     26  C20      -49.9760    0.1540  -17.8020 C.ar  2020  STU2020     0.0352
     27  C1       -49.6810    0.1970  -16.2740 C.3   2020  STU2020     0.0435
     28  C2       -50.7960    0.9190  -15.4730 C.3   2020  STU2020     0.0066
     29  C3       -51.4410    2.1120  -16.2240 C.3   2020  STU2020     0.0051
     30  C4       -52.0350    1.7100  -17.5980 C.3   2020  STU2020     0.0276
     31  N3       -49.3080   -0.5010  -18.7850 N.ar  2020  STU2020    -0.3080
     32  O6       -49.3350   -4.0050  -20.3620 O.3   2020  STU2020    -0.3478
     33  C27      -49.3930   -5.3740  -20.8460 C.3   2020  STU2020     0.1743
     34  N4       -48.4040   -4.9170  -17.8130 N.3   2020  STU2020    -0.2152
     35  C28      -47.4100   -6.0060  -17.7200 C.3   2020  STU2020     0.1075
@<TRIPOS>BOND
     1    19    18   ar
     2    19    20   ar
     3    18    17   ar
     4    20    15   ar
     5    17    16   ar
     6    15    16   ar
     7    15    14   ar
     8    21    22    1
     9    21    13    1
    10    16     8   ar
    11    22    23    2
    12    14    13   ar
    13    14     9   ar
    14    13    12   ar
    15     8     9   ar
    16     8     6    1
    17     7     6    1
    18     9    10   ar
    19    23    12    1
    20    23    24    2
    21    12    11   ar
    22    33    32    1
    23     6     5    1
    24     6     1    1
    25    32     5    1
    26    10    11   ar
    27    10    31   ar
    28     5     4    1
    29    11    25   ar
    30     1     2    1
    31    31     2    1
    32    31    26   ar
    33     2     3    1
    34    25    26   ar
    35    25    30    1
    36     4    34    1
    37     4     3    1
    38    34    35    1
    39    26    27    1
    40    30    29    1
    41    27    28    1
    42    29    28    1
