@<TRIPOS>MOLECULE
2itv_ANP_A_1.pdb
 31 33 0 0 0
SMALL
GASTEIGER

@<TRIPOS>ATOM
      1  PG       -49.0030   -6.6650  -26.7950 P.3   2020  ANP2020     0.4884
      2  O1G      -49.9410   -5.5470  -27.2210 O.3   2020  ANP2020    -0.1240
      3  O2G      -48.8680   -7.8250  -27.7610 O.2   2020  ANP2020    -0.2331
      4  O3G      -49.2590   -7.1260  -25.3710 O.3   2020  ANP2020    -0.1240
      5  PB       -46.4630   -5.4690  -25.5360 P.3   2020  ANP2020     0.4669
      6  O1B      -45.8950   -6.6980  -24.8640 O.3   2020  ANP2020    -0.1253
      7  O2B      -45.4670   -4.3950  -25.9360 O.2   2020  ANP2020    -0.2351
      8  N3B      -47.3960   -5.9680  -26.9320 N.3   2020  ANP2020    -0.0163
      9  PA       -48.5600   -3.5910  -24.9160 P.3   2020  ANP2020     0.2220
     10  O1A      -49.9720   -4.1380  -25.1060 O.3   2020  ANP2020    -0.4370
     11  O2A      -47.9500   -2.6950  -25.9800 O.2   2020  ANP2020    -0.5170
     12  O3A      -47.5430   -4.8060  -24.5310 O.3   2020  ANP2020    -0.2360
     13  O5'      -48.4870   -2.7380  -23.5420 O.3   2020  ANP2020    -0.3111
     14  C5'      -47.6300   -3.1550  -22.4780 C.3   2020  ANP2020     0.1813
     15  C4'      -48.3540   -2.8400  -21.1910 C.3   2020  ANP2020     0.1821
     16  O4'      -48.5640   -1.4220  -21.1960 O.3   2020  ANP2020    -0.3135
     17  C3'      -49.7730   -3.4180  -21.0710 C.3   2020  ANP2020     0.2184
     18  O3'      -49.9090   -4.7350  -20.5510 O.3   2020  ANP2020    -0.2174
     19  C2'      -50.3450   -2.4560  -20.0610 C.3   2020  ANP2020     0.2570
     20  O2'      -49.8070   -2.7250  -18.7510 O.3   2020  ANP2020    -0.2130
     21  C1'      -49.8220   -1.1120  -20.5680 C.3   2020  ANP2020     0.3186
     22  N9       -50.8530   -0.5620  -21.5040 N.pl3 2020  ANP2020    -0.1439
     23  C8       -50.9540   -0.8020  -22.8320 C.3   2020  ANP2020     0.3377
     24  N7       -52.0250   -0.1390  -23.3540 N.2   2020  ANP2020    -0.2095
     25  C5       -52.6320    0.5320  -22.3460 C.2   2020  ANP2020     0.2526
     26  C6       -53.8270    1.4160  -22.2070 C.2   2020  ANP2020     0.4393
     27  N6       -54.5920    1.7070  -23.2810 N.pl3 2020  ANP2020     0.2180
     28  N1       -54.1170    1.9140  -20.9940 N.2   2020  ANP2020     0.0021
     29  C2       -53.3570    1.5910  -19.9300 C.3   2020  ANP2020     0.5254
     30  N3       -52.2700    0.7890  -19.9770 N.2   2020  ANP2020    -0.0055
     31  C4       -51.8670    0.2380  -21.1350 C.2   2020  ANP2020     0.3518
@<TRIPOS>BOND
     1     3     1    2
     2     2     1    1
     3     8     1    1
     4     8     5    1
     5     1     4    1
     6    11     9    2
     7     7     5    2
     8     5     6    1
     9     5    12    1
    10    10     9    1
    11     9    12    1
    12     9    13    1
    13    13    14    1
    14    24    23    1
    15    24    25    2
    16    27    26    1
    17    23    22    1
    18    14    15    1
    19    25    26    1
    20    25    31    1
    21    26    28    2
    22    22    31    1
    23    22    21    1
    24    16    15    1
    25    16    21    1
    26    15    17    1
    27    31    30    2
    28    17    18    1
    29    17    19    1
    30    28    29    1
    31    21    19    1
    32    19    20    1
    33    30    29    1
