@<TRIPOS>MOLECULE
2itw_STU_A_1.pdb
 35 42 0 0 0
SMALL
GASTEIGER

@<TRIPOS>ATOM
      1  O4       -46.6130   -0.3660  -19.2160 O.3   2018  STU2018    -0.3186
      2  C25      -47.6160   -0.5380  -18.3290 C.3   2018  STU2018     0.2076
      3  C24      -47.4230   -1.7300  -17.3690 C.3   2018  STU2018     0.0739
      4  C23      -46.5900   -2.8280  -18.1320 C.3   2018  STU2018     0.1086
      5  C22      -46.8540   -2.8750  -19.6940 C.3   2018  STU2018     0.1761
      6  C21      -46.7730   -1.3960  -20.2550 C.3   2018  STU2018     0.1915
      7  C26      -45.4490   -1.3370  -21.0300 C.3   2018  STU2018     0.0566
      8  N2       -47.9820   -0.9280  -21.1690 N.ar  2018  STU2018    -0.3054
      9  C18      -49.0590   -0.2080  -20.7830 C.ar  2018  STU2018     0.0773
     10  C19      -49.4540    0.2830  -19.5250 C.ar  2018  STU2018     0.0777
     11  C6       -50.6450    1.0130  -19.3520 C.ar  2018  STU2018     0.0250
     12  C7       -51.4730    1.2610  -20.4950 C.ar  2018  STU2018     0.0819
     13  C10      -51.0500    0.7600  -21.7320 C.ar  2018  STU2018     0.0154
     14  C11      -49.8690    0.0310  -21.8860 C.ar  2018  STU2018     0.0173
     15  C12      -49.2600   -0.5670  -22.9860 C.ar  2018  STU2018     0.0171
     16  C17      -48.0830   -1.1550  -22.5120 C.ar  2018  STU2018     0.0617
     17  C16      -47.2930   -1.8240  -23.4550 C.ar  2018  STU2018     0.0172
     18  C15      -47.6630   -1.8980  -24.7990 C.ar  2018  STU2018     0.0015
     19  C14      -48.8310   -1.3060  -25.2610 C.ar  2018  STU2018     0.0001
     20  C13      -49.6330   -0.6400  -24.3410 C.ar  2018  STU2018     0.0015
     21  C9       -52.0500    1.1080  -22.8120 C.3   2018  STU2018     0.1650
     22  N1       -53.0440    1.8530  -22.0610 N.2   2018  STU2018    -0.1976
     23  C8       -52.6930    1.9160  -20.7790 C.1   2018  STU2018     0.1501
     24  O5       -53.4130    2.5070  -19.9780 O.2   2018  STU2018    -0.2222
     25  C5       -50.6550    1.3170  -17.9750 C.ar  2018  STU2018    -0.0083
     26  C20      -49.4990    0.7630  -17.3930 C.ar  2018  STU2018     0.0352
     27  C1       -49.1870    0.9030  -15.8850 C.3   2018  STU2018     0.0435
     28  C2       -50.4540    1.2400  -15.0640 C.3   2018  STU2018     0.0066
     29  C3       -51.2990    2.3670  -15.6950 C.3   2018  STU2018     0.0051
     30  C4       -51.7140    2.1050  -17.1650 C.3   2018  STU2018     0.0276
     31  N3       -48.7950    0.1360  -18.3660 N.ar  2018  STU2018    -0.3080
     32  O6       -47.9910   -3.7300  -20.2470 O.3   2018  STU2018    -0.3478
     33  C27      -47.6530   -4.3620  -21.5510 C.3   2018  STU2018     0.1743
     34  N4       -46.7120   -4.1820  -17.5360 N.3   2018  STU2018    -0.2152
     35  C28      -45.6700   -5.1130  -18.0520 C.3   2018  STU2018     0.1075
@<TRIPOS>BOND
     1    19    18   ar
     2    19    20   ar
     3    18    17   ar
     4    20    15   ar
     5    17    16   ar
     6    15    16   ar
     7    15    14   ar
     8    21    22    1
     9    21    13    1
    10    16     8   ar
    11    22    23    2
    12    14    13   ar
    13    14     9   ar
    14    13    12   ar
    15    33    32    1
    16     8     9   ar
    17     8     6    1
    18     7     6    1
    19     9    10   ar
    20    23    12    1
    21    23    24    2
    22    12    11   ar
    23     6     5    1
    24     6     1    1
    25    32     5    1
    26     5     4    1
    27    10    11   ar
    28    10    31   ar
    29    11    25   ar
    30     1     2    1
    31    31     2    1
    32    31    26   ar
    33     2     3    1
    34     4    34    1
    35     4     3    1
    36    35    34    1
    37    25    26   ar
    38    25    30    1
    39    26    27    1
    40    30    29    1
    41    27    28    1
    42    29    28    1
