@<TRIPOS>MOLECULE
2itx_ANP_A_1.pdb
 31 33 0 0 0
SMALL
GASTEIGER

@<TRIPOS>ATOM
      1  PG       -48.6550   -6.4210  -26.1770 P.3   2020  ANP2020     0.4884
      2  O1G      -49.1900   -5.0030  -26.3030 O.3   2020  ANP2020    -0.1240
      3  O2G      -48.7590   -7.2540  -27.4460 O.2   2020  ANP2020    -0.2331
      4  O3G      -49.1910   -7.1990  -24.9640 O.3   2020  ANP2020    -0.1240
      5  PB       -46.1140   -4.9960  -24.9420 P.3   2020  ANP2020     0.4669
      6  O1B      -45.2210   -5.7600  -23.9750 O.3   2020  ANP2020    -0.1253
      7  O2B      -45.4300   -3.9810  -25.8820 O.2   2020  ANP2020    -0.2351
      8  N3B      -46.8990   -6.2140  -25.9650 N.3   2020  ANP2020    -0.0163
      9  PA       -48.0410   -2.8710  -24.1880 P.3   2020  ANP2020     0.2220
     10  O1A      -49.5070   -3.1290  -23.9090 O.3   2020  ANP2020    -0.4370
     11  O2A      -47.6600   -2.1560  -25.4780 O.2   2020  ANP2020    -0.5170
     12  O3A      -47.2770   -4.3040  -24.0250 O.3   2020  ANP2020    -0.2360
     13  O5'      -47.4430   -2.0660  -22.9180 O.3   2020  ANP2020    -0.3111
     14  C5'      -46.9750   -2.7690  -21.7640 C.3   2020  ANP2020     0.1813
     15  C4'      -47.8660   -2.4320  -20.5700 C.3   2020  ANP2020     0.1821
     16  O4'      -48.2130   -1.0280  -20.5790 O.3   2020  ANP2020    -0.3135
     17  C3'      -49.2200   -3.1620  -20.5720 C.3   2020  ANP2020     0.2184
     18  O3'      -49.2110   -4.4920  -20.0350 O.3   2020  ANP2020    -0.2174
     19  C2'      -50.1060   -2.2350  -19.7540 C.3   2020  ANP2020     0.2570
     20  O2'      -49.9640   -2.4500  -18.3340 O.3   2020  ANP2020    -0.2130
     21  C1'      -49.5790   -0.8530  -20.1300 C.3   2020  ANP2020     0.3186
     22  N9       -50.4950   -0.2770  -21.1700 N.pl3 2020  ANP2020    -0.1439
     23  C8       -50.4400   -0.4710  -22.5120 C.3   2020  ANP2020     0.3377
     24  N7       -51.4330    0.2010  -23.1520 N.2   2020  ANP2020    -0.2095
     25  C5       -52.1640    0.8470  -22.2120 C.2   2020  ANP2020     0.2526
     26  C6       -53.3670    1.7420  -22.1850 C.2   2020  ANP2020     0.4393
     27  N6       -54.0170    2.0970  -23.3330 N.pl3 2020  ANP2020     0.2180
     28  N1       -53.7920    2.1960  -20.9700 N.2   2020  ANP2020     0.0021
     29  C2       -53.1740    1.8540  -19.8200 C.3   2020  ANP2020     0.5254
     30  N3       -52.0940    1.0450  -19.7670 N.2   2020  ANP2020    -0.0055
     31  C4       -51.5460    0.5200  -20.9050 C.2   2020  ANP2020     0.3518
@<TRIPOS>BOND
     1     3     1    2
     2     2     1    1
     3     1     8    1
     4     1     4    1
     5     8     5    1
     6     7     5    2
     7    11     9    2
     8     5    12    1
     9     5     6    1
    10     9    12    1
    11     9    10    1
    12     9    13    1
    13    27    26    1
    14    24    23    1
    15    24    25    2
    16    13    14    1
    17    23    22    1
    18    25    26    1
    19    25    31    1
    20    26    28    2
    21    14    15    1
    22    22    31    1
    23    22    21    1
    24    28    29    1
    25    31    30    2
    26    16    15    1
    27    16    21    1
    28    17    15    1
    29    17    18    1
    30    17    19    1
    31    21    19    1
    32    29    30    1
    33    19    20    1
