@<TRIPOS>MOLECULE
2ity_IRE_A_1.pdb
 31 34 0 0 0
SMALL
GASTEIGER

@<TRIPOS>ATOM
      1  CAO      -45.3040   -2.9970  -16.8970 C.3   2020  IRE2020     0.1046
      2  CAL      -43.8270   -3.4930  -16.9960 C.3   2020  IRE2020     0.1595
      3  OAU      -43.2200   -3.2470  -18.3060 O.3   2020  IRE2020    -0.3508
      4  CAM      -43.9940   -3.9060  -19.3500 C.3   2020  IRE2020     0.1595
      5  CAP      -45.4960   -3.4890  -19.3580 C.3   2020  IRE2020     0.1046
      6  NBE      -46.1610   -3.4980  -18.0110 N.3   2020  IRE2020    -0.2683
      7  CAN      -47.4070   -2.6730  -18.0340 C.3   2020  IRE2020     0.0761
      8  CAJ      -48.6050   -3.3750  -18.8720 C.3   2020  IRE2020     0.0646
      9  CAK      -49.3370   -2.1730  -19.9370 C.3   2020  IRE2020     0.2070
     10  OAV      -50.0110   -1.1150  -19.0520 O.2   2020  IRE2020    -0.4727
     11  CBA      -51.0590   -0.4110  -19.6070 C.2   2020  IRE2020     0.1689
     12  CAZ      -51.8510    0.3220  -18.7380 C.2   2020  IRE2020     0.1733
     13  CAH      -52.9420    1.0520  -19.2100 C.2   2020  IRE2020     0.0553
     14  OAT      -51.5280    0.2890  -17.4160 O.2   2020  IRE2020    -0.4683
     15  CAA      -51.8800    1.5010  -16.6950 C.3   2020  IRE2020     0.2526
     16  CAI      -51.3720   -0.4090  -20.9680 C.2   2020  IRE2020     0.0318
     17  C5       -52.4640    0.3240  -21.4520 C.3   2020  IRE2020     0.1742
     18  C4       -53.2450    1.0570  -20.5630 C.2   2020  IRE2020     0.0769
     19  N3       -54.2870    1.7660  -21.0240 N.2   2020  IRE2020    -0.2220
     20  C2       -54.5850    1.7670  -22.3190 C.3   2020  IRE2020     0.3913
     21  N1       -53.8690    1.0820  -23.2060 N.2   2020  IRE2020    -0.0363
     22  C6       -52.8030    0.3520  -22.8180 C.2   2020  IRE2020     0.3483
     23  NAS      -52.0740   -0.3550  -23.7040 N.pl3 2020  IRE2020    -0.0094
     24  CAY      -52.1840   -0.3870  -25.0470 C.ar  2020  IRE2020     0.1841
     25  CAG      -52.1700    0.7900  -25.8000 C.ar  2020  IRE2020     0.0580
     26  CAX      -52.2600    0.7300  -27.1910 C.ar  2020  IRE2020     0.0886
     27 CL        -52.2640    2.1910  -28.1230 Cl    2020  IRE2020    -0.0798
     28  CAW      -52.3590   -0.4990  -27.8370 C.ar  2020  IRE2020     0.1508
     29  FAB      -52.4480   -0.5200  -29.1770 F     2020  IRE2020    -0.2033
     30  CAD      -52.3660   -1.6850  -27.0980 C.ar  2020  IRE2020     0.0342
     31  CAE      -52.2700   -1.6270  -25.7050 C.ar  2020  IRE2020     0.0468
@<TRIPOS>BOND
     1    29    28    1
     2    27    26    1
     3    28    26   ar
     4    28    30   ar
     5    26    25   ar
     6    30    31   ar
     7    25    24   ar
     8    31    24   ar
     9    24    23    1
    10    23    22    1
    11    21    22    2
    12    21    20    1
    13    22    17    1
    14    20    19    1
    15    17    16    1
    16    17    18    1
    17    19    18    2
    18    16    11    2
    19    18    13    1
    20     9    10    1
    21     9     8    1
    22    11    10    1
    23    11    12    1
    24     5     4    1
    25     5     6    1
    26     4     3    1
    27    13    12    2
    28     8     7    1
    29    12    14    1
    30     3     2    1
    31     7     6    1
    32     6     1    1
    33    14    15    1
    34     2     1    1
