@<TRIPOS>MOLECULE
2itz_IRE_A_1.pdb
 31 34 0 0 0
SMALL
GASTEIGER

@<TRIPOS>ATOM
      1  CAO      -47.1980   -4.1360  -17.5700 C.3   2021  IRE2021     0.1046
      2  CAL      -46.7890   -5.5260  -17.0320 C.3   2021  IRE2021     0.1595
      3  OAU      -47.0140   -6.6360  -18.0000 O.3   2021  IRE2021    -0.3508
      4  CAM      -48.3210   -6.6560  -18.6930 C.3   2021  IRE2021     0.1595
      5  CAP      -48.6940   -5.2500  -19.1760 C.3   2021  IRE2021     0.1046
      6  NBE      -48.5890   -4.2690  -18.0560 N.3   2021  IRE2021    -0.2683
      7  CAN      -49.0970   -2.9790  -18.5090 C.3   2021  IRE2021     0.0761
      8  CAJ      -49.9770   -3.2790  -19.7290 C.3   2021  IRE2021     0.0646
      9  CAK      -50.1290   -2.0010  -20.5060 C.3   2021  IRE2021     0.2070
     10  OAV      -50.7680   -1.1820  -19.5140 O.2   2021  IRE2021    -0.4727
     11  CBA      -51.7890   -0.5000  -20.0660 C.2   2021  IRE2021     0.1687
     12  CAZ      -52.5420    0.3110  -19.2520 C.2   2021  IRE2021     0.1558
     13  CAH      -53.6120    1.0440  -19.8070 C.3   2021  IRE2021     0.1127
     14  OAT      -52.1660    0.3310  -17.9350 O.2   2021  IRE2021    -0.4723
     15  CAA      -52.6820    1.4130  -17.0980 C.3   2021  IRE2021     0.2521
     16  CAI      -52.0670   -0.6040  -21.4190 C.2   2021  IRE2021     0.0484
     17  C5       -53.1160    0.1170  -21.9750 C.2   2021  IRE2021     0.1027
     18  C4       -53.8940    0.9450  -21.1770 C.2   2021  IRE2021     0.0732
     19  N3       -54.8960    1.6160  -21.7510 N.2   2021  IRE2021    -0.2223
     20  C2       -55.1550    1.4940  -23.0500 C.3   2021  IRE2021     0.3917
     21  N1       -54.4370    0.7190  -23.8420 N.2   2021  IRE2021    -0.0327
     22  C6       -53.3960    0.0080  -23.3370 C.2   2021  IRE2021     0.3643
     23  NAS      -52.6120   -0.8090  -24.0850 N.pl3 2021  IRE2021    -0.0060
     24  CAY      -52.6790   -0.8110  -25.4190 C.ar  2021  IRE2021     0.1844
     25  CAG      -52.7020    0.4180  -26.0960 C.ar  2021  IRE2021     0.0581
     26  CAX      -52.7880    0.4480  -27.4880 C.ar  2021  IRE2021     0.0886
     27 CL        -52.8460    1.9560  -28.3460 Cl    2021  IRE2021    -0.0798
     28  CAW      -52.8460   -0.7480  -28.1910 C.ar  2021  IRE2021     0.1508
     29  FAB      -52.9230   -0.6730  -29.5270 F     2021  IRE2021    -0.2033
     30  CAD      -52.8180   -1.9870  -27.5250 C.ar  2021  IRE2021     0.0342
     31  CAE      -52.7350   -2.0260  -26.1310 C.ar  2021  IRE2021     0.0468
@<TRIPOS>BOND
     1    29    28    1
     2    27    26    1
     3    28    30   ar
     4    28    26   ar
     5    30    31   ar
     6    26    25   ar
     7    31    24   ar
     8    25    24   ar
     9    24    23    1
    10    23    22    1
    11    21    22    2
    12    21    20    1
    13    22    17    1
    14    20    19    1
    15    17    16    2
    16    17    18    1
    17    19    18    2
    18    16    11    1
    19    18    13    1
    20     9     8    1
    21     9    10    1
    22    11    10    1
    23    11    12    2
    24    13    12    1
    25     8     7    1
    26    12    14    1
    27     5     4    1
    28     5     6    1
    29     4     3    1
    30     7     6    1
    31     6     1    1
    32     3     2    1
    33    14    15    1
    34     1     2    1
