@<TRIPOS>MOLECULE
2iu8_PLM_A_1.pdb
 18 17 0 0 0
SMALL
GASTEIGER

@<TRIPOS>ATOM
      1  C1        39.9170  -90.9880  -31.4360 C.2   1349  PLM1349     0.3649
      2  O1        40.0610  -89.9410  -30.7680 O.co2 1349  PLM1349    -0.2457
      3  O2        38.7590  -91.2780  -31.8790 O.co2 1349  PLM1349    -0.2457
      4  C2        41.1430  -91.8790  -31.6400 C.3   1349  PLM1349     0.1141
      5  C3        42.2080  -91.3590  -32.6160 C.3   1349  PLM1349     0.0118
      6  C4        43.4820  -92.2190  -32.5890 C.3   1349  PLM1349     0.0006
      7  C5        44.6970  -91.3390  -32.2780 C.3   1349  PLM1349     0.0000
      8  C6        45.8140  -92.0930  -31.5750 C.3   1349  PLM1349     0.0000
      9  C7        46.2820  -91.3780  -30.3180 C.3   1349  PLM1349     0.0000
     10  C8        47.8150  -91.2550  -30.2910 C.3   1349  PLM1349     0.0000
     11  C9        48.2570  -90.0080  -29.5320 C.3   1349  PLM1349     0.0000
     12  CA        49.7630  -89.8830  -29.2840 C.3   1349  PLM1349     0.0000
     13  CB        50.1360  -90.6890  -28.0410 C.3   1349  PLM1349     0.0000
     14  CC        51.5700  -90.4990  -27.5400 C.3   1349  PLM1349     0.0000
     15  CD        51.8510  -91.3580  -26.3060 C.3   1349  PLM1349     0.0000
     16  CE        51.5500  -90.6750  -24.9710 C.3   1349  PLM1349     0.0000
     17  CF        50.0490  -90.6340  -24.6390 C.3   1349  PLM1349     0.0000
     18  CG        49.5110  -89.2050  -24.5470 C.3   1349  PLM1349     0.0000
@<TRIPOS>BOND
     1     5     6    1
     2     5     4    1
     3     6     7    1
     4     7     8    1
     5     3     1   ar
     6     4     1    1
     7     8     9    1
     8     1     2   ar
     9     9    10    1
    10    10    11    1
    11    11    12    1
    12    12    13    1
    13    13    14    1
    14    14    15    1
    15    15    16    1
    16    16    17    1
    17    17    18    1
