@<TRIPOS>MOLECULE
2iu8_UD1_B_1.pdb
 39 41 0 0 0
SMALL
GASTEIGER

@<TRIPOS>ATOM
      1  C1'       37.3240  -85.7540  -24.5860 C.3   1348  UD11348     0.2633
      2  C2'       37.8820  -86.4200  -25.8530 C.3   1348  UD11348     0.1845
      3  C3'       36.7660  -87.0370  -26.6890 C.3   1348  UD11348     0.2094
      4  C4'       35.8030  -87.9240  -25.9140 C.3   1348  UD11348     0.2136
      5  C5'       35.3100  -87.2720  -24.6070 C.3   1348  UD11348     0.1834
      6  C6'       34.4930  -88.2180  -23.6500 C.3   1348  UD11348     0.2142
      7  C7'       39.5670  -85.5860  -27.5050 C.2   1348  UD11348     0.2420
      8  C8'       40.2540  -86.9640  -27.4840 C.3   1348  UD11348     0.0964
      9  N2'       38.4940  -85.3970  -26.7240 N.am  1348  UD11348    -0.1992
     10  O1'       36.7000  -84.5100  -25.0080 O.3   1348  UD11348    -0.2864
     11  O3'       37.3490  -87.8130  -27.7410 O.3   1348  UD11348    -0.2183
     12  O4'       34.7070  -88.1170  -26.7960 O.3   1348  UD11348    -0.2176
     13  O5'       36.4380  -86.6870  -23.8520 O.3   1348  UD11348    -0.3260
     14  O6'       33.8730  -89.3300  -24.3300 O.3   1348  UD11348    -0.2176
     15  O7'       40.0200  -84.6980  -28.2160 O.2   1348  UD11348    -0.2733
     16  N1        33.3990  -78.4150  -24.5400 N.am  1348  UD11348    -0.1766
     17  C2        32.7960  -77.2560  -23.9630 C.1   1348  UD11348     0.2845
     18  N3        32.6620  -77.1630  -22.5640 N.2   1348  UD11348    -0.2452
     19  C4        33.1200  -78.2080  -21.7450 C.1   1348  UD11348     0.2182
     20  C5        33.7000  -79.3430  -22.3080 C.2   1348  UD11348     0.1242
     21  C6        33.8380  -79.4550  -23.6890 C.2   1348  UD11348     0.0929
     22  O2        32.3870  -76.3240  -24.6540 O.2   1348  UD11348    -0.1918
     23  O4        33.0140  -78.1310  -20.5220 O.2   1348  UD11348    -0.2085
     24  C1B       33.5690  -78.5760  -26.0160 C.3   1348  UD11348     0.2401
     25  C2B       35.0040  -79.0280  -26.3810 C.3   1348  UD11348     0.2319
     26  O2'       35.7820  -77.9510  -26.9230 O.3   1348  UD11348    -0.2157
     27  C3B       34.8110  -80.1170  -27.4450 C.3   1348  UD11348     0.2158
     28  C4B       33.2990  -80.2120  -27.6340 C.3   1348  UD11348     0.1799
     29  O4B       32.7290  -79.6790  -26.4080 O.3   1348  UD11348    -0.3320
     30  O3B       35.4300  -79.7910  -28.6970 O.3   1348  UD11348    -0.2175
     31  C5B       32.9840  -81.7140  -27.7950 C.3   1348  UD11348     0.1813
     32  O5B       33.3050  -82.4580  -26.5850 O.3   1348  UD11348    -0.3112
     33  PA        34.7550  -83.2110  -26.3320 P.3   1348  UD11348     0.2189
     34  O1A       35.7170  -82.8100  -27.3850 O.2   1348  UD11348    -0.5170
     35  O2A       34.4450  -84.6510  -26.1350 O.3   1348  UD11348    -0.4371
     36  O3A       35.2140  -82.5380  -24.9570 O.3   1348  UD11348    -0.2703
     37  PB        36.2050  -83.3380  -23.9930 P.3   1348  UD11348     0.2208
     38  O1B       35.4010  -83.9510  -22.9070 O.3   1348  UD11348    -0.4371
     39  O2B       37.3260  -82.4350  -23.6430 O.2   1348  UD11348    -0.5170
@<TRIPOS>BOND
     1    30    27    1
     2    15     7    2
     3    31    28    1
     4    31    32    1
     5    11     3    1
     6    28    27    1
     7    28    29    1
     8     7     8    1
     9     7     9   am
    10    27    25    1
    11    34    33    2
    12    26    25    1
    13    12     4    1
    14     9     2    1
    15     3     4    1
    16     3     2    1
    17    32    33    1
    18    29    24    1
    19    25    24    1
    20    33    35    1
    21    33    36    1
    22    24    16    1
    23     4     5    1
    24     2     1    1
    25    10     1    1
    26    10    37    1
    27    36    37    1
    28    22    17    2
    29     5    13    1
    30     5     6    1
    31     1    13    1
    32    16    17   am
    33    16    21    1
    34    14     6    1
    35    37    39    2
    36    37    38    1
    37    17    18    2
    38    21    20    2
    39    18    19    2
    40    20    19    1
    41    19    23    2
