@<TRIPOS>MOLECULE
2iu9_PLM_A_1.pdb
 18 17 0 0 0
SMALL
GASTEIGER

@<TRIPOS>ATOM
      1  C1        40.1970  -90.8840  -31.2570 C.2   1350  PLM1350     0.3649
      2  O1        39.6450  -90.2450  -30.3380 O.co2 1350  PLM1350    -0.2457
      3  O2        39.4760  -91.3720  -32.1520 O.co2 1350  PLM1350    -0.2457
      4  C2        41.7020  -91.0590  -31.2480 C.3   1350  PLM1350     0.1141
      5  C3        42.3480  -91.0290  -32.6340 C.3   1350  PLM1350     0.0118
      6  C4        43.5720  -91.9490  -32.6800 C.3   1350  PLM1350     0.0006
      7  C5        44.8720  -91.1990  -32.3840 C.3   1350  PLM1350     0.0000
      8  C6        45.4920  -91.6290  -31.0570 C.3   1350  PLM1350     0.0000
      9  C7        46.3820  -90.5260  -30.4990 C.3   1350  PLM1350     0.0000
     10  C8        47.7770  -91.0390  -30.1450 C.3   1350  PLM1350     0.0000
     11  C9        48.6760  -89.8980  -29.6660 C.3   1350  PLM1350     0.0000
     12  CA        49.7130  -90.3620  -28.6500 C.3   1350  PLM1350     0.0000
     13  CB        49.8280  -89.3840  -27.4820 C.3   1350  PLM1350     0.0000
     14  CC        48.7220  -89.5720  -26.4390 C.3   1350  PLM1350     0.0000
     15  CD        49.2460  -89.6010  -25.0000 C.3   1350  PLM1350     0.0000
     16  CE        48.3980  -90.4900  -24.0850 C.3   1350  PLM1350     0.0000
     17  CF        47.1200  -89.8100  -23.5910 C.3   1350  PLM1350     0.0000
     18  CG        46.1870  -90.7910  -22.8900 C.3   1350  PLM1350     0.0000
@<TRIPOS>BOND
     1     6     5    1
     2     6     7    1
     3     5     4    1
     4     7     8    1
     5     3     1   ar
     6     1     4    1
     7     1     2   ar
     8     8     9    1
     9     9    10    1
    10    10    11    1
    11    11    12    1
    12    12    13    1
    13    13    14    1
    14    14    15    1
    15    15    16    1
    16    16    17    1
    17    17    18    1
