@<TRIPOS>MOLECULE
2iu9_UD1_B_1.pdb
 39 41 0 0 0
SMALL
GASTEIGER

@<TRIPOS>ATOM
      1  C1'       38.1880  -84.5170  -23.5490 C.3   1347  UD11347     0.2633
      2  C2'       37.8560  -85.9360  -24.0140 C.3   1347  UD11347     0.1845
      3  C3'       36.8150  -86.5580  -23.0600 C.3   1347  UD11347     0.2094
      4  C4'       37.1940  -86.4420  -21.5670 C.3   1347  UD11347     0.2136
      5  C5'       37.9880  -85.1520  -21.2210 C.3   1347  UD11347     0.1834
      6  C6'       38.8280  -85.3870  -19.9500 C.3   1347  UD11347     0.2142
      7  C7'       37.3820  -86.7650  -26.3380 C.2   1347  UD11347     0.2420
      8  C8'       38.1730  -88.0700  -26.0570 C.3   1347  UD11347     0.0964
      9  N2'       37.2850  -85.8460  -25.3670 N.am  1347  UD11347    -0.1992
     10  O1'       36.9180  -83.8080  -23.4220 O.3   1347  UD11347    -0.2864
     11  O3'       36.5970  -87.9310  -23.3950 O.3   1347  UD11347    -0.2183
     12  O4'       35.9760  -86.4550  -20.8160 O.3   1347  UD11347    -0.2176
     13  O5'       38.8700  -84.6390  -22.2810 O.3   1347  UD11347    -0.3260
     14  O6'       39.5380  -84.1840  -19.5800 O.3   1347  UD11347    -0.2176
     15  O7'       36.8620  -86.5910  -27.4340 O.2   1347  UD11347    -0.2733
     16  N1        33.6270  -78.2970  -24.4240 N.am  1347  UD11347    -0.1766
     17  C2        33.1090  -77.0680  -23.9680 C.1   1347  UD11347     0.2845
     18  N3        32.9650  -76.8460  -22.5940 N.2   1347  UD11347    -0.2452
     19  C4        33.3320  -77.8430  -21.6820 C.1   1347  UD11347     0.2182
     20  C5        33.8410  -79.0560  -22.1330 C.2   1347  UD11347     0.1242
     21  C6        33.9880  -79.2880  -23.4970 C.2   1347  UD11347     0.0929
     22  O2        32.7810  -76.1820  -24.7560 O.2   1347  UD11347    -0.1918
     23  O4        33.2080  -77.6460  -20.4750 O.2   1347  UD11347    -0.2085
     24  C1B       33.7790  -78.5580  -25.8770 C.3   1347  UD11347     0.2401
     25  C2B       35.2090  -78.4320  -26.3800 C.3   1347  UD11347     0.2319
     26  O2'       35.5210  -77.0550  -26.6200 O.3   1347  UD11347    -0.2157
     27  C3B       35.1320  -79.2100  -27.6920 C.3   1347  UD11347     0.2158
     28  C4B       33.8920  -80.0990  -27.5280 C.3   1347  UD11347     0.1799
     29  O4B       33.4880  -79.9330  -26.1580 O.3   1347  UD11347    -0.3320
     30  O3B       34.9100  -78.3160  -28.7860 O.3   1347  UD11347    -0.2175
     31  C5B       34.3150  -81.5450  -27.8070 C.3   1347  UD11347     0.1813
     32  O5B       34.1530  -82.3890  -26.6530 O.3   1347  UD11347    -0.3112
     33  PA        35.4120  -83.0520  -25.8820 P.3   1347  UD11347     0.2189
     34  O1A       36.6540  -82.8310  -26.6490 O.2   1347  UD11347    -0.5170
     35  O2A       35.0420  -84.4260  -25.4810 O.3   1347  UD11347    -0.4371
     36  O3A       35.4460  -82.1470  -24.5900 O.3   1347  UD11347    -0.2703
     37  PB        36.7360  -82.2220  -23.6550 P.3   1347  UD11347     0.2208
     38  O1B       36.3930  -81.5830  -22.3560 O.3   1347  UD11347    -0.4371
     39  O2B       37.8760  -81.7150  -24.4520 O.2   1347  UD11347    -0.5170
@<TRIPOS>BOND
     1    30    27    1
     2    31    28    1
     3    31    32    1
     4    27    28    1
     5    27    25    1
     6    28    29    1
     7    15     7    2
     8    32    33    1
     9    34    33    2
    10    26    25    1
    11    25    24    1
    12     7     8    1
    13     7     9   am
    14    29    24    1
    15    33    35    1
    16    33    36    1
    17    24    16    1
    18     9     2    1
    19    22    17    2
    20    36    37    1
    21    39    37    2
    22    16    17   am
    23    16    21    1
    24     2     1    1
    25     2     3    1
    26    17    18    2
    27    37    10    1
    28    37    38    1
    29     1    10    1
    30     1    13    1
    31    21    20    2
    32    11     3    1
    33     3     4    1
    34    18    19    2
    35    13     5    1
    36    20    19    1
    37    19    23    2
    38     4     5    1
    39     4    12    1
    40     5     6    1
    41     6    14    1
