@<TRIPOS>MOLECULE
2iua_PLM_A_1.pdb
 18 17 0 0 0
SMALL
GASTEIGER

@<TRIPOS>ATOM
      1  C1        46.0660  -90.8280  -30.4730 C.2   1351  PLM1351     0.3649
      2  O1        44.8460  -90.6030  -30.3630 O.co2 1351  PLM1351    -0.2457
      3  O2        46.3850  -91.8100  -31.1680 O.co2 1351  PLM1351    -0.2457
      4  C2        47.0850  -89.9340  -29.7900 C.3   1351  PLM1351     0.1141
      5  C3        48.4570  -90.5870  -29.6470 C.3   1351  PLM1351     0.0118
      6  C4        49.4680  -89.6390  -28.9940 C.3   1351  PLM1351     0.0006
      7  C5        49.7420  -89.9570  -27.5230 C.3   1351  PLM1351     0.0000
      8  C6        48.6400  -89.4680  -26.5570 C.3   1351  PLM1351     0.0000
      9  C7        49.1200  -88.8730  -25.2250 C.3   1351  PLM1351     0.0000
     10  C8        49.8120  -89.9030  -24.3300 C.3   1351  PLM1351     0.0000
     11  C9        51.3160  -90.0560  -24.6080 C.3   1351  PLM1351     0.0000
     12  CA        51.6300  -91.3720  -25.3370 C.3   1351  PLM1351     0.0000
     13  CB        53.1050  -91.7230  -25.5840 C.3   1351  PLM1351     0.0000
     14  CC        54.1170  -91.0730  -24.6380 C.3   1351  PLM1351     0.0000
     15  CD        54.3440  -91.8070  -23.3170 C.3   1351  PLM1351     0.0000
     16  CE        53.8400  -90.9370  -22.1640 C.3   1351  PLM1351     0.0000
     17  CF        54.9230  -90.0350  -21.5610 C.3   1351  PLM1351     0.0000
     18  CG        54.3510  -88.9560  -20.6360 C.3   1351  PLM1351     0.0000
@<TRIPOS>BOND
     1     3     1   ar
     2     1     2   ar
     3     1     4    1
     4     4     5    1
     5     5     6    1
     6     6     7    1
     7     7     8    1
     8     8     9    1
     9    13    12    1
    10    13    14    1
    11    12    11    1
    12     9    10    1
    13    14    15    1
    14    11    10    1
    15    15    16    1
    16    16    17    1
    17    17    18    1
