@<TRIPOS>MOLECULE
2iuf_HDD_A_1.pdb
 44 52 0 0 0
SMALL
GASTEIGER

@<TRIPOS>ATOM
      1 FE        -28.4000   70.6800   10.7830 Fe    1691  HDD1691     0.0000
      2  CHA      -26.0960   68.3920   11.8330 C.2   1691  HDD1691     0.0000
      3  CHB      -25.8740   72.9680   10.1610 C.2   1691  HDD1691     0.0000
      4  CHC      -30.6560   72.8890    9.6160 C.2   1691  HDD1691     0.0000
      5  CHD      -30.9170   68.7010   12.0020 C.2   1691  HDD1691     0.0000
      6  NA       -26.3830   70.6590   10.9240 N.ar  1691  HDD1691     0.0000
      7  C1A      -25.6320   69.6110   11.3530 C.ar  1691  HDD1691     0.0000
      8  C2A      -24.2580   69.9990   11.2510 C.ar  1691  HDD1691     0.0000
      9  C3A      -24.1830   71.2870   10.8140 C.ar  1691  HDD1691     0.0000
     10  C4A      -25.5390   71.7160   10.6010 C.ar  1691  HDD1691     0.0000
     11  CMA      -22.9380   72.1380   10.5260 C.3   1691  HDD1691     0.0000
     12  CAA      -23.0730   69.0780   11.5820 C.3   1691  HDD1691     0.0000
     13  CBA      -22.4450   69.3580   12.9600 C.3   1691  HDD1691     0.0000
     14  CGA      -21.2370   68.5010   13.0950 C.2   1691  HDD1691     0.0000
     15  O1A      -20.2200   68.8090   12.4060 O.co2 1691  HDD1691     0.0000
     16  O2A      -21.2780   67.4560   13.8600 O.co2 1691  HDD1691     0.0000
     17  NB       -28.2570   72.5310    9.9730 N.2   1691  HDD1691     0.0000
     18  C1B      -27.1450   73.3440    9.9020 C.2   1691  HDD1691     0.0000
     19  C2B      -27.5360   74.6220    9.3350 C.2   1691  HDD1691     0.0000
     20  C3B      -28.8970   74.6250    9.2720 C.2   1691  HDD1691     0.0000
     21  C4B      -29.3320   73.2700    9.5820 C.2   1691  HDD1691     0.0000
     22  CMB      -26.6590   75.8670    9.2980 C.3   1691  HDD1691     0.0000
     23  CAB      -29.8360   75.7480    8.7770 C.2   1691  HDD1691     0.0000
     24  CBB      -29.6310   77.0310    9.0330 C.2   1691  HDD1691     0.0000
     25  NC       -30.3700   70.7540   10.8040 N.ar  1691  HDD1691     0.0000
     26  C1C      -31.1440   71.7550   10.1920 C.ar  1691  HDD1691     0.0000
     27  C2C      -32.5460   71.3950   10.2370 C.ar  1691  HDD1691     0.0000
     28  C3C      -32.5970   70.2660   10.9890 C.ar  1691  HDD1691     0.0000
     29  C4C      -31.2560   69.8360   11.3030 C.ar  1691  HDD1691     0.0000
     30  CMC      -33.7060   72.2390    9.6970 C.3   1691  HDD1691     0.0000
     31  CAC      -33.7490   69.3640   11.3840 C.2   1691  HDD1691     0.0000
     32  CBC      -34.7640   69.9730   11.9660 C.2   1691  HDD1691     0.0000
     33  ND       -28.4530   68.8100   11.7720 N.2   1691  HDD1691     0.0000
     34  C1D      -29.6420   68.2360   12.2060 C.2   1691  HDD1691     0.0000
     35  C2D      -29.3710   66.9980   12.9640 C.2   1691  HDD1691     0.0000
     36  C3D      -27.8230   66.8840   12.9090 C.2   1691  HDD1691     0.0000
     37  C4D      -27.3670   68.0750   12.1740 C.2   1691  HDD1691     0.0000
     38  CMD      -30.1380   65.7650   12.3860 C.3   1691  HDD1691     0.0000
     39  CAD      -27.1630   65.5790   12.3670 C.3   1691  HDD1691     0.0000
     40  CBD      -26.0560   65.3200   13.3660 C.3   1691  HDD1691     0.0000
     41  CGD      -26.2900   66.2640   14.4930 C.2   1691  HDD1691     0.0000
     42  O1D      -27.3300   67.0880   14.1960 O.3   1691  HDD1691     0.0000
     43  O2D      -25.6710   66.2620   15.5560 O.2   1691  HDD1691     0.0000
     44  OND      -29.8240   67.2010   14.3330 O.2   1691  HDD1691     0.0000
@<TRIPOS>BOND
     1    23    24    2
     2    23    20    1
     3    20    19    2
     4    20    21    1
     5    22    19    1
     6    19    18    1
     7    21     4    2
     8    21    17    1
     9     4    26    1
    10    30    27    1
    11    18    17    2
    12    18     3    1
    13    17     1    1
    14     3    10    2
    15    26    27   ar
    16    26    25   ar
    17    27    28   ar
    18    11     9    1
    19    10     9   ar
    20    10     6   ar
    21     1    25    1
    22     1     6    1
    23     1    33    1
    24    25    29   ar
    25     9     8   ar
    26     6     7   ar
    27    28    29   ar
    28    28    31    1
    29     8     7   ar
    30     8    12    1
    31    29     5    1
    32     7     2    2
    33    31    32    2
    34    12    13    1
    35    33    37    2
    36    33    34    1
    37     2    37    1
    38     5    34    2
    39    37    36    1
    40    34    35    1
    41    39    36    1
    42    39    40    1
    43    38    35    1
    44    15    14   ar
    45    36    35    2
    46    36    42    1
    47    13    14    1
    48    35    44    1
    49    14    16   ar
    50    40    41    1
    51    42    41    1
    52    41    43    2
