@<TRIPOS>MOLECULE
2iul_FUC_A_1.pdb
 10 10 0 0 0
SMALL
GASTEIGER

@<TRIPOS>ATOM
      1  C1        48.1070   62.1910   63.5460 C.3   1631  FUC1631     0.1776
      2  C2        48.9550   62.7820   64.6760 C.3   1631  FUC1631     0.2141
      3  C3        48.1080   63.7370   65.5160 C.3   1631  FUC1631     0.2172
      4  C4        46.8270   63.0380   65.9890 C.3   1631  FUC1631     0.2116
      5  C5        46.0800   62.4690   64.7810 C.3   1631  FUC1631     0.1483
      6  C6        44.7740   61.7770   65.1560 C.3   1631  FUC1631     0.0349
      7  O2        50.1100   63.4510   64.1520 O.3   1631  FUC1631    -0.2176
      8  O3        48.8740   64.2520   66.6160 O.3   1631  FUC1631    -0.2175
      9  O4        47.1390   61.9630   66.8820 O.3   1631  FUC1631    -0.2177
     10  O5        46.9470   61.5490   64.1050 O.3   1631  FUC1631    -0.3508
@<TRIPOS>BOND
     1     1    10    1
     2     1     2    1
     3    10     5    1
     4     7     2    1
     5     2     3    1
     6     5     6    1
     7     5     4    1
     8     3     4    1
     9     3     8    1
    10     4     9    1
