@<TRIPOS>MOLECULE
2iuq_TSS_A_1.pdb
 12 13 0 0 0
SMALL
GASTEIGER

@<TRIPOS>ATOM
      1  N1         5.0810   -1.8750   40.4150 N.3   1433  TSS1433    -0.1310
      2  CA         5.6980   -1.1660   39.2730 C.3   1433  TSS1433     0.1140
      3  CB         7.0070   -1.8360   38.9210 C.3   1433  TSS1433     0.0485
      4  CG         7.6820   -1.1770   37.7340 C.2   1433  TSS1433    -0.0004
      5  CD1        8.1340    0.1350   37.6260 C.2   1433  TSS1433     0.0946
      6  NE1        8.6750    0.3120   36.3900 N.2   1433  TSS1433    -0.2442
      7  CE2        8.6060   -0.8520   35.7250 C.2   1433  TSS1433     0.0804
      8  CD2        7.9770   -1.7840   36.5490 C.2   1433  TSS1433     0.0113
      9  CZ2        9.0000   -1.2270   34.4560 C.2   1433  TSS1433     0.0148
     10  CH2        8.7790   -2.5220   34.0390 C.2   1433  TSS1433    -0.0199
     11  CZ3        8.1620   -3.4610   34.8680 C.3   1433  TSS1433     0.0521
     12  CE3        7.7460   -3.0980   36.1500 C.2   1433  TSS1433    -0.0202
@<TRIPOS>BOND
     1    10     9    2
     2    10    11    1
     3     9     7    1
     4    11    12    1
     5     7     6    2
     6     7     8    1
     7    12     8    2
     8     6     5    1
     9     8     4    1
    10     5     4    2
    11     4     3    1
    12     3     2    1
    13     2     1    1
