@<TRIPOS>MOLECULE
2iut_AGS_A_1.pdb
 31 33 0 0 0
SMALL
GASTEIGER

@<TRIPOS>ATOM
      1  PG        -2.7000   11.6980   -0.2820 P.3   1723  AGS1723     0.4340
      2  O2G       -4.1160   12.0120   -0.0370 O.3   1723  AGS1723    -0.1305
      3  O3G       -2.4440   10.5410   -1.2310 O.2   1723  AGS1723    -0.2423
      4  S1G       -1.7160   11.3090    1.1660 S.3   1723  AGS1723     0.0416
      5  PB        -0.8260   13.7250   -0.9690 P.3   1723  AGS1723     0.2262
      6  O1B       -0.8190   14.8680   -1.9100 O.2   1723  AGS1723    -0.5168
      7  O2B       -0.4220   14.0020    0.4300 O.3   1723  AGS1723    -0.4369
      8  O3B       -2.2770   13.1150   -0.9770 O.3   1723  AGS1723    -0.2405
      9  PA         1.5110   12.0550   -0.8900 P.3   1723  AGS1723     0.2189
     10  O1A        2.7260   12.8890   -0.9210 O.2   1723  AGS1723    -0.5170
     11  O2A        0.9970   11.4720    0.3630 O.3   1723  AGS1723    -0.4371
     12  O3A        0.2110   12.8100   -1.5930 O.3   1723  AGS1723    -0.2701
     13  O5'        1.6660   10.9980   -2.0480 O.3   1723  AGS1723    -0.3112
     14  C5'        2.5200    9.9490   -1.8080 C.3   1723  AGS1723     0.1813
     15  C4'        2.4540    8.9620   -2.9580 C.3   1723  AGS1723     0.1821
     16  O4'        2.3530    9.6130   -4.2170 O.3   1723  AGS1723    -0.3135
     17  C3'        3.6910    8.0910   -2.9600 C.3   1723  AGS1723     0.2184
     18  O3'        3.4000    6.8830   -2.3030 O.3   1723  AGS1723    -0.2174
     19  C2'        3.9500    7.8980   -4.4500 C.3   1723  AGS1723     0.2570
     20  O2'        3.3400    6.7150   -4.9910 O.3   1723  AGS1723    -0.2130
     21  C1'        3.4300    9.2680   -5.0450 C.3   1723  AGS1723     0.3186
     22  N9         4.4730   10.3630   -4.9390 N.pl3 1723  AGS1723    -0.1439
     23  C8         4.5090   11.5230   -4.1760 C.3   1723  AGS1723     0.3377
     24  N7         5.5620   12.3030   -4.2220 N.2   1723  AGS1723    -0.2095
     25  C5         6.3200   11.6290   -5.1360 C.2   1723  AGS1723     0.2526
     26  C6         7.6180   11.8830   -5.6910 C.2   1723  AGS1723     0.4393
     27  N6         8.3890   13.0610   -5.2740 N.pl3 1723  AGS1723     0.2180
     28  N1         8.1380   11.0080   -6.6240 N.2   1723  AGS1723     0.0021
     29  C2         7.4070    9.8910   -7.0270 C.3   1723  AGS1723     0.5254
     30  N3         6.1620    9.5240   -6.5720 N.2   1723  AGS1723    -0.0055
     31  C4         5.6680   10.4320   -5.6180 C.2   1723  AGS1723     0.3518
@<TRIPOS>BOND
     1    29    28    1
     2    29    30    1
     3    28    26    2
     4    30    31    2
     5    26    27    1
     6    26    25    1
     7    31    25    1
     8    31    22    1
     9    25    24    2
    10    21    22    1
    11    21    19    1
    12    21    16    1
    13    20    19    1
    14    22    23    1
    15    19    17    1
    16    24    23    1
    17    16    15    1
    18    17    15    1
    19    17    18    1
    20    15    14    1
    21    13    14    1
    22    13     9    1
    23     6     5    2
    24    12     5    1
    25    12     9    1
    26     3     1    2
    27     8     5    1
    28     8     1    1
    29     5     7    1
    30    10     9    2
    31     9    11    1
    32     1     2    1
    33     1     4    1
