@<TRIPOS>MOLECULE
2iuu_ADP_A_1.pdb
 27 29 0 0 0
SMALL
GASTEIGER

@<TRIPOS>ATOM
      1  PB        42.4120   25.7240  -30.1910 P.3   1723  ADP1723     0.5373
      2  O1B       42.4010   25.9870  -31.6480 O.2   1723  ADP1723    -0.2221
      3  O2B       41.3070   26.3960  -29.4360 O.3   1723  ADP1723    -0.1143
      4  O3B       42.4780   24.1960  -29.9040 O.3   1723  ADP1723    -0.1143
      5  PA        45.0760   25.7960  -28.9890 P.3   1723  ADP1723     0.2231
      6  O1A       44.8070   25.7300  -27.4920 O.3   1723  ADP1723    -0.4370
      7  O2A       45.4940   24.4870  -29.6500 O.2   1723  ADP1723    -0.5169
      8  O3A       43.7770   26.4110  -29.6810 O.3   1723  ADP1723    -0.2261
      9  O5'       46.1550   26.9640  -29.0990 O.3   1723  ADP1723    -0.3111
     10  C5'       46.6980   27.3560  -30.3930 C.3   1723  ADP1723     0.1813
     11  C4'       48.0630   28.0760  -30.3070 C.3   1723  ADP1723     0.1821
     12  O4'       47.9130   29.2970  -29.5280 O.3   1723  ADP1723    -0.3135
     13  C3'       49.2040   27.2900  -29.6250 C.3   1723  ADP1723     0.2184
     14  O3'       49.9660   26.6590  -30.6760 O.3   1723  ADP1723    -0.2174
     15  C2'       49.9600   28.3550  -28.8010 C.3   1723  ADP1723     0.2570
     16  O2'       51.1670   28.8290  -29.4240 O.3   1723  ADP1723    -0.2130
     17  C1'       48.9790   29.5270  -28.6290 C.3   1723  ADP1723     0.3186
     18  N9        48.4430   29.6050  -27.2150 N.pl3 1723  ADP1723    -0.1439
     19  C8        47.4120   28.8980  -26.6720 C.3   1723  ADP1723     0.3377
     20  N7        47.1850   29.2000  -25.3810 N.2   1723  ADP1723    -0.2095
     21  C5        48.1210   30.1460  -25.1030 C.2   1723  ADP1723     0.2526
     22  C6        48.4060   30.8780  -23.8770 C.2   1723  ADP1723     0.4393
     23  N6        47.7740   30.7540  -22.7570 N.pl3 1723  ADP1723     0.2180
     24  N1        49.4650   31.7810  -23.9880 N.2   1723  ADP1723     0.0021
     25  C2        50.1930   31.9700  -25.1680 C.3   1723  ADP1723     0.5254
     26  N3        49.9400   31.3000  -26.3060 N.2   1723  ADP1723    -0.0055
     27  C4        48.9130   30.4100  -26.2280 C.2   1723  ADP1723     0.3518
@<TRIPOS>BOND
     1     2     1    2
     2    14    13    1
     3    10    11    1
     4    10     9    1
     5    11    13    1
     6    11    12    1
     7     1     4    1
     8     1     8    1
     9     1     3    1
    10     8     5    1
    11     7     5    2
    12    13    15    1
    13    12    17    1
    14    16    15    1
    15     9     5    1
    16     5     6    1
    17    15    17    1
    18    17    18    1
    19    18    19    1
    20    18    27    1
    21    19    20    1
    22    26    27    2
    23    26    25    1
    24    27    21    1
    25    20    21    2
    26    25    24    1
    27    21    22    1
    28    24    22    2
    29    22    23    1
