@<TRIPOS>MOLECULE
2iuw_AKG_A_1.pdb
 10 9 0 0 0
SMALL
GASTEIGER

@<TRIPOS>ATOM
      1  C1        45.5820   11.5380   -3.0710 C.2   700  AKG700      0.4219
      2  O1        45.5580   10.4400   -3.6040 O.co2 700  AKG700     -0.2373
      3  O2        46.0050   12.5620   -3.6020 O.co2 700  AKG700     -0.2373
      4  C2        45.0630   11.5990   -1.6230 C.2   700  AKG700      0.2526
      5  O5        44.6320   10.5320   -1.1650 O.2   700  AKG700     -0.2843
      6  C3        45.1820   12.9560   -0.9420 C.3   700  AKG700      0.0881
      7  C4        45.0480   12.8630    0.5530 C.3   700  AKG700      0.1224
      8  C5        45.4140   14.1390    1.3190 C.2   700  AKG700      0.3653
      9  O3        45.1010   15.2820    0.9600 O.co2 700  AKG700     -0.2456
     10  O4        46.0470   13.9330    2.3770 O.co2 700  AKG700     -0.2456
@<TRIPOS>BOND
     1     2     1   ar
     2     3     1   ar
     3     1     4    1
     4     4     5    2
     5     4     6    1
     6     6     7    1
     7     7     8    1
     8     9     8   ar
     9     8    10   ar
