@<TRIPOS>MOLECULE
2iv2_MGD_X_1.pdb
 47 52 0 0 0
SMALL
GASTEIGER

@<TRIPOS>ATOM
      1  PB        76.2270   41.6400   32.2970 P.3   802  MGD802      0.2189
      2  O1B       75.0200   40.9250   32.7220 O.3   802  MGD802     -0.4371
      3  O2B       76.0160   42.0080   30.8800 O.2   802  MGD802     -0.5170
      4  O3B       77.7010   40.9840   32.3060 O.3   802  MGD802     -0.2703
      5  O3A       77.4940   38.4000   32.4450 O.3   802  MGD802     -0.3109
      6  PA        77.8710   39.7480   33.2900 P.3   802  MGD802      0.2189
      7  O1A       76.9560   39.7260   34.4770 O.3   802  MGD802     -0.4371
      8  O2A       79.2450   39.6240   33.7920 O.2   802  MGD802     -0.5170
      9  O5'       76.4320   43.0230   33.1380 O.3   802  MGD802     -0.3112
     10  C5'       76.4000   42.7750   34.5420 C.3   802  MGD802      0.1813
     11  C4'       75.9070   43.9970   35.2900 C.3   802  MGD802      0.1799
     12  O4'       76.6370   45.1420   34.9100 O.3   802  MGD802     -0.3326
     13  C3'       74.4440   44.3080   35.0170 C.3   802  MGD802      0.2158
     14  O3'       73.6670   44.0080   36.1740 O.3   802  MGD802     -0.2175
     15  C2'       74.4560   45.8010   34.6460 C.3   802  MGD802      0.2310
     16  O2'       73.4020   46.6100   35.1640 O.3   802  MGD802     -0.2158
     17  C1'       75.7720   46.2280   35.2730 C.3   802  MGD802      0.2293
     18  N9        76.3250   47.5270   34.8170 N.pl3 802  MGD802     -0.2354
     19  C8        76.1040   48.1970   33.6660 C.3   802  MGD802      0.2246
     20  N7        76.8270   49.3370   33.6360 N.2   802  MGD802     -0.2322
     21  C5        77.5160   49.4100   34.7780 C.2   802  MGD802      0.2182
     22  C6        78.4800   50.3410   35.4110 C.1   802  MGD802      0.2372
     23  O6        78.8170   51.4020   34.8560 O.2   802  MGD802     -0.2069
     24  N1        78.9620   50.0120   36.6110 N.2   802  MGD802     -0.2485
     25  C2        78.5940   48.9040   37.2670 C.1   802  MGD802      0.2531
     26  N2        79.1450   48.6450   38.5190 N.pl3 802  MGD802     -0.0226
     27  N3        77.7380   48.0170   36.7520 N.2   802  MGD802     -0.3074
     28  C4        77.1820   48.2120   35.5540 C.2   802  MGD802      0.2300
     29  C10       78.1190   38.2710   31.1840 C.3   802  MGD802      0.1837
     30  C11       78.3700   36.7680   31.0160 C.3   802  MGD802      0.1762
     31  O11       77.1160   36.1070   31.1060 O.3   802  MGD802     -0.3271
     32  C12       79.1080   36.4250   29.7580 C.2   802  MGD802      0.0473
     33  S12       80.3890   37.4820   29.2080 S.3   802  MGD802     -0.0526
     34  C13       78.8520   35.3120   29.0540 C.2   802  MGD802      0.0449
     35  S13       79.7450   34.9180   27.5950 S.3   802  MGD802     -0.0530
     36  C14       77.7570   34.4110   29.5310 C.3   802  MGD802      0.1850
     37  N15       76.5740   34.6750   28.7180 N.2   802  MGD802     -0.2411
     38  C16       75.2700   34.3460   29.2700 C.2   802  MGD802      0.2467
     39  C17       74.0550   34.3310   28.4280 C.1   802  MGD802      0.2441
     40  O17       74.1280   34.6060   27.1950 O.2   802  MGD802     -0.2063
     41  N18       72.8980   34.0180   29.0340 N.2   802  MGD802     -0.2474
     42  C19       72.8350   33.7050   30.3340 C.1   802  MGD802      0.2608
     43  N19       71.6200   33.3720   30.9310 N.pl3 802  MGD802     -0.0220
     44  N20       73.9120   33.7090   31.1050 N.2   802  MGD802     -0.2682
     45  C21       75.1310   34.0260   30.5850 C.1   802  MGD802      0.1293
     46  N22       76.1990   34.0000   31.3690 N.2   802  MGD802     -0.1763
     47  C23       77.3960   34.7260   30.9940 C.3   802  MGD802      0.2573
@<TRIPOS>BOND
     1    40    39    2
     2    35    34    1
     3    39    41    2
     4    39    38    1
     5    37    38    2
     6    37    36    1
     7    41    42    2
     8    34    36    1
     9    34    32    2
    10    33    32    1
    11    38    45    1
    12    36    47    1
    13    32    30    1
    14    42    43    1
    15    42    44    2
    16    45    44    2
    17    45    46    2
    18     3     1    2
    19    47    31    1
    20    47    46    1
    21    30    31    1
    22    30    29    1
    23    29     5    1
    24     1     4    1
    25     1     2    1
    26     1     9    1
    27     4     6    1
    28     5     6    1
    29     9    10    1
    30     6     8    2
    31     6     7    1
    32    20    19    1
    33    20    21    2
    34    19    18    1
    35    10    11    1
    36    15    13    1
    37    15    16    1
    38    15    17    1
    39    21    22    1
    40    21    28    1
    41    18    17    1
    42    18    28    1
    43    23    22    2
    44    12    17    1
    45    12    11    1
    46    13    11    1
    47    13    14    1
    48    22    24    2
    49    28    27    2
    50    24    25    2
    51    27    25    2
    52    25    26    1
