@<TRIPOS>MOLECULE
2iv2_2MD_X_1.pdb
 47 52 0 0 0
SMALL
GASTEIGER

@<TRIPOS>ATOM
      1  PB        82.0700   33.8330   20.6850 P.3   801  2MD801      0.2189
      2  O3B       80.5710   33.5590   20.2330 O.3   801  2MD801     -0.2703
      3  O1B       82.9460   33.6140   19.5250 O.2   801  2MD801     -0.5170
      4  O2B       82.7690   33.1030   21.7710 O.3   801  2MD801     -0.4371
      5  O3A       81.9110   35.4390   20.9120 O.3   801  2MD801     -0.3112
      6  C10       81.4170   35.8040   22.1670 C.3   801  2MD801      0.1795
      7  C11       82.5150   36.5670   22.9340 C.3   801  2MD801      0.1589
      8  O11       83.0800   37.7530   22.2760 O.3   801  2MD801     -0.3315
      9  C12       81.8180   36.8630   24.2800 C.3   801  2MD801      0.1004
     10  S12       81.5660   35.4150   25.3590 S.3   801  2MD801     -0.0794
     11  C13       82.6860   37.9560   24.9340 C.3   801  2MD801      0.0980
     12  S13       82.0850   38.1870   26.6190 S.3   801  2MD801     -0.0799
     13  C14       82.7000   39.3170   24.1370 C.3   801  2MD801      0.1678
     14  N15       81.2780   39.6830   24.0290 N.2   801  2MD801     -0.2452
     15  C16       80.9250   40.6990   23.1620 C.2   801  2MD801      0.2464
     16  C15       79.6770   41.5100   23.3800 C.1   801  2MD801      0.2441
     17  O14       78.9050   41.2910   24.3510 O.2   801  2MD801     -0.2063
     18  N17       79.4040   42.4910   22.5030 N.2   801  2MD801     -0.2474
     19  C17       80.2270   42.7330   21.4650 C.1   801  2MD801      0.2608
     20  N16       79.8710   43.7660   20.5920 N.pl3 801  2MD801     -0.0220
     21  N18       81.3600   42.0100   21.2550 N.2   801  2MD801     -0.2682
     22  C20       81.7380   40.9780   22.0950 C.1   801  2MD801      0.1292
     23  N8        82.8780   40.2570   21.9040 N.2   801  2MD801     -0.1767
     24  C7        83.3870   39.1240   22.7850 C.3   801  2MD801      0.2531
     25  PA        79.7250   32.2900   20.6670 P.3   801  2MD801      0.2189
     26  O1A       78.4520   32.9040   20.3270 O.2   801  2MD801     -0.5170
     27  O2A       79.6310   31.7590   22.0480 O.3   801  2MD801     -0.4371
     28  O5'       80.0260   31.2330   19.4830 O.3   801  2MD801     -0.3112
     29  C5'       80.4760   29.9710   19.9130 C.3   801  2MD801      0.1813
     30  C4'       80.4080   29.0900   18.6920 C.3   801  2MD801      0.1799
     31  O4'       80.9640   27.8470   19.0560 O.3   801  2MD801     -0.3326
     32  C1'       80.0990   26.8810   18.4590 C.3   801  2MD801      0.2293
     33  N9        80.3280   25.6050   19.1520 N.pl3 801  2MD801     -0.2354
     34  C4        81.2430   24.7550   18.7510 C.2   801  2MD801      0.2300
     35  N3        82.1090   24.7390   17.7410 N.2   801  2MD801     -0.3074
     36  C2        82.9250   23.6700   17.5820 C.1   801  2MD801      0.2531
     37  N2        83.8270   23.6710   16.5310 N.pl3 801  2MD801     -0.0226
     38  N1        82.9130   22.6140   18.4190 N.2   801  2MD801     -0.2485
     39  C6        82.0830   22.5240   19.4660 C.1   801  2MD801      0.2372
     40  O6        82.0650   21.5480   20.2390 O.2   801  2MD801     -0.2069
     41  C5        81.1710   23.6420   19.6920 C.2   801  2MD801      0.2182
     42  N7        80.2250   23.9270   20.5870 N.2   801  2MD801     -0.2322
     43  C8        79.7170   25.1360   20.2540 C.3   801  2MD801      0.2246
     44  C2'       78.6930   27.4430   18.6220 C.3   801  2MD801      0.2310
     45  O2'       77.7300   26.7890   17.8130 O.3   801  2MD801     -0.2158
     46  C3'       78.9590   28.8930   18.2500 C.3   801  2MD801      0.2158
     47  O3'       78.7900   29.1840   16.8740 O.3   801  2MD801     -0.2175
@<TRIPOS>BOND
     1    37    36    1
     2    47    46    1
     3    36    35    2
     4    36    38    2
     5    35    34    2
     6    45    44    1
     7    46    44    1
     8    46    30    1
     9    38    39    2
    10    32    44    1
    11    32    31    1
    12    32    33    1
    13    30    31    1
    14    30    29    1
    15    34    33    1
    16    34    41    1
    17    33    43    1
    18    39    41    1
    19    39    40    2
    20    28    29    1
    21    28    25    1
    22     3     1    2
    23    41    42    2
    24     2    25    1
    25     2     1    1
    26    43    42    1
    27    26    25    2
    28    20    19    1
    29    25    27    1
    30     1     5    1
    31     1     4    1
    32     5     6    1
    33    21    19    2
    34    21    22    2
    35    19    18    2
    36    23    22    2
    37    23    24    1
    38    22    15    1
    39     6     7    1
    40     8    24    1
    41     8     7    1
    42    18    16    2
    43    24    13    1
    44     7     9    1
    45    15    16    1
    46    15    14    2
    47    16    17    2
    48    14    13    1
    49    13    11    1
    50     9    11    1
    51     9    10    1
    52    11    12    1
