@<TRIPOS>MOLECULE
2iv3_UDP_A_1.pdb
 25 26 0 0 0
SMALL
GASTEIGER

@<TRIPOS>ATOM
      1  N1        21.1720   12.8960   10.2080 N.am  1353  UDP1353    -0.1766
      2  C2        22.1380   13.2260    9.2410 C.1   1353  UDP1353     0.2845
      3  N3        23.3850   13.5610    9.6470 N.2   1353  UDP1353    -0.2452
      4  C4        23.7040   13.5810   10.9440 C.1   1353  UDP1353     0.2182
      5  C5        22.7790   13.2620   11.9170 C.2   1353  UDP1353     0.1242
      6  C6        21.4880   12.9230   11.5070 C.2   1353  UDP1353     0.0929
      7  O2        21.8380   13.2080    8.0220 O.2   1353  UDP1353    -0.1918
      8  O4        24.8370   13.8640   11.2930 O.2   1353  UDP1353    -0.2085
      9  C1'       19.7980   12.5480    9.7860 C.3   1353  UDP1353     0.2401
     10  C2'       19.3760   11.0850    9.9530 C.3   1353  UDP1353     0.2319
     11  O2'       19.7670   10.1950    8.9170 O.3   1353  UDP1353    -0.2157
     12  C3'       17.8670   11.1900    9.9240 C.3   1353  UDP1353     0.2158
     13  C4'       17.6420   12.4900   10.6880 C.3   1353  UDP1353     0.1799
     14  O4'       18.8930   13.2230   10.6590 O.3   1353  UDP1353    -0.3320
     15  O3'       17.4310   11.2680    8.5640 O.3   1353  UDP1353    -0.2175
     16  C5'       17.3610   12.1440   12.1340 C.3   1353  UDP1353     0.1813
     17  O5'       15.9640   12.0970   12.2590 O.3   1353  UDP1353    -0.3111
     18  PA        15.2450   11.2180   13.4020 P.3   1353  UDP1353     0.2231
     19  O1A       13.7080   11.1130   13.1480 O.2   1353  UDP1353    -0.5169
     20  O2A       15.8570    9.8260   13.6150 O.3   1353  UDP1353    -0.4370
     21  O3A       15.4780   12.0710   14.7390 O.3   1353  UDP1353    -0.2261
     22  PB        14.7900   13.5250   14.9480 P.3   1353  UDP1353     0.5373
     23  O1B       13.5200   13.3980   15.8230 O.3   1353  UDP1353    -0.1143
     24  O2B       14.4020   14.1330   13.4670 O.2   1353  UDP1353    -0.2221
     25  O3B       15.8270   14.4650   15.5620 O.3   1353  UDP1353    -0.1143
@<TRIPOS>BOND
     1     7     2    2
     2    15    12    1
     3    11    10    1
     4     2     3    2
     5     2     1   am
     6     3     4    2
     7     9    10    1
     8     9     1    1
     9     9    14    1
    10    12    10    1
    11    12    13    1
    12     1     6    1
    13    14    13    1
    14    13    16    1
    15     4     8    2
    16     4     5    1
    17     6     5    2
    18    16    17    1
    19    17    18    1
    20    19    18    2
    21    18    20    1
    22    18    21    1
    23    24    22    2
    24    21    22    1
    25    22    25    1
    26    22    23    1
