@<TRIPOS>MOLECULE
2iv7_UDP_A_1.pdb
 25 26 0 0 0
SMALL
GASTEIGER

@<TRIPOS>ATOM
      1  N1        -4.9390    6.7640  -16.5200 N.am  1372  UDP1372    -0.1766
      2  C2        -4.5940    5.5050  -16.0630 C.1   1372  UDP1372     0.2845
      3  N3        -4.3600    5.3030  -14.7140 N.2   1372  UDP1372    -0.2452
      4  C4        -4.4640    6.3660  -13.8390 C.1   1372  UDP1372     0.2182
      5  C5        -4.7910    7.6390  -14.3020 C.2   1372  UDP1372     0.1242
      6  C6        -4.9990    7.8440  -15.6620 C.2   1372  UDP1372     0.0929
      7  O2        -4.4940    4.5420  -16.8250 O.2   1372  UDP1372    -0.1918
      8  O4        -4.2320    6.1820  -12.6400 O.2   1372  UDP1372    -0.2085
      9  C1'       -5.1830    6.9460  -17.9530 C.3   1372  UDP1372     0.2401
     10  C2'       -6.6650    7.1080  -18.2610 C.3   1372  UDP1372     0.2319
     11  O2'       -7.3330    5.8530  -18.3280 O.3   1372  UDP1372    -0.2157
     12  C3'       -6.5990    7.8700  -19.5670 C.3   1372  UDP1372     0.2158
     13  C4'       -5.4310    8.8150  -19.3260 C.3   1372  UDP1372     0.1799
     14  O4'       -4.6160    8.1780  -18.3460 O.3   1372  UDP1372    -0.3320
     15  O3'       -6.2700    6.9860  -20.6250 O.3   1372  UDP1372    -0.2175
     16  C5'       -5.8590   10.1790  -18.7880 C.3   1372  UDP1372     0.1813
     17  O5'       -6.2470   10.9890  -19.8820 O.3   1372  UDP1372    -0.3111
     18  PA        -7.3510   12.1230  -19.6870 P.3   1372  UDP1372     0.2231
     19  O1A       -8.5970   11.5300  -19.1110 O.3   1372  UDP1372    -0.4370
     20  O2A       -7.5710   12.7740  -21.0090 O.2   1372  UDP1372    -0.5169
     21  O3A       -6.7760   13.1120  -18.5800 O.3   1372  UDP1372    -0.2261
     22  PB        -5.3520   13.8900  -18.5600 P.3   1372  UDP1372     0.5373
     23  O1B       -4.8880   14.1600  -19.9500 O.2   1372  UDP1372    -0.2221
     24  O2B       -4.3770   13.0350  -17.8460 O.3   1372  UDP1372    -0.1143
     25  O3B       -5.6600   15.1490  -17.8600 O.3   1372  UDP1372    -0.1143
@<TRIPOS>BOND
     1    20    18    2
     2    15    12    1
     3    23    22    2
     4    17    18    1
     5    17    16    1
     6    18    19    1
     7    18    21    1
     8    12    13    1
     9    12    10    1
    10    13    16    1
    11    13    14    1
    12    21    22    1
    13    22    25    1
    14    22    24    1
    15    14     9    1
    16    11    10    1
    17    10     9    1
    18     9     1    1
    19     7     2    2
    20     1     2   am
    21     1     6    1
    22     2     3    2
    23     6     5    2
    24     3     4    2
    25     5     4    1
    26     4     8    2
