@<TRIPOS>MOLECULE
2iv8_III_Q_1.pdb
 26 26 0 0 0
SMALL
GASTEIGER

@<TRIPOS>ATOM
      1  N         21.3610   10.5390  -40.8060 N.3     4  ILE4       -0.1231
      2  CA        20.1640   11.0780  -40.0030 C.3     4  ILE4        0.1692
      3  C         19.0170   10.8980  -40.9570 C.2     4  ILE4        0.2592
      4  O         18.9640   11.5250  -42.0420 O.2     4  ILE4       -0.2718
      5  CB        20.2860   12.5530  -39.5330 C.3     4  ILE4        0.0266
      6  CG1       21.7390   13.0810  -39.7330 C.3     4  ILE4        0.0019
      7  CG2       19.7340   12.6950  -38.0560 C.3     4  ILE4        0.0020
      8  CD1       22.3680   12.8780  -41.2920 C.3     4  ILE4        0.0001
      9  N         18.1440    9.9640  -40.5930 N.am    5  VAL5       -0.1966
     10  CA        17.6500    9.0590  -41.6240 C.3     5  VAL5        0.1727
     11  C         16.1480    8.9600  -41.6020 C.2     5  VAL5        0.2616
     12  O         15.5660    8.0570  -42.2130 O.2     5  VAL5       -0.2715
     13  CB        18.3720    7.6770  -41.5020 C.3     5  VAL5        0.0290
     14  CG1       17.6470    6.5960  -42.2930 C.3     5  VAL5        0.0023
     15  CG2       19.9140    7.7830  -41.8860 C.3     5  VAL5        0.0023
     16  N         15.5320    9.9030  -40.8980 N.am    6  PHE6       -0.1974
     17  CA        14.0850   10.0620  -40.9170 C.3     6  PHE6        0.1639
     18  C         13.7880   11.5480  -40.9070 C.2     6  PHE6        0.2290
     19  O         14.5730   12.3150  -40.3460 O.2     6  PHE6       -0.2864
     20  CB        13.4280    9.3680  -39.6950 C.3     6  PHE6        0.0560
     21  CG        13.7610    7.8850  -39.5690 C.ar    6  PHE6       -0.0200
     22  CD1       13.0370    6.9260  -40.2700 C.ar    6  PHE6       -0.0042
     23  CD2       14.8070    7.4570  -38.7540 C.ar    6  PHE6       -0.0042
     24  CE1       13.3650    5.5580  -40.1650 C.ar    6  PHE6       -0.0003
     25  CE2       15.1230    6.0990  -38.6580 C.ar    6  PHE6       -0.0003
     26  CZ        14.4020    5.1460  -39.3630 C.ar    6  PHE6       -0.0000
@<TRIPOS>BOND
     1    14    13    1
     2    12    11    2
     3     4     3    2
     4    15    13    1
     5    10    11    1
     6    10    13    1
     7    10     9    1
     8    11    16   am
     9     8     6    1
    10     3     9   am
    11     3     2    1
    12    17    18    1
    13    17    16    1
    14    17    20    1
    15    18    19    2
    16     1     2    1
    17    22    24   ar
    18    22    21   ar
    19    24    26   ar
    20     2     5    1
    21     6     5    1
    22    20    21    1
    23    21    23   ar
    24     5     7    1
    25    26    25   ar
    26    23    25   ar
