@<TRIPOS>MOLECULE
2ivd_TWN_B_1.pdb
 25 25 0 0 0
SMALL
GASTEIGER

@<TRIPOS>ATOM
      1  OAG       82.2510    7.6720   62.7130 O.2   1472  TWN1472    -0.2501
      2  CAE       81.1130    7.7270   62.2710 C.2   1472  TWN1472     0.3170
      3  OAI       80.0950    7.3940   63.0900 O.3   1472  TWN1472    -0.4485
      4  CAJ       80.6390    7.1760   64.3860 C.3   1472  TWN1472     0.2085
      5  CAM       79.4560    6.9230   65.2990 C.3   1472  TWN1472     0.0498
      6  CAH       79.9610    6.6560   66.6980 C.3   1472  TWN1472     0.0309
      7  CAO       81.2120    5.8090   66.6740 C.3   1472  TWN1472     0.0026
      8  CAB       78.8990    6.0460   67.5920 C.3   1472  TWN1472     0.1153
      9  OAA       79.2790    6.3420   68.9290 O.3   1472  TWN1472    -0.3562
     10  CAD       79.9460    5.1790   69.3880 C.3   1472  TWN1472     0.1420
     11  CAF       79.0050    4.0790   68.9770 C.3   1472  TWN1472     0.0320
     12  CAN       79.7330    2.7450   68.8790 C.3   1472  TWN1472     0.0027
     13  CAC       78.5320    4.5630   67.6150 C.3   1472  TWN1472     0.0296
     14  CAK       79.1260    3.7460   66.4770 C.3   1472  TWN1472     0.0026
     15  CAL       80.8450    8.1680   60.8340 C.3   1472  TWN1472     0.1096
     16  CAP       82.0060    8.9680   60.2570 C.3   1472  TWN1472     0.0116
     17  CAW       81.8810    9.0760   58.7450 C.3   1472  TWN1472     0.0006
     18  CAS       81.9490   10.5190   58.2720 C.3   1472  TWN1472     0.0000
     19  CAX       81.1180   11.4380   59.1570 C.3   1472  TWN1472     0.0000
     20  CAT       80.4400   12.5270   58.3370 C.3   1472  TWN1472     0.0000
     21  CAU       79.0140   12.7740   58.8020 C.3   1472  TWN1472     0.0000
     22  CAV       78.0180   12.6250   57.6590 C.3   1472  TWN1472     0.0000
     23  CAR       77.4580   13.9730   57.1990 C.3   1472  TWN1472     0.0000
     24  CAQ       75.9370   14.0620   57.3500 C.3   1472  TWN1472     0.0000
     25  CAY       75.2200   13.7070   56.0580 C.3   1472  TWN1472     0.0000
@<TRIPOS>BOND
     1    25    24    1
     2    23    24    1
     3    23    22    1
     4    22    21    1
     5    18    17    1
     6    18    19    1
     7    20    21    1
     8    20    19    1
     9    17    16    1
    10    16    15    1
    11    15     2    1
    12     2     1    2
    13     2     3    1
    14     3     4    1
    15     4     5    1
    16     5     6    1
    17    14    13    1
    18     7     6    1
    19     6     8    1
    20     8    13    1
    21     8     9    1
    22    13    11    1
    23    12    11    1
    24     9    10    1
    25    11    10    1
