@<TRIPOS>MOLECULE
2ivd_ACJ_A_1.pdb
 24 25 0 0 0
SMALL
GASTEIGER

@<TRIPOS>ATOM
      1  O3        79.9220   33.1230   33.7710 O.co2 1465  ACJ1465    -0.2405
      2  C11       80.1060   34.3090   33.4150 C.2   1465  ACJ1465     0.3895
      3  O2        81.2490   34.7460   33.1320 O.co2 1465  ACJ1465    -0.2405
      4  C9        78.5560   35.6380   32.0200 C.ar  1465  ACJ1465     0.0457
      5  C14       78.1210   35.7400   34.4570 C.ar  1465  ACJ1465     0.1494
      6  C8        77.4670   36.4860   31.8170 C.ar  1465  ACJ1465     0.1456
      7  N1        78.4030   35.4010   35.7420 N.pl3 1465  ACJ1465     0.0579
      8  C13       77.0430   36.5970   34.2010 C.ar  1465  ACJ1465     0.0274
      9  O5        79.4620   34.5510   36.0610 O.2   1465  ACJ1465    -0.1261
     10  C12       76.7170   36.9630   32.8930 C.ar  1465  ACJ1465     0.0392
     11  O1        77.1480   36.8620   30.5400 O.3   1465  ACJ1465    -0.4526
     12  C7        77.6480   36.1850   29.4490 C.ar  1465  ACJ1465     0.1557
     13  O4        77.6140   35.9090   36.7690 O.2   1465  ACJ1465    -0.1261
     14  C6        78.8870   36.4920   28.8810 C.ar  1465  ACJ1465     0.0383
     15  C10       78.9240   35.2320   33.2960 C.ar  1465  ACJ1465     0.1052
     16  C4        76.8280   35.0970   28.8500 C.ar  1465  ACJ1465     0.0920
     17  C5        79.3270   35.7650   27.7710 C.ar  1465  ACJ1465     0.0070
     18  C2        78.5510   34.7410   27.2050 C.ar  1465  ACJ1465     0.0725
     19 CL1        75.2430   34.7320   29.5900 Cl    1465  ACJ1465    -0.0791
     20  C3        77.3010   34.4030   27.7400 C.ar  1465  ACJ1465     0.0183
     21  C1        79.0760   33.9840   26.0170 C.3   1465  ACJ1465     0.4186
     22  F1        78.5540   32.7720   25.9980 F     1465  ACJ1465    -0.1659
     23  F2        80.3970   33.8970   26.0860 F     1465  ACJ1465    -0.1659
     24  F3        78.7330   34.5960   24.9040 F     1465  ACJ1465    -0.1659
@<TRIPOS>BOND
     1    24    21    1
     2    22    21    1
     3    21    23    1
     4    21    18    1
     5    18    20   ar
     6    18    17   ar
     7    20    16   ar
     8    17    14   ar
     9    16    12   ar
    10    16    19    1
    11    14    12   ar
    12    12    11    1
    13    11     6    1
    14     6     4   ar
    15     6    10   ar
    16     4    15   ar
    17    10     8   ar
    18     3     2   ar
    19    15     2    1
    20    15     5   ar
    21     2     1   ar
    22     8     5   ar
    23     5     7    1
    24     7     9    2
    25     7    13    2
