@<TRIPOS>MOLECULE
2ive_TWN_A_1.pdb
 25 25 0 0 0
SMALL
GASTEIGER

@<TRIPOS>ATOM
      1  OAG       76.2910   34.3950   26.6170 O.2   4002  TWN4002    -0.2501
      2  CAE       76.8670   34.7370   27.6370 C.2   4002  TWN4002     0.3170
      3  OAI       76.3340   34.3560   28.8210 O.3   4002  TWN4002    -0.4485
      4  CAJ       75.8060   35.4030   29.6090 C.3   4002  TWN4002     0.2085
      5  CAM       76.8680   35.7980   30.6250 C.3   4002  TWN4002     0.0498
      6  CAH       76.2320   36.1200   31.9730 C.3   4002  TWN4002     0.0309
      7  CAO       75.2280   37.2380   31.8430 C.3   4002  TWN4002     0.0026
      8  CAB       77.3110   36.4550   32.9860 C.3   4002  TWN4002     0.1153
      9  OAA       78.0100   35.2810   33.3650 O.3   4002  TWN4002    -0.3562
     10  CAD       78.6950   35.6020   34.5850 C.3   4002  TWN4002     0.1420
     11  CAF       77.7800   36.5760   35.3210 C.3   4002  TWN4002     0.0320
     12  CAN       77.1420   35.9380   36.5410 C.3   4002  TWN4002     0.0027
     13  CAC       76.7430   36.9750   34.2840 C.3   4002  TWN4002     0.0296
     14  CAK       75.4020   36.3400   34.5590 C.3   4002  TWN4002     0.0026
     15  CAL       78.1480   35.5660   27.5530 C.3   4002  TWN4002     0.1096
     16  CAP       79.3700   34.7150   27.2080 C.3   4002  TWN4002     0.0116
     17  CAW       80.1220   34.2950   28.4800 C.3   4002  TWN4002     0.0006
     18  CAS       81.6100   34.6260   28.4310 C.3   4002  TWN4002     0.0000
     19  CAX       82.5080   33.4300   28.7270 C.3   4002  TWN4002     0.0000
     20  CAT       82.8970   32.7060   27.4390 C.3   4002  TWN4002     0.0000
     21  CAU       84.3000   32.0970   27.5000 C.3   4002  TWN4002     0.0000
     22  CAV       84.7780   31.8580   28.9280 C.3   4002  TWN4002     0.0000
     23  CAR       84.4910   33.0550   29.8290 C.3   4002  TWN4002     0.0000
     24  CAQ       85.4060   33.0650   31.0530 C.3   4002  TWN4002     0.0000
     25  CAY       84.9000   32.0850   32.1220 C.3   4002  TWN4002     0.0000
@<TRIPOS>BOND
     1     1     2    2
     2    16    15    1
     3    16    17    1
     4    20    21    1
     5    20    19    1
     6    21    22    1
     7    15     2    1
     8     2     3    1
     9    18    17    1
    10    18    19    1
    11     3     4    1
    12    22    23    1
    13     4     5    1
    14    23    24    1
    15     5     6    1
    16    24    25    1
    17     7     6    1
    18     6     8    1
    19     8     9    1
    20     8    13    1
    21     9    10    1
    22    13    14    1
    23    13    11    1
    24    10    11    1
    25    11    12    1
