@<TRIPOS>MOLECULE
2ivf_HEM_C_1.pdb
 43 50 0 0 0
SMALL
GASTEIGER

@<TRIPOS>ATOM
      1 FE         23.3740   24.5980  -50.5030 Fe    1217  HEM1217     0.0000
      2  CHA       23.9480   26.6550  -47.7570 C.2   1217  HEM1217     0.0000
      3  CHB       20.6060   26.3390  -51.2380 C.2   1217  HEM1217     0.0000
      4  CHC       22.8010   22.5090  -53.2380 C.2   1217  HEM1217     0.0000
      5  CHD       26.0450   22.7390  -49.6470 C.2   1217  HEM1217     0.0000
      6  NA        22.4740   26.1530  -49.6440 N.ar  1217  HEM1217     0.0000
      7  C1A       22.8650   26.8910  -48.5530 C.ar  1217  HEM1217     0.0000
      8  C2A       21.9410   27.9740  -48.3820 C.ar  1217  HEM1217     0.0000
      9  C3A       21.0180   27.8920  -49.3530 C.ar  1217  HEM1217     0.0000
     10  C4A       21.3350   26.7450  -50.1510 C.ar  1217  HEM1217     0.0000
     11  CMA       19.8160   28.8270  -49.5860 C.3   1217  HEM1217     0.0000
     12  CAA       22.0600   29.0270  -47.2610 C.3   1217  HEM1217     0.0000
     13  CBA       21.5430   28.4620  -45.9540 C.3   1217  HEM1217     0.0000
     14  CGA       21.6680   29.5400  -44.9200 C.2   1217  HEM1217     0.0000
     15  O1A       22.1410   30.6670  -45.2350 O.co2 1217  HEM1217     0.0000
     16  O2A       21.2870   29.2690  -43.7670 O.co2 1217  HEM1217     0.0000
     17  NB        21.9830   24.4620  -51.9990 N.2   1217  HEM1217     0.0000
     18  C1B       20.8680   25.2640  -52.0480 C.2   1217  HEM1217     0.0000
     19  C2B       20.0320   24.8080  -53.1340 C.2   1217  HEM1217     0.0000
     20  C3B       20.6360   23.7530  -53.6920 C.2   1217  HEM1217     0.0000
     21  C4B       21.8740   23.5090  -52.9850 C.2   1217  HEM1217     0.0000
     22  CMB       18.6790   25.4470  -53.5120 C.3   1217  HEM1217     0.0000
     23  CAB       20.1230   22.9070  -54.8630 C.2   1217  HEM1217     0.0000
     24  CBB       20.9430   22.3870  -55.7700 C.2   1217  HEM1217     0.0000
     25  NC        24.2550   22.9980  -51.3380 N.ar  1217  HEM1217     0.0000
     26  C1C       23.8440   22.2030  -52.4020 C.ar  1217  HEM1217     0.0000
     27  C2C       24.6320   20.9880  -52.4370 C.ar  1217  HEM1217     0.0000
     28  C3C       25.5190   21.0770  -51.4170 C.ar  1217  HEM1217     0.0000
     29  C4C       25.2830   22.3200  -50.7180 C.ar  1217  HEM1217     0.0000
     30  CMC       24.4810   19.8580  -53.4850 C.3   1217  HEM1217     0.0000
     31  CAC       26.6270   20.0950  -50.9860 C.2   1217  HEM1217     0.0000
     32  CBC       27.3050   19.3860  -51.8870 C.2   1217  HEM1217     0.0000
     33  ND        24.7290   24.6840  -48.9430 N.2   1217  HEM1217     0.0000
     34  C1D       25.8070   23.8090  -48.8510 C.2   1217  HEM1217     0.0000
     35  C2D       26.6670   24.1690  -47.7510 C.2   1217  HEM1217     0.0000
     36  C3D       26.0020   25.4100  -47.1560 C.2   1217  HEM1217     0.0000
     37  C4D       24.8220   25.6350  -47.9540 C.2   1217  HEM1217     0.0000
     38  CMD       27.9750   23.4470  -47.3210 C.3   1217  HEM1217     0.0000
     39  CAD       26.4280   26.2770  -45.9700 C.3   1217  HEM1217     0.0000
     40  CBD       27.1710   27.4920  -46.5020 C.3   1217  HEM1217     0.0000
     41  CGD       26.9100   28.7120  -45.6800 C.2   1217  HEM1217     0.0000
     42  O1D       27.7330   29.6550  -45.7820 O.co2 1217  HEM1217     0.0000
     43  O2D       25.8910   28.7460  -44.9550 O.co2 1217  HEM1217     0.0000
@<TRIPOS>BOND
     1    24    23    2
     2    23    20    1
     3    20    19    2
     4    20    21    1
     5    22    19    1
     6    30    27    1
     7     4    21    2
     8     4    26    1
     9    19    18    1
    10    21    17    1
    11    27    26   ar
    12    27    28   ar
    13    26    25   ar
    14    18    17    2
    15    18     3    1
    16    17     1    1
    17    32    31    2
    18    28    31    1
    19    28    29   ar
    20    25    29   ar
    21    25     1    1
    22     3    10    2
    23    29     5    1
    24     1     6    1
    25     1    33    1
    26    10     6   ar
    27    10     9   ar
    28     5    34    2
    29     6     7   ar
    30    11     9    1
    31     9     8   ar
    32    33    34    1
    33    33    37    2
    34    34    35    1
    35     7     8   ar
    36     7     2    2
    37     8    12    1
    38    37     2    1
    39    37    36    1
    40    35    38    1
    41    35    36    2
    42    12    13    1
    43    36    39    1
    44    40    39    1
    45    40    41    1
    46    13    14    1
    47    42    41   ar
    48    41    43   ar
    49    15    14   ar
    50    14    16   ar
