@<TRIPOS>MOLECULE
2ivf_MGD_A_1.pdb
 47 52 0 0 0
SMALL
GASTEIGER

@<TRIPOS>ATOM
      1  PB        29.2170   26.4100    9.6790 P.3   1986  MGD1986     0.2189
      2  O1B       28.8170   26.8550    8.3160 O.2   1986  MGD1986    -0.5170
      3  O2B       28.0950   26.0930   10.6000 O.3   1986  MGD1986    -0.4371
      4  O3B       30.1800   27.3800   10.4650 O.3   1986  MGD1986    -0.2703
      5  O3A       30.3400   29.5860    9.2010 O.3   1986  MGD1986    -0.3109
      6  PA        31.2390   28.4980    9.9450 P.3   1986  MGD1986     0.2189
      7  O1A       32.1710   27.9940    8.9310 O.2   1986  MGD1986    -0.5170
      8  O2A       31.7880   29.0560   11.1670 O.3   1986  MGD1986    -0.4371
      9  O5'       30.1480   25.1030    9.5710 O.3   1986  MGD1986    -0.3112
     10  C5'       29.6870   23.9770    8.8100 C.3   1986  MGD1986     0.1813
     11  C4'       30.5580   22.7580    9.1010 C.3   1986  MGD1986     0.1799
     12  O4'       30.3450   22.3160   10.4340 O.3   1986  MGD1986    -0.3326
     13  C3'       29.9280   21.6740    8.2580 C.3   1986  MGD1986     0.2158
     14  O3'       30.6230   21.6560    7.0170 O.3   1986  MGD1986    -0.2175
     15  C2'       30.1820   20.4090    9.0880 C.3   1986  MGD1986     0.2310
     16  O2'       31.1050   19.5490    8.3940 O.3   1986  MGD1986    -0.2158
     17  C1'       30.7840   20.9490   10.3960 C.3   1986  MGD1986     0.2293
     18  N9        30.2000   20.2090   11.5400 N.pl3 1986  MGD1986    -0.2354
     19  C8        28.9060   20.0380   11.8510 C.3   1986  MGD1986     0.2246
     20  N7        28.7800   19.3470   12.9900 N.2   1986  MGD1986    -0.2322
     21  C5        30.0440   19.0910   13.4140 C.2   1986  MGD1986     0.2182
     22  C6        30.6210   18.4120   14.4780 C.1   1986  MGD1986     0.2372
     23  O6        29.9950   17.8170   15.3640 O.2   1986  MGD1986    -0.2069
     24  N1        32.0170   18.3910   14.5490 N.2   1986  MGD1986    -0.2485
     25  C2        32.8750   18.9800   13.6080 C.1   1986  MGD1986     0.2531
     26  N2        34.2410   18.8880   13.7580 N.pl3 1986  MGD1986    -0.0226
     27  N3        32.2960   19.6500   12.6020 N.2   1986  MGD1986    -0.3074
     28  C4        30.9330   19.6840   12.4900 C.2   1986  MGD1986     0.2300
     29  C10       29.3280   30.2560    9.8590 C.3   1986  MGD1986     0.1837
     30  C11       29.4580   31.7290    9.5590 C.3   1986  MGD1986     0.1762
     31  O11       29.4010   31.8860    8.2010 O.3   1986  MGD1986    -0.3271
     32  C12       28.4430   32.6250   10.2840 C.2   1986  MGD1986     0.0473
     33  S12       27.8680   32.2550   11.9040 S.3   1986  MGD1986    -0.0526
     34  C13       27.9710   33.7520    9.6590 C.2   1986  MGD1986     0.0449
     35  S13       26.8490   34.7740   10.4890 S.3   1986  MGD1986    -0.0530
     36  C14       28.3970   34.0870    8.2710 C.3   1986  MGD1986     0.1850
     37  N15       27.2980   33.6360    7.3700 N.2   1986  MGD1986    -0.2411
     38  C16       27.5540   33.2410    6.0430 C.2   1986  MGD1986     0.2467
     39  C17       26.5600   32.9600    5.1410 C.1   1986  MGD1986     0.2441
     40  O17       25.3490   33.0190    5.4630 O.2   1986  MGD1986    -0.2063
     41  N18       26.9390   32.5690    3.8410 N.2   1986  MGD1986    -0.2474
     42  C19       28.2370   32.4820    3.4430 C.1   1986  MGD1986     0.2608
     43  N19       28.4870   32.0930    2.1770 N.pl3 1986  MGD1986    -0.0220
     44  N20       29.1800   32.7290    4.3640 N.2   1986  MGD1986    -0.2682
     45  C21       28.8700   33.1270    5.6080 C.1   1986  MGD1986     0.1293
     46  N22       29.8730   33.3890    6.5360 N.2   1986  MGD1986    -0.1763
     47  C23       29.6770   33.2650    7.9510 C.3   1986  MGD1986     0.2573
@<TRIPOS>BOND
     1    43    42    1
     2    42    41    2
     3    42    44    2
     4    41    39    2
     5    44    45    2
     6    39    40    2
     7    39    38    1
     8    45    38    1
     9    45    46    2
    10    38    37    2
    11    46    47    1
    12    14    13    1
    13    37    36    1
    14    47    31    1
    15    47    36    1
    16    31    30    1
    17    13    15    1
    18    13    11    1
    19    36    34    1
    20     2     1    2
    21    16    15    1
    22    10    11    1
    23    10     9    1
    24     7     6    2
    25    15    17    1
    26    11    12    1
    27     5    29    1
    28     5     6    1
    29    30    29    1
    30    30    32    1
    31     9     1    1
    32    34    32    2
    33    34    35    1
    34     1     4    1
    35     1     3    1
    36     6     4    1
    37     6     8    1
    38    32    33    1
    39    17    12    1
    40    17    18    1
    41    18    19    1
    42    18    28    1
    43    19    20    1
    44    28    27    2
    45    28    21    1
    46    27    25    2
    47    20    21    2
    48    21    22    1
    49    25    26    1
    50    25    24    2
    51    22    24    2
    52    22    23    2
