@<TRIPOS>MOLECULE
2ivf_MD1_A_1.pdb
 47 51 0 0 0
SMALL
GASTEIGER

@<TRIPOS>ATOM
      1  PB        18.9330   36.1190   10.1490 P.3   1987  MD11987     0.2189
      2  O3B       19.0860   35.9890    8.5800 O.3   1987  MD11987    -0.2703
      3  O1B       19.7190   37.3090   10.5660 O.2   1987  MD11987    -0.5170
      4  O2B       17.5490   35.8740   10.6130 O.3   1987  MD11987    -0.4371
      5  O3A       19.7410   34.8440   10.6370 O.3   1987  MD11987    -0.3108
      6  C10       21.1570   34.8740   10.9190 C.3   1987  MD11987     0.1870
      7  C11       21.5120   33.4170   11.1680 C.3   1987  MD11987     0.2110
      8  O11       21.5840   32.8420    9.8190 O.3   1987  MD11987    -0.2150
      9  C12       22.8720   33.3110   11.8040 C.2   1987  MD11987     0.0546
     10  S12       23.9780   34.6160   11.7950 S.2   1987  MD11987    -0.0521
     11  C13       23.3080   32.1340   12.3580 C.2   1987  MD11987     0.0680
     12  S13       24.8470   31.9670   13.0300 S.2   1987  MD11987    -0.0481
     13  C14       22.4560   30.9250   12.4370 C.2   1987  MD11987     0.1429
     14  N15       22.8910   29.7400   11.7790 N.2   1987  MD11987    -0.3807
     15  C16       22.0900   28.6300   11.7060 C.2   1987  MD11987     0.2991
     16  C15       22.6390   27.4860   11.1570 C.1   1987  MD11987     0.2569
     17  O14       23.8310   27.4570   10.7490 O.2   1987  MD11987    -0.2052
     18  N17       21.7780   26.4440   11.0340 N.2   1987  MD11987    -0.2466
     19  C17       20.4650   26.5110   11.5020 C.1   1987  MD11987     0.2609
     20  N16       19.7240   25.4220   11.3530 N.pl3 1987  MD11987    -0.0220
     21  N18       19.9820   27.6260   12.0740 N.2   1987  MD11987    -0.2672
     22  C20       20.7780   28.6680   12.1830 C.1   1987  MD11987     0.1401
     23  N8        20.3120   29.7810   12.8070 N.2   1987  MD11987    -0.1989
     24  C7        21.0340   31.0180   12.9330 C.3   1987  MD11987     0.1964
     25  PA        18.0580   36.1700    7.3550 P.3   1987  MD11987     0.2189
     26  O1A       18.9190   36.4890    6.1760 O.2   1987  MD11987    -0.5170
     27  O2A       17.2280   34.9470    7.2760 O.3   1987  MD11987    -0.4371
     28  O5'       17.1350   37.3990    7.7170 O.3   1987  MD11987    -0.3112
     29  C5'       17.7470   38.6830    7.6700 C.3   1987  MD11987     0.1813
     30  C4'       16.9130   39.5990    6.8730 C.3   1987  MD11987     0.1799
     31  O4'       17.7110   40.7720    6.7680 O.3   1987  MD11987    -0.3326
     32  C1'       17.3210   41.3550    5.5240 C.3   1987  MD11987     0.2293
     33  N9        18.2720   42.3400    4.9910 N.pl3 1987  MD11987    -0.2354
     34  C4        18.0580   43.6470    5.0290 C.2   1987  MD11987     0.2300
     35  N3        17.0140   44.3360    5.5480 N.2   1987  MD11987    -0.3074
     36  C2        16.9990   45.6680    5.4950 C.1   1987  MD11987     0.2531
     37  N2        15.9630   46.3700    6.0270 N.pl3 1987  MD11987    -0.0226
     38  N1        18.0270   46.3040    4.8270 N.2   1987  MD11987    -0.2485
     39  C6        19.1130   45.6670    4.2770 C.1   1987  MD11987     0.2372
     40  O6        20.0110   46.3360    3.7660 O.2   1987  MD11987    -0.2069
     41  C5        19.1420   44.2680    4.3870 C.2   1987  MD11987     0.2182
     42  N7        19.9700   43.3130    3.9780 N.2   1987  MD11987    -0.2322
     43  C8        19.4350   42.1500    4.3610 C.3   1987  MD11987     0.2246
     44  C2'       17.2190   40.1760    4.5610 C.3   1987  MD11987     0.2310
     45  O2'       16.3500   40.4240    3.4290 O.3   1987  MD11987    -0.2158
     46  C3'       16.7480   39.0240    5.4610 C.3   1987  MD11987     0.2158
     47  O3'       15.3560   38.6840    5.2280 O.3   1987  MD11987    -0.2175
@<TRIPOS>BOND
     1    45    44    1
     2    40    39    2
     3    42    43    1
     4    42    41    2
     5    39    41    1
     6    39    38    2
     7    43    33    1
     8    41    34    1
     9    44    46    1
    10    44    32    1
    11    38    36    2
    12    33    34    1
    13    33    32    1
    14    34    35    2
    15    47    46    1
    16    46    30    1
    17    36    35    2
    18    36    37    1
    19    32    31    1
    20    26    25    2
    21    31    30    1
    22    30    29    1
    23    27    25    1
    24    25    28    1
    25    25     2    1
    26    29    28    1
    27     2     1    1
    28     8     7    1
    29     1     3    2
    30     1     4    1
    31     1     5    1
    32     5     6    1
    33    17    16    2
    34     6     7    1
    35    18    16    2
    36    18    19    2
    37    16    15    1
    38     7     9    1
    39    20    19    1
    40    19    21    2
    41    15    14    2
    42    15    22    1
    43    14    13    2
    44    10     9    2
    45     9    11    1
    46    21    22    2
    47    22    23    2
    48    11    13    1
    49    11    12    2
    50    13    24    1
    51    23    24    1
