@<TRIPOS>MOLECULE
2ivi_ACW_B_1.pdb
 25 25 0 0 0
SMALL
GASTEIGER

@<TRIPOS>ATOM
      1  C1        17.2040   36.1850    5.6680 C.2   1332  ACW1332     0.3819
      2  C2        15.7680   36.4050    6.1490 C.3   1332  ACW1332     0.1943
      3  C3        15.2250   37.6330    5.4240 C.3   1332  ACW1332     0.0311
      4  C4        13.7850   37.9580    5.9300 C.3   1332  ACW1332     0.0117
      5  C7        13.3640   39.2840    5.2300 C.3   1332  ACW1332     0.0869
      6  C10       11.9410   39.5670    5.5930 C.2   1332  ACW1332     0.2418
      7  N11       10.9890   39.4380    4.6880 N.am  1332  ACW1332    -0.1968
      8  C12        9.5600   39.6860    4.8810 C.3   1332  ACW1332     0.1843
      9  C13        8.8320   38.3460    4.8480 C.2   1332  ACW1332     0.2626
     10  N14       15.7770   36.5660    7.6670 N.3   1332  ACW1332    -0.1208
     11  O15       11.6440   39.9400    6.7520 O.2   1332  ACW1332    -0.2733
     12  C16        9.1240   40.6230    3.7240 C.3   1332  ACW1332     0.0997
     13  S17        9.4290   39.8090    2.1330 S.3   1332  ACW1332    -0.0797
     14  O18        9.3720   37.2610    4.7490 O.2   1332  ACW1332    -0.2714
     15  O19       17.3550   35.9090    4.4440 O.co2 1332  ACW1332    -0.2441
     16  O20       18.1450   36.3100    6.5110 O.co2 1332  ACW1332    -0.2441
     17  N29        7.5040   38.4350    4.9250 N.am  1332  ACW1332    -0.1941
     18  C30        6.6180   37.3200    4.5800 C.3   1332  ACW1332     0.1977
     19  C31        5.3580   37.3550    5.4320 C.2   1332  ACW1332     0.3842
     20  C32        6.2880   37.3220    3.0470 C.3   1332  ACW1332     0.0290
     21  C33        7.2990   36.7600    2.1510 C.3   1332  ACW1332     0.0023
     22  C37        5.5120   38.5690    2.5350 C.3   1332  ACW1332     0.0023
     23  O42        5.2030   38.1810    6.3380 O.co2 1332  ACW1332    -0.2437
     24  O43        4.5180   36.4460    5.1250 O.co2 1332  ACW1332    -0.2437
     25  C40        6.1320   35.9980    2.3440 C.3   1332  ACW1332     0.0023
@<TRIPOS>BOND
     1    13    12    1
     2    21    25    1
     3    21    20    1
     4    25    20    1
     5    22    20    1
     6    20    18    1
     7    12     8    1
     8    15     1   ar
     9    18    17    1
    10    18    19    1
    11     7     8    1
    12     7     6   am
    13    14     9    2
    14     9     8    1
    15     9    17   am
    16    24    19   ar
    17     5     6    1
    18     5     4    1
    19     3     4    1
    20     3     2    1
    21    19    23   ar
    22     6    11    2
    23     1     2    1
    24     1    16   ar
    25     2    10    1
