@<TRIPOS>MOLECULE
2ivj_BCV_A_1.pdb
 24 24 0 0 0
SMALL
GASTEIGER

@<TRIPOS>ATOM
      1  N14       15.7150   36.5330    7.6940 N.3   1332  BCV1332    -0.1208
      2  C2        15.8030   36.3710    6.2210 C.3   1332  BCV1332     0.1943
      3  C1        17.2380   36.2270    5.6580 C.2   1332  BCV1332     0.3819
      4  O19       18.1680   36.3630    6.4770 O.co2 1332  BCV1332    -0.2441
      5  O20       17.3610   35.9740    4.4380 O.co2 1332  BCV1332    -0.2441
      6  C3        15.2260   37.5940    5.5270 C.3   1332  BCV1332     0.0311
      7  C4        13.8250   37.9960    6.0130 C.3   1332  BCV1332     0.0117
      8  C7        13.3490   39.2350    5.2460 C.3   1332  BCV1332     0.0869
      9  C10       11.9200   39.5900    5.6840 C.2   1332  BCV1332     0.2418
     10  O15       11.6130   39.8650    6.8530 O.2   1332  BCV1332    -0.2733
     11  N11       10.9530   39.5250    4.7790 N.am  1332  BCV1332    -0.1968
     12  C12        9.5160   39.7830    4.9950 C.3   1332  BCV1332     0.1843
     13  C16        9.0920   40.6490    3.8130 C.3   1332  BCV1332     0.0997
     14  S17        9.3710   39.8040    2.2180 S.3   1332  BCV1332    -0.0797
     15  C13        8.7340   38.4590    4.9990 C.2   1332  BCV1332     0.2626
     16  O18        9.3270   37.3860    4.8580 O.2   1332  BCV1332    -0.2714
     17  N29        7.4120   38.4280    5.1000 N.am  1332  BCV1332    -0.1941
     18  C30        6.5230   37.2540    4.8700 C.3   1332  BCV1332     0.1977
     19  C31        5.1880   37.2950    5.5840 C.2   1332  BCV1332     0.3842
     20  O42        5.0850   38.2090    6.4190 O.co2 1332  BCV1332    -0.2437
     21  O43        4.3490   36.4150    5.3090 O.co2 1332  BCV1332    -0.2437
     22  C32        6.5250   37.0160    3.3240 C.3   1332  BCV1332     0.0311
     23  C37        6.1830   35.7700    2.5120 C.3   1332  BCV1332     0.0023
     24  C33        7.0650   36.8550    1.8930 C.3   1332  BCV1332     0.0023
@<TRIPOS>BOND
     1    24    23    1
     2    24    22    1
     3    14    13    1
     4    23    22    1
     5    22    18    1
     6    13    12    1
     7     5     3   ar
     8    11    12    1
     9    11     9   am
    10    16    15    2
    11    18    17    1
    12    18    19    1
    13    12    15    1
    14    15    17   am
    15     8     9    1
    16     8     7    1
    17    21    19   ar
    18     6     7    1
    19     6     2    1
    20    19    20   ar
    21     3     2    1
    22     3     4   ar
    23     9    10    2
    24     2     1    1
