@<TRIPOS>MOLECULE
2ivn_ANP_A_1.pdb
 31 33 0 0 0
SMALL
GASTEIGER

@<TRIPOS>ATOM
      1  PG         6.1440   64.6610    6.8400 P.3   1327  ANP1327     0.4884
      2  O1G        4.9270   65.3540    6.2790 O.3   1327  ANP1327    -0.1240
      3  O2G        7.3200   64.6380    5.8920 O.2   1327  ANP1327    -0.2331
      4  O3G        6.5150   65.0880    8.2410 O.3   1327  ANP1327    -0.1240
      5  PB         6.3750   61.8750    8.0650 P.3   1327  ANP1327     0.4669
      6  O1B        7.8660   61.9500    7.8400 O.2   1327  ANP1327    -0.2351
      7  O2B        5.8580   62.1400    9.4530 O.3   1327  ANP1327    -0.1253
      8  N3B        5.6070   63.0010    6.9740 N.3   1327  ANP1327    -0.0163
      9  PA         4.3730   59.9380    7.4960 P.3   1327  ANP1327     0.2220
     10  O1A        4.3560   58.4750    7.1200 O.3   1327  ANP1327    -0.4370
     11  O2A        3.6530   60.9370    6.6220 O.2   1327  ANP1327    -0.5170
     12  O3A        5.9180   60.3790    7.6570 O.3   1327  ANP1327    -0.2360
     13  O5'        3.7870   60.0780    8.9900 O.3   1327  ANP1327    -0.3111
     14  C5'        4.3350   59.3150   10.0610 C.3   1327  ANP1327     0.1813
     15  C4'        3.9070   59.9530   11.3760 C.3   1327  ANP1327     0.1821
     16  O4'        2.4940   59.7740   11.5430 O.3   1327  ANP1327    -0.3135
     17  C3'        4.5920   59.2910   12.5630 C.3   1327  ANP1327     0.2184
     18  O3'        4.9310   60.2930   13.5300 O.3   1327  ANP1327    -0.2174
     19  C2'        3.5210   58.3740   13.1150 C.3   1327  ANP1327     0.2570
     20  O2'        3.6850   58.0720   14.5100 O.3   1327  ANP1327    -0.2130
     21  C1'        2.2620   59.1780   12.8200 C.3   1327  ANP1327     0.3186
     22  N9         1.0710   58.3020   12.8690 N.pl3 1327  ANP1327    -0.1439
     23  C8         0.7830   57.2600   12.0610 C.3   1327  ANP1327     0.3377
     24  N7        -0.3860   56.6740   12.4270 N.2   1327  ANP1327    -0.2095
     25  C5        -0.8580   57.3510   13.4930 C.2   1327  ANP1327     0.2526
     26  C6        -2.0430   57.2700   14.3820 C.2   1327  ANP1327     0.4393
     27  N6        -2.9880   56.3170   14.1960 N.pl3 1327  ANP1327     0.2180
     28  N1        -2.1440   58.1740   15.3860 N.2   1327  ANP1327     0.0021
     29  C2        -1.2160   59.1330   15.5890 C.3   1327  ANP1327     0.5254
     30  N3        -0.1160   59.2660   14.8210 N.2   1327  ANP1327    -0.0055
     31  C4         0.1100   58.4200   13.7810 C.2   1327  ANP1327     0.3518
@<TRIPOS>BOND
     1     3     1    2
     2     2     1    1
     3    11     9    2
     4     1     8    1
     5     1     4    1
     6     8     5    1
     7    10     9    1
     8     9    12    1
     9     9    13    1
    10    12     5    1
    11     6     5    2
    12     5     7    1
    13    13    14    1
    14    14    15    1
    15    15    16    1
    16    15    17    1
    17    16    21    1
    18    23    24    1
    19    23    22    1
    20    24    25    2
    21    17    19    1
    22    17    18    1
    23    21    22    1
    24    21    19    1
    25    22    31    1
    26    19    20    1
    27    25    31    1
    28    25    26    1
    29    31    30    2
    30    27    26    1
    31    26    28    2
    32    30    29    1
    33    28    29    1
