@<TRIPOS>MOLECULE
2ivp_ATP_A_1.pdb
 31 33 0 0 0
SMALL
GASTEIGER

@<TRIPOS>ATOM
      1  PG       -24.5370    5.1760   -6.8660 P.3   1327  ATP1327     0.5373
      2  O1G      -25.8630    4.5120   -7.1110 O.3   1327  ATP1327    -0.1143
      3  O2G      -23.9020    4.7910   -5.5410 O.3   1327  ATP1327    -0.1143
      4  O3G      -23.6140    5.0910   -8.0580 O.2   1327  ATP1327    -0.2221
      5  PB       -24.6100    7.8730   -7.7850 P.3   1327  ATP1327     0.2277
      6  O1B      -23.1180    8.1040   -7.7530 O.3   1327  ATP1327    -0.4368
      7  O2B      -25.2880    7.4910   -9.0720 O.2   1327  ATP1327    -0.5168
      8  O3B      -24.9040    6.7430   -6.6730 O.3   1327  ATP1327    -0.2258
      9  PA       -26.9010    9.5290   -7.2150 P.3   1327  ATP1327     0.2189
     10  O1A      -26.9900   10.9270   -6.6560 O.2   1327  ATP1327    -0.5170
     11  O2A      -27.6970    8.4000   -6.5900 O.3   1327  ATP1327    -0.4371
     12  O3A      -25.3140    9.2150   -7.2370 O.3   1327  ATP1327    -0.2700
     13  O5'      -27.3470    9.6010   -8.7610 O.3   1327  ATP1327    -0.3112
     14  C5'      -26.7230   10.4510   -9.7170 C.3   1327  ATP1327     0.1813
     15  C4'      -27.1180    9.9160  -11.0910 C.3   1327  ATP1327     0.1821
     16  O4'      -28.5350   10.0390  -11.2950 O.3   1327  ATP1327    -0.3135
     17  C3'      -26.4480   10.6980  -12.2040 C.3   1327  ATP1327     0.2184
     18  O3'      -26.0210    9.7510  -13.1890 O.3   1327  ATP1327    -0.2174
     19  C2'      -27.5530   11.5620  -12.7670 C.3   1327  ATP1327     0.2570
     20  O2'      -27.3450   11.8600  -14.1530 O.3   1327  ATP1327    -0.2130
     21  C1'      -28.7880   10.7160  -12.5250 C.3   1327  ATP1327     0.3186
     22  N9       -29.9940   11.5790  -12.4930 N.pl3 1327  ATP1327    -0.1439
     23  C8       -30.2780   12.5670  -11.6170 C.3   1327  ATP1327     0.3377
     24  N7       -31.4680   13.1530  -11.9210 N.2   1327  ATP1327    -0.2095
     25  C5       -31.9680   12.5370  -13.0070 C.2   1327  ATP1327     0.2526
     26  C6       -33.1780   12.6560  -13.8540 C.2   1327  ATP1327     0.4393
     27  N6       -34.1380   13.5670  -13.5990 N.pl3 1327  ATP1327     0.2180
     28  N1       -33.3010   11.8140  -14.9020 N.2   1327  ATP1327     0.0021
     29  C2       -32.3620   10.8870  -15.1800 C.3   1327  ATP1327     0.5254
     30  N3       -31.2360   10.7170  -14.4560 N.2   1327  ATP1327    -0.0055
     31  C4       -30.9900   11.4990  -13.3790 C.2   1327  ATP1327     0.3518
@<TRIPOS>BOND
     1    29    28    1
     2    29    30    1
     3    28    26    2
     4    30    31    2
     5    20    19    1
     6    26    27    1
     7    26    25    1
     8    31    25    1
     9    31    22    1
    10    18    17    1
    11    25    24    2
    12    19    21    1
    13    19    17    1
    14    21    22    1
    15    21    16    1
    16    22    23    1
    17    17    15    1
    18    24    23    1
    19    16    15    1
    20    15    14    1
    21    14    13    1
    22     7     5    2
    23    13     9    1
    24     4     1    2
    25     5     6    1
    26     5    12    1
    27     5     8    1
    28    12     9    1
    29     9    10    2
    30     9    11    1
    31     2     1    1
    32     1     8    1
    33     1     3    1
