@<TRIPOS>MOLECULE
2ivs_ACK_A_1.pdb
 22 25 0 0 0
SMALL
GASTEIGER

@<TRIPOS>ATOM
      1  O3P        8.1200    8.3260   -1.9310 O.3   3016  ACK3016    -0.4373
      2  P          7.4390    7.2830   -2.7390 P.3   3016  ACK3016     0.2143
      3  O1P        5.9290    7.3570   -2.8950 O.2   3016  ACK3016    -0.5172
      4  O2P        7.6960    5.7650   -2.2050 O.3   3016  ACK3016    -0.3070
      5  O5'        8.1420    7.0690   -4.1600 O.3   3016  ACK3016    -0.3112
      6  C5'        8.8620    5.8280   -4.2420 C.3   3016  ACK3016     0.1856
      7  C4'        8.5790    5.0520   -5.5280 C.3   3016  ACK3016     0.1821
      8  O4'        7.7710    3.9100   -5.1690 O.3   3016  ACK3016    -0.3136
      9  C3'        9.8840    4.5860   -6.1960 C.3   3016  ACK3016     0.2142
     10  O3'       10.5920    3.7070   -5.3290 O.3   3016  ACK3016    -0.2176
     11  C1'        7.3240    4.0670   -3.8300 C.3   3016  ACK3016     0.3156
     12  N9         7.0910    2.7390   -3.2190 N.pl3 3016  ACK3016    -0.1439
     13  C8         7.9040    1.6620   -3.2790 C.3   3016  ACK3016     0.3377
     14  N7         7.3400    0.6090   -2.6450 N.2   3016  ACK3016    -0.2095
     15  C5         6.1610    1.0410   -2.1700 C.2   3016  ACK3016     0.2526
     16  C6         5.1050    0.4270   -1.3840 C.2   3016  ACK3016     0.4393
     17  N6         5.2670   -0.8650   -0.9850 N.pl3 3016  ACK3016     0.2180
     18  N1         4.0560    1.2070   -1.0560 N.2   3016  ACK3016     0.0021
     19  C2         3.9420    2.5060   -1.4330 C.3   3016  ACK3016     0.5254
     20  N3         4.8650    3.1450   -2.1710 N.2   3016  ACK3016    -0.0055
     21  C4         5.9910    2.4480   -2.5490 C.2   3016  ACK3016     0.3518
     22  C2'        8.3640    4.9250   -3.1200 C.3   3016  ACK3016     0.2241
@<TRIPOS>BOND
     1     9     7    1
     2     9    10    1
     3     7     8    1
     4     7     6    1
     5     8    11    1
     6     6     5    1
     7     6    22    1
     8     5     2    1
     9    11    12    1
    10    11    22    1
    11    13    12    1
    12    13    14    1
    13    12    21    1
    14    22     4    1
    15     3     2    2
    16     2     4    1
    17     2     1    1
    18    14    15    2
    19    21    20    2
    20    21    15    1
    21    20    19    1
    22    15    16    1
    23    19    18    1
    24    16    18    2
    25    16    17    1
