@<TRIPOS>MOLECULE
2ivt_AMP_A_1.pdb
 23 25 0 0 0
SMALL
GASTEIGER

@<TRIPOS>ATOM
      1  P         64.3490    4.0510    8.1120 P.3   3015  AMP3015     0.5327
      2  O1P       64.3220    3.9430    6.5900 O.2   3015  AMP3015    -0.2224
      3  O2P       65.6520    3.6970    8.8370 O.3   3015  AMP3015    -0.1145
      4  O3P       63.1610    3.3840    8.7710 O.3   3015  AMP3015    -0.1145
      5  O5'       64.1850    5.6600    8.2860 O.3   3015  AMP3015    -0.2675
      6  C5'       65.1560    6.5910    7.7800 C.3   3015  AMP3015     0.1860
      7  C4'       65.1170    7.9290    8.5070 C.3   3015  AMP3015     0.1823
      8  O4'       63.9050    8.6780    8.2770 O.3   3015  AMP3015    -0.3135
      9  C3'       65.2020    7.7860   10.0330 C.3   3015  AMP3015     0.2184
     10  O3'       66.5450    7.6350   10.5130 O.3   3015  AMP3015    -0.2174
     11  C2'       64.5350    9.0510   10.5410 C.3   3015  AMP3015     0.2570
     12  O2'       65.3990   10.1650   10.3530 O.3   3015  AMP3015    -0.2130
     13  C1'       63.4100    9.2110    9.5330 C.3   3015  AMP3015     0.3186
     14  N9        62.1790    8.5090   10.0270 N.pl3 3015  AMP3015    -0.1439
     15  C8        61.8670    7.2030    9.8620 C.3   3015  AMP3015     0.3377
     16  N7        60.6700    6.8830   10.4100 N.2   3015  AMP3015    -0.2095
     17  C5        60.1920    8.0220   10.9670 C.2   3015  AMP3015     0.2526
     18  C6        58.9700    8.4320   11.6930 C.2   3015  AMP3015     0.4393
     19  N6        58.0040    7.5510   11.9960 N.pl3 3015  AMP3015     0.2180
     20  N1        58.8570    9.7210   12.0800 N.2   3015  AMP3015     0.0021
     21  C2        59.7940   10.6540   11.8210 C.3   3015  AMP3015     0.5254
     22  N3        60.9110   10.3510   11.1470 N.2   3015  AMP3015    -0.0055
     23  C4        61.1750    9.0870   10.7080 C.2   3015  AMP3015     0.3518
@<TRIPOS>BOND
     1     2     1    2
     2     6     5    1
     3     6     7    1
     4     1     5    1
     5     1     4    1
     6     1     3    1
     7     8     7    1
     8     8    13    1
     9     7     9    1
    10    13    14    1
    11    13    11    1
    12    15    14    1
    13    15    16    1
    14    14    23    1
    15     9    10    1
    16     9    11    1
    17    12    11    1
    18    16    17    2
    19    23    17    1
    20    23    22    2
    21    17    18    1
    22    22    21    1
    23    18    19    1
    24    18    20    2
    25    21    20    1
