@<TRIPOS>MOLECULE
2ivu_ZD6_A_1.pdb
 30 33 0 0 0
SMALL
GASTEIGER

@<TRIPOS>ATOM
      1  CAK      -24.6920   15.9600  -13.5540 C.3   3015  ZD63015     0.0211
      2  CAM      -25.6660   17.1090  -13.8300 C.3   3015  ZD63015     0.0723
      3  NBD      -26.2060   17.7350  -12.5960 N.3   3015  ZD63015    -0.2715
      4  CAB      -27.4810   18.3480  -13.0230 C.3   3015  ZD63015     0.0896
      5  CAN      -26.5500   16.8150  -11.4660 C.3   3015  ZD63015     0.0723
      6  CAL      -25.5480   15.6720  -11.2810 C.3   3015  ZD63015     0.0211
      7  CBC      -25.3120   14.9490  -12.6080 C.3   3015  ZD63015     0.0465
      8  CAO      -24.3880   13.7520  -12.4290 C.3   3015  ZD63015     0.2050
      9  OAT      -25.2470   12.7670  -11.8870 O.2   3015  ZD63015    -0.4763
     10  CAY      -24.7220   11.5280  -11.6550 C.2   3015  ZD63015     0.1556
     11  CAI      -23.5000   11.1130  -12.1550 C.3   3015  ZD63015     0.1127
     12  CAX      -25.4840   10.6690  -10.8840 C.2   3015  ZD63015     0.1689
     13  OAS      -26.6940   11.1710  -10.4290 O.2   3015  ZD63015    -0.4687
     14  CAA      -27.4580   10.4010   -9.4730 C.3   3015  ZD63015     0.2526
     15  CAJ      -25.0120    9.3770  -10.6250 C.2   3015  ZD63015     0.0484
     16  C5       -23.7800    8.9600  -11.1360 C.2   3015  ZD63015     0.1027
     17  C4       -23.0230    9.8400  -11.8940 C.2   3015  ZD63015     0.0732
     18  N3       -21.8330    9.4340  -12.4010 N.2   3015  ZD63015    -0.2223
     19  C2       -21.3730    8.2090  -12.1660 C.3   3015  ZD63015     0.3917
     20  N1       -22.0550    7.3510  -11.4160 N.2   3015  ZD63015    -0.0327
     21  C6       -23.2520    7.6690  -10.8930 C.2   3015  ZD63015     0.3643
     22  NAR      -23.9680    6.7080  -10.1040 N.pl3 3015  ZD63015    -0.0036
     23  CAW      -23.3730    5.4880   -9.7110 C.ar  3015  ZD63015     0.2106
     24  CAF      -23.9320    4.2780  -10.0880 C.ar  3015  ZD63015     0.0473
     25  CAE      -23.3430    3.0920   -9.6630 C.ar  3015  ZD63015     0.0105
     26  CAU      -22.1950    3.1520   -8.8700 C.ar  3015  ZD63015     0.0370
     27 BR        -21.2330    1.6390   -8.2120 Br    3015  ZD63015    -0.0489
     28  CAH      -21.6590    4.3550   -8.5000 C.ar  3015  ZD63015     0.0400
     29  CAV      -22.2380    5.5040   -8.9150 C.ar  3015  ZD63015     0.1813
     30  FAC      -21.6440    6.6220   -8.4900 F     3015  ZD63015    -0.2004
@<TRIPOS>BOND
     1     2     1    1
     2     2     3    1
     3     1     7    1
     4     4     3    1
     5     7     8    1
     6     7     6    1
     7     3     5    1
     8     8     9    1
     9    18    19    1
    10    18    17    2
    11    19    20    1
    12    11    17    1
    13    11    10    1
    14    17    16    1
    15     9    10    1
    16    10    12    2
    17     5     6    1
    18    20    21    2
    19    16    21    1
    20    16    15    2
    21    21    22    1
    22    12    15    1
    23    12    13    1
    24    13    14    1
    25    22    23    1
    26    24    23   ar
    27    24    25   ar
    28    23    29   ar
    29    25    26   ar
    30    29    28   ar
    31    29    30    1
    32    26    28   ar
    33    26    27    1
