@<TRIPOS>MOLECULE
2ivv_PP1_A_1.pdb
 21 23 0 0 0
SMALL
GASTEIGER

@<TRIPOS>ATOM
      1  N1        25.8500    8.2390   10.2090 N.pl3 3014  PP13014    -0.0877
      2  C2        23.5110   10.2960   12.0650 C.3   3014  PP13014     0.5248
      3  N3        24.6560   10.0170   11.4680 N.2   3014  PP13014    -0.0088
      4  C4        24.8170    8.8150   10.8530 C.2   3014  PP13014     0.3404
      5  C5        23.7740    7.8790   10.8470 C.3   3014  PP13014     0.2639
      6  C6        22.5760    8.2290   11.5100 C.2   3014  PP13014     0.4081
      7  N7        22.4930    9.4270   12.0850 N.2   3014  PP13014    -0.0027
      8  N8        25.5550    7.1110    9.7820 N.2   3014  PP13014    -0.0915
      9  C9        24.3090    6.7800   10.1440 C.2   3014  PP13014     0.1226
     10  N10       21.5160    7.4320   11.6050 N.pl3 3014  PP13014     0.2118
     11  C11       23.6700    5.5880    9.7680 C.ar  3014  PP13014     0.0182
     12  C12       24.1890    4.3410   10.0270 C.ar  3014  PP13014     0.0010
     13  C13       23.5160    3.2030    9.5770 C.ar  3014  PP13014    -0.0042
     14  C14       22.3550    3.3080    8.8030 C.ar  3014  PP13014    -0.0218
     15  C15       21.8470    4.5790    8.4910 C.ar  3014  PP13014    -0.0042
     16  C16       22.5210    5.7030    8.9720 C.ar  3014  PP13014     0.0010
     17  C24       21.6420    2.0230    8.3050 C.3   3014  PP13014     0.0310
     18  C28       27.2010    8.8780    9.9540 C.3   3014  PP13014     0.1509
     19  C29       27.7590    9.4860   11.2590 C.3   3014  PP13014     0.0491
     20  C33       28.1610    7.7460    9.4820 C.3   3014  PP13014     0.0491
     21  C37       27.0660    9.9750    8.8940 C.3   3014  PP13014     0.0491
@<TRIPOS>BOND
     1    17    14    1
     2    15    14   ar
     3    15    16   ar
     4    14    13   ar
     5    21    18    1
     6    16    11   ar
     7    20    18    1
     8    13    12   ar
     9    11    12   ar
    10    11     9    1
    11     8     9    2
    12     8     1    1
    13    18     1    1
    14    18    19    1
    15     9     5    1
    16     1     4    1
    17     5     4    1
    18     5     6    1
    19     4     3    2
    20     3     2    1
    21     6    10    1
    22     6     7    2
    23     2     7    1
