@<TRIPOS>MOLECULE
2iw1_U2F_A_1.pdb
 36 38 0 0 0
SMALL
GASTEIGER

@<TRIPOS>ATOM
      1  C1        -4.4770   15.2830  -20.6840 C.3   900  U2F900      0.2764
      2  O1        -4.9540   14.0580  -20.1190 O.3   900  U2F900     -0.2856
      3  PB        -5.2670   13.6890  -18.5930 P.3   900  U2F900      0.2208
      4  O1B       -4.3060   12.6210  -18.1430 O.2   900  U2F900     -0.5170
      5  O2B       -5.4490   14.9240  -17.7390 O.3   900  U2F900     -0.4371
      6  O3A       -6.7270   12.9970  -18.6510 O.3   900  U2F900     -0.2703
      7  PA        -7.3220   11.9310  -19.7150 P.3   900  U2F900      0.2189
      8  O1A       -7.5170   12.5520  -21.0790 O.2   900  U2F900     -0.5170
      9  O2A       -8.5250   11.3450  -19.0510 O.3   900  U2F900     -0.4371
     10  O5'       -6.2010   10.7930  -19.8670 O.3   900  U2F900     -0.3112
     11  C5'       -5.7830    9.9810  -18.7770 C.3   900  U2F900      0.1813
     12  C4'       -5.3730    8.6130  -19.3240 C.3   900  U2F900      0.1799
     13  O4'       -4.5310    7.9600  -18.3750 O.3   900  U2F900     -0.3320
     14  C1'       -5.1380    6.7490  -17.9290 C.3   900  U2F900      0.2401
     15  C2'       -6.6120    6.9180  -18.2500 C.3   900  U2F900      0.2319
     16  C3'       -6.5560    7.6840  -19.5580 C.3   900  U2F900      0.2158
     17  O3'       -6.2180    6.7990  -20.6420 O.3   900  U2F900     -0.2175
     18  O2'       -7.2800    5.6460  -18.3320 O.3   900  U2F900     -0.2157
     19  N1        -4.8860    6.5790  -16.5010 N.am  900  U2F900     -0.1766
     20  C6'       -4.5280    5.3740  -16.0370 C.1   900  U2F900      0.2845
     21  O6'       -4.4060    4.3920  -16.8080 O.2   900  U2F900     -0.1918
     22  N3        -4.2960    5.2060  -14.7120 N.2   900  U2F900     -0.2452
     23  C7'       -4.4080    6.2360  -13.8440 C.1   900  U2F900      0.2182
     24  O7'       -4.1730    6.0510  -12.6310 O.2   900  U2F900     -0.2085
     25  C8'       -4.7600    7.4910  -14.3060 C.2   900  U2F900      0.1242
     26  C9'       -4.9960    7.6430  -15.6670 C.2   900  U2F900      0.0929
     27  C2        -5.5320   16.3970  -20.7610 C.3   900  U2F900      0.2498
     28  F1        -5.7470   16.9580  -19.5270 F     900  U2F900     -0.2290
     29  C3        -6.8270   15.8200  -21.3270 C.3   900  U2F900      0.2220
     30  O3        -7.8810   16.7970  -21.4090 O.3   900  U2F900     -0.2172
     31  C4        -6.5440   15.2130  -22.7010 C.3   900  U2F900      0.2146
     32  O4        -7.6500   14.3530  -23.0200 O.3   900  U2F900     -0.2176
     33  C5        -5.2550   14.3730  -22.7650 C.3   900  U2F900      0.1835
     34  C6        -4.8220   14.2360  -24.2230 C.3   900  U2F900      0.2142
     35  O6        -3.6250   13.4530  -24.3020 O.3   900  U2F900     -0.2176
     36  O5        -4.1410   14.9110  -22.0240 O.3   900  U2F900     -0.3253
@<TRIPOS>BOND
     1    35    34    1
     2    34    33    1
     3    32    31    1
     4    33    31    1
     5    33    36    1
     6    31    29    1
     7    36     1    1
     8    30    29    1
     9    29    27    1
    10     8     7    2
    11    27     1    1
    12    27    28    1
    13     1     2    1
    14    17    16    1
    15     2     3    1
    16    10     7    1
    17    10    11    1
    18     7     9    1
    19     7     6    1
    20    16    12    1
    21    16    15    1
    22    12    11    1
    23    12    13    1
    24     6     3    1
    25     3     4    2
    26     3     5    1
    27    13    14    1
    28    18    15    1
    29    15    14    1
    30    14    19    1
    31    21    20    2
    32    19    20   am
    33    19    26    1
    34    20    22    2
    35    26    25    2
    36    22    23    2
    37    25    23    1
    38    23    24    2
