@<TRIPOS>MOLECULE
2iw3_ADP_A_1.pdb
 27 29 0 0 0
SMALL
GASTEIGER

@<TRIPOS>ATOM
      1  PB       201.2790 -146.0330  149.0680 P.3   1973  ADP1973     0.5373
      2  O1B      201.5450 -144.5440  149.6200 O.3   1973  ADP1973    -0.1143
      3  O2B      201.6800 -147.0410  150.2610 O.3   1973  ADP1973    -0.1143
      4  O3B      199.8740 -146.2050  148.6330 O.2   1973  ADP1973    -0.2221
      5  PA       203.9110 -145.9850  148.1210 P.3   1973  ADP1973     0.2231
      6  O1A      204.6630 -147.0430  147.4160 O.2   1973  ADP1973    -0.5169
      7  O2A      204.1230 -145.7940  149.5750 O.3   1973  ADP1973    -0.4370
      8  O3A      202.3450 -146.2600  147.8810 O.3   1973  ADP1973    -0.2261
      9  O5'      204.1390 -144.5920  147.3550 O.3   1973  ADP1973    -0.3111
     10  C5'      204.2980 -143.3790  148.0900 C.3   1973  ADP1973     0.1813
     11  C4'      204.5530 -142.2120  147.1380 C.3   1973  ADP1973     0.1821
     12  O4'      203.4990 -142.1030  146.1720 O.3   1973  ADP1973    -0.3135
     13  C3'      204.5740 -140.8800  147.8910 C.3   1973  ADP1973     0.2184
     14  O3'      205.8960 -140.3370  147.9040 O.3   1973  ADP1973    -0.2174
     15  C2'      203.6570 -139.9780  147.0640 C.3   1973  ADP1973     0.2570
     16  O2'      204.3020 -138.7190  146.8550 O.3   1973  ADP1973    -0.2130
     17  C1'      203.5840 -140.7380  145.7380 C.3   1973  ADP1973     0.3186
     18  N9       202.3620 -140.3830  144.9750 N.pl3 1973  ADP1973    -0.1439
     19  C8       201.1110 -140.6210  145.3580 C.3   1973  ADP1973     0.3377
     20  N7       200.2640 -140.2180  144.4130 N.2   1973  ADP1973    -0.2095
     21  C5       200.9830 -139.7160  143.4130 C.2   1973  ADP1973     0.2526
     22  C6       200.6690 -139.1850  142.1700 C.2   1973  ADP1973     0.4393
     23  N6       199.4010 -139.0560  141.7850 N.pl3 1973  ADP1973     0.2180
     24  N1       201.6670 -138.7950  141.3650 N.2   1973  ADP1973     0.0021
     25  C2       202.9330 -138.9020  141.7370 C.3   1973  ADP1973     0.5254
     26  N3       203.2660 -139.4000  142.9140 N.2   1973  ADP1973    -0.0055
     27  C4       202.3210 -139.8180  143.7690 C.2   1973  ADP1973     0.3518
@<TRIPOS>BOND
     1    24    25    1
     2    24    22    2
     3    25    26    1
     4    23    22    1
     5    22    21    1
     6    26    27    2
     7    21    27    1
     8    21    20    2
     9    27    18    1
    10    20    19    1
    11    18    19    1
    12    18    17    1
    13    17    12    1
    14    17    15    1
    15    12    11    1
    16    16    15    1
    17    15    13    1
    18    11    13    1
    19    11    10    1
    20     9    10    1
    21     9     5    1
    22     6     5    2
    23     8     5    1
    24     8     1    1
    25    13    14    1
    26     5     7    1
    27     4     1    2
    28     1     2    1
    29     1     3    1
