@<TRIPOS>MOLECULE
2iw6_QQ2_A_1.pdb
 33 35 0 0 0
SMALL
GASTEIGER

@<TRIPOS>ATOM
      1  C22        3.8680   41.7760   50.5570 C.ar  1296  QQ21296     0.0405
      2  C1         9.7210   44.7760   50.4540 C.3   1296  QQ21296     0.5246
      3  C5         7.7540   43.6700   49.8940 C.2   1296  QQ21296     0.3540
      4  C4         7.0570   44.5980   50.6990 C.3   1296  QQ21296     0.2378
      5  C3         7.7420   45.6250   51.3840 C.2   1296  QQ21296     0.3173
      6  C11        3.1920   45.8110   53.5440 C.ar  1296  QQ21296    -0.0032
      7  C10        3.4340   46.4780   52.3480 C.ar  1296  QQ21296    -0.0184
      8  C9         4.7430   46.7270   51.9120 C.ar  1296  QQ21296     0.0369
      9  C8         5.8380   46.2910   52.6650 C.ar  1296  QQ21296     0.1496
     10  C12        4.2640   45.3640   54.3110 C.ar  1296  QQ21296     0.0145
     11  C17        8.6430   47.6550   53.8110 C.1   1296  QQ21296     0.1259
     12  C16        7.7880   47.8100   52.5830 C.3   1296  QQ21296     0.3130
     13  C13        5.5600   45.6020   53.8670 C.ar  1296  QQ21296     0.0945
     14  C20        5.8680   42.1470   49.2930 C.ar  1296  QQ21296     0.1833
     15  N2         9.0810   45.6700   51.2260 N.2   1296  QQ21296    -0.0110
     16  N6         9.0860   43.8040   49.7900 N.2   1296  QQ21296    -0.0073
     17  N7         7.1150   46.5450   52.1970 N.pl3 1296  QQ21296    -0.1591
     18  N18        9.3490   47.5520   54.7690 N.1   1296  QQ21296    -0.1916
     19  N19        7.1490   42.6070   49.1720 N.pl3 1296  QQ21296    -0.0094
     20  C21        5.1740   42.2530   50.4950 C.ar  1296  QQ21296     0.0475
     21  C23        3.2290   41.1960   49.4550 C.ar  1296  QQ21296     0.1389
     22  C24        3.9350   41.0890   48.2510 C.ar  1296  QQ21296     0.0405
     23  C25        5.2570   41.5680   48.1950 C.ar  1296  QQ21296     0.0475
     24  O26        1.9320   40.7440   49.6220 O.3   1296  QQ21296    -0.4727
     25  C27        1.1290   40.2120   48.5620 C.3   1296  QQ21296     0.2394
     26  C28       -0.4020   40.1960   48.8010 C.3   1296  QQ21296     0.2112
     27  C29       -0.9060   40.6490   50.1900 C.3   1296  QQ21296     0.1094
     28  N30       -2.4040   40.5940   50.2230 N.3   1296  QQ21296    -0.2681
     29  C31       -3.1750   41.7460   50.6990 C.3   1296  QQ21296     0.0897
     30  C32       -3.1620   39.3690   49.9530 C.3   1296  QQ21296     0.0897
     31  O33       -1.0280   40.9790   47.7660 O.3   1296  QQ21296    -0.2176
     32 CL1         6.8360   44.9780   54.9250 Cl    1296  QQ21296    -0.0787
     33  C33        2.2770   46.9500   51.5190 C.3   1296  QQ21296     0.0311
@<TRIPOS>BOND
     1    31    26    1
     2    23    22   ar
     3    23    14   ar
     4    22    21   ar
     5    25    26    1
     6    25    24    1
     7    26    27    1
     8    19    14    1
     9    19     3    1
    10    14    20   ar
    11    21    24    1
    12    21     1   ar
    13    16     3    2
    14    16     2    1
    15     3     4    1
    16    30    28    1
    17    27    28    1
    18    28    29    1
    19     2    15    1
    20    20     1   ar
    21     4     5    1
    22    15     5    2
    23     5    17    1
    24    33     7    1
    25     8     7   ar
    26     8     9   ar
    27    17    12    1
    28    17     9    1
    29     7     6   ar
    30    12    11    1
    31     9    13   ar
    32     6    10   ar
    33    11    18    3
    34    13    10   ar
    35    13    32    1
