@<TRIPOS>MOLECULE
2iw8_4SP_A_1.pdb
 28 31 0 0 0
SMALL
GASTEIGER

@<TRIPOS>ATOM
      1  C2         8.2220   44.0290   50.0230 C.1   1298  4SP1298     0.2364
      2  C8        11.0250   46.8000   52.1870 C.3   1298  4SP1298     0.2628
      3  C10        5.2950   46.0300   52.0110 C.3   1298  4SP1298     0.2081
      4  C11        4.4120   46.4980   53.1380 C.3   1298  4SP1298     0.0438
      5  C12        2.9660   46.2020   52.7200 C.3   1298  4SP1298     0.0037
      6  C13        1.9720   46.4300   53.8610 C.3   1298  4SP1298     0.0001
      7  C14        2.4070   45.7380   55.1520 C.3   1298  4SP1298     0.0000
      8  C15        3.8420   46.1550   55.5260 C.3   1298  4SP1298     0.0001
      9  C16        4.8150   45.7570   54.4270 C.3   1298  4SP1298     0.0037
     10  C19        4.5350   41.5910   50.1310 C.ar  1298  4SP1298     0.0214
     11  C20        4.2290   40.8110   49.0050 C.ar  1298  4SP1298     0.1251
     12  C21        5.1580   40.8040   47.9430 C.ar  1298  4SP1298     0.0214
     13  C22        6.3390   41.5510   48.0210 C.ar  1298  4SP1298     0.0188
     14  N26        1.6910   40.5510   49.6590 N.3   1298  4SP1298     0.0392
     15  N1         7.2930   44.7030   50.7500 N.2   1298  4SP1298    -0.2865
     16  C6         7.6160   45.6970   51.6130 C.2   1298  4SP1298     0.3177
     17  O6         6.6500   46.3330   52.3110 O.2   1298  4SP1298    -0.4497
     18  C5         9.0200   46.0680   51.7620 C.2   1298  4SP1298     0.2195
     19  N7         9.7070   46.9640   52.4940 N.2   1298  4SP1298    -0.2273
     20  N9        11.1660   45.7940   51.2670 N.2   1298  4SP1298    -0.1806
     21  C4         9.9130   45.3500   50.9890 C.1   1298  4SP1298     0.1221
     22  N3         9.5340   44.3580   50.1440 N.2   1298  4SP1298    -0.2702
     23  N2         7.8180   43.0320   49.1710 N.pl3 1298  4SP1298    -0.1248
     24  C17        6.6350   42.3310   49.1500 C.ar  1298  4SP1298     0.0836
     25  C18        5.7220   42.3300   50.2050 C.ar  1298  4SP1298     0.0188
     26  S23        2.8610   39.9350   48.9110 S.O2  1298  4SP1298     0.0935
     27  O24        3.0650   38.5930   49.5070 O.2   1298  4SP1298    -0.1503
     28  O25        2.5520   39.7690   47.4760 O.2   1298  4SP1298    -0.1503
@<TRIPOS>BOND
     1    28    26    2
     2    12    13   ar
     3    12    11   ar
     4    13    24   ar
     5    26    11    1
     6    26    27    2
     7    26    14    1
     8    11    10   ar
     9    24    23    1
    10    24    25   ar
    11    23     1    1
    12     1    22    2
    13     1    15    2
    14    10    25   ar
    15    22    21    2
    16    15    16    2
    17    21    20    2
    18    21    18    1
    19    20     2    1
    20    16    18    1
    21    16    17    1
    22    18    19    2
    23     3    17    1
    24     3     4    1
    25     2    19    1
    26     5     4    1
    27     5     6    1
    28     4     9    1
    29     6     7    1
    30     9     8    1
    31     7     8    1
