@<TRIPOS>MOLECULE
2iw9_4SP_A_1.pdb
 28 31 0 0 0
SMALL
GASTEIGER

@<TRIPOS>ATOM
      1  C2         7.7900   43.7290   49.8420 C.1   1298  4SP1298     0.2364
      2  C8        10.6640   46.3810   51.9930 C.3   1298  4SP1298     0.2628
      3  C10        4.9380   45.7440   51.8420 C.3   1298  4SP1298     0.2081
      4  C11        4.0580   46.0110   53.0440 C.3   1298  4SP1298     0.0438
      5  C12        2.6180   45.5960   52.7190 C.3   1298  4SP1298     0.0037
      6  C13        1.7050   45.8360   53.9210 C.3   1298  4SP1298     0.0001
      7  C14        2.2770   45.3040   55.2360 C.3   1298  4SP1298     0.0000
      8  C15        3.7340   45.7260   55.4460 C.3   1298  4SP1298     0.0001
      9  C16        4.5760   45.2560   54.2720 C.3   1298  4SP1298     0.0037
     10  C19        4.1300   41.3120   49.9790 C.ar  1298  4SP1298     0.0214
     11  C20        3.7920   40.6400   48.7970 C.ar  1298  4SP1298     0.1251
     12  C21        4.6640   40.7210   47.7110 C.ar  1298  4SP1298     0.0214
     13  C22        5.8660   41.4390   47.8020 C.ar  1298  4SP1298     0.0188
     14  N26        1.3840   40.3000   49.6640 N.3   1298  4SP1298     0.0392
     15  N1         6.8680   44.3970   50.5810 N.2   1298  4SP1298    -0.2865
     16  C6         7.2280   45.3720   51.4530 C.2   1298  4SP1298     0.3177
     17  O6         6.2870   46.0290   52.1840 O.2   1298  4SP1298    -0.4497
     18  C5         8.6560   45.7010   51.5950 C.2   1298  4SP1298     0.2195
     19  N7         9.3640   46.5760   52.3340 N.2   1298  4SP1298    -0.2273
     20  N9        10.7880   45.3880   51.0620 N.2   1298  4SP1298    -0.1806
     21  C4         9.5310   44.9790   50.8070 C.1   1298  4SP1298     0.1221
     22  N3         9.1190   44.0070   49.9570 N.2   1298  4SP1298    -0.2702
     23  N2         7.3900   42.7670   48.9840 N.pl3 1298  4SP1298    -0.1248
     24  C17        6.2030   42.1010   48.9740 C.ar  1298  4SP1298     0.0836
     25  C18        5.3360   42.0230   50.0800 C.ar  1298  4SP1298     0.0188
     26  S23        2.4060   39.8040   48.6540 S.O2  1298  4SP1298     0.0935
     27  O24        2.6670   38.3710   48.8940 O.2   1298  4SP1298    -0.1503
     28  O25        1.8510   40.0060   47.3150 O.2   1298  4SP1298    -0.1503
@<TRIPOS>BOND
     1    28    26    2
     2    12    13   ar
     3    12    11   ar
     4    13    24   ar
     5    26    11    1
     6    26    27    2
     7    26    14    1
     8    11    10   ar
     9    24    23    1
    10    24    25   ar
    11    23     1    1
    12     1    22    2
    13     1    15    2
    14    22    21    2
    15    10    25   ar
    16    15    16    2
    17    21    20    2
    18    21    18    1
    19    20     2    1
    20    16    18    1
    21    16    17    1
    22    18    19    2
    23     3    17    1
    24     3     4    1
    25     2    19    1
    26     5     4    1
    27     5     6    1
    28     4     9    1
    29     6     7    1
    30     9     8    1
    31     7     8    1
