@<TRIPOS>MOLECULE
2iwb_III_B_1.pdb
 28 28 0 0 0
SMALL
GASTEIGER

@<TRIPOS>ATOM
      1  N         49.7990    7.6910   35.5790 N.3     1  GLY1       -0.1210
      2  CA        49.7330    6.2230   35.7980 C.3     1  GLY1        0.1956
      3  C         50.4240    5.4150   34.7140 C.2     1  GLY1        0.2612
      4  O         50.2930    4.1970   34.6820 O.2     1  GLY1       -0.2717
      5  N         51.1850    6.0770   33.8430 N.am    2  HIS2       -0.1961
      6  CA        51.8300    5.4030   32.7180 C.3     2  HIS2        0.1784
      7  C         53.0160    4.5520   33.1550 C.2     2  HIS2        0.2620
      8  O         53.4540    3.6730   32.4070 O.2     2  HIS2       -0.2715
      9  CB        52.2430    6.4040   31.6190 C.3     2  HIS2        0.0745
     10  CG        53.4920    7.1710   31.9230 C.2     2  HIS2        0.0653
     11  ND1       53.5920    8.0400   32.9870 N.2     2  HIS2       -0.2310
     12  CD2       54.6890    7.2160   31.2930 C.3     2  HIS2        0.1683
     13  CE1       54.8000    8.5750   33.0120 C.2     2  HIS2        0.1939
     14  NE2       55.4850    8.0960   31.9920 N.2     2  HIS2       -0.2440
     15  N         53.5000    4.8250   34.3700 N.am    3  MET3       -0.1963
     16  CA        54.7270    4.2520   34.9630 C.3     3  MET3        0.1736
     17  C         55.9650    4.9020   34.3990 C.2     3  MET3        0.2617
     18  O         56.6160    5.7060   35.0760 O.2     3  MET3       -0.2715
     19  CB        54.8170    2.7310   34.8130 C.3     3  MET3        0.0427
     20  CG        54.4370    1.9960   36.0750 C.3     3  MET3        0.0599
     21  SD        52.8740    2.6760   36.6630 S.3     3  MET3       -0.1393
     22  CE        51.7090    1.8120   35.5970 C.3     3  MET3        0.0692
     23  N         56.2490    4.5530   33.1430 N.am    4  SER4       -0.1950
     24  CA        57.4010    5.0030   32.3900 C.3     4  SER4        0.1924
     25  C         58.0960    3.7830   31.8470 C.2     4  SER4        0.2314
     26  O         57.6950    3.2110   30.8420 O.2     4  SER4       -0.2863
     27  CB        58.3650    5.8080   33.2580 C.3     4  SER4        0.2116
     28  OG        57.9000    7.1370   33.4130 O.3     4  SER4       -0.2180
@<TRIPOS>BOND
     1    26    25    2
     2    12    10    1
     3    12    14    1
     4     9    10    1
     5     9     6    1
     6    25    24    1
     7    10    11    2
     8    14    13    2
     9    24    23    1
    10    24    27    1
    11     8     7    2
    12     6     7    1
    13     6     5    1
    14    11    13    1
    15    23    17   am
    16     7    15   am
    17    27    28    1
    18     5     3   am
    19    15    16    1
    20    17    16    1
    21    17    18    2
    22     4     3    2
    23     3     2    1
    24    19    16    1
    25    19    20    1
    26     1     2    1
    27    22    21    1
    28    20    21    1
