@<TRIPOS>MOLECULE
2iwe_2IH_A_1.pdb
 16 17 0 0 0
SMALL
GASTEIGER

@<TRIPOS>ATOM
      1  C1        -9.0670   -7.5900   -1.6980 C.ar  1001  2IH1001     0.0980
      2  C5        -8.2160   -6.5260   -1.5910 C.ar  1001  2IH1001     0.1193
      3  N4        -8.2100   -6.1340   -0.3190 N.ar  1001  2IH1001    -0.2223
      4  C3        -9.0170   -6.9750    0.3530 C.ar  1001  2IH1001     0.1786
      5  N2        -9.5640   -7.8400   -0.4910 N.ar  1001  2IH1001    -0.3078
      6  C6       -10.5190   -8.8950   -0.1450 C.3   1001  2IH1001     0.1076
      7  C7       -11.8030   -8.7990   -0.9820 C.3   1001  2IH1001     0.0245
      8  C8       -12.8870   -9.6260   -0.3230 C.3   1001  2IH1001     0.0021
      9  C9       -13.4310  -10.7300   -1.2210 C.3   1001  2IH1001     0.0021
     10  C10      -14.6270  -11.3580   -0.5100 C.3   1001  2IH1001     0.0245
     11  C11      -15.0080  -12.7330   -1.0680 C.3   1001  2IH1001     0.1076
     12  N12      -15.8910  -13.4570   -0.1290 N.ar  1001  2IH1001    -0.3078
     13  C16      -16.7850  -14.4140   -0.4550 C.ar  1001  2IH1001     0.1786
     14  C13      -15.9460  -13.2810    1.1980 C.ar  1001  2IH1001     0.0980
     15  C14      -16.8950  -14.1380    1.7120 C.ar  1001  2IH1001     0.1193
     16  N15      -17.3960  -14.8390    0.6780 N.ar  1001  2IH1001    -0.2223
@<TRIPOS>BOND
     1     1     2   ar
     2     1     5   ar
     3     2     3   ar
     4     9    10    1
     5     9     8    1
     6    11    10    1
     7    11    12    1
     8     7     8    1
     9     7     6    1
    10     5     6    1
    11     5     4   ar
    12    13    12   ar
    13    13    16   ar
    14     3     4   ar
    15    12    14   ar
    16    16    15   ar
    17    14    15   ar
