@<TRIPOS>MOLECULE
2iwg_GAL_A_1.pdb
 11 11 0 0 0
SMALL
GASTEIGER

@<TRIPOS>ATOM
      1  C1       -41.4580  -37.5840   -8.2650 C.3   1450  GAL1450     0.1777
      2  C2       -40.2690  -36.9090   -9.0390 C.3   1450  GAL1450     0.2141
      3  C3       -39.3190  -36.2630   -8.0320 C.3   1450  GAL1450     0.2173
      4  C4       -40.0020  -35.4910   -6.9040 C.3   1450  GAL1450     0.2142
      5  C5       -41.3160  -36.1420   -6.4360 C.3   1450  GAL1450     0.1810
      6  C6       -42.0780  -35.2430   -5.4330 C.3   1450  GAL1450     0.2141
      7  O2       -39.4540  -37.6880   -9.9290 O.3   1450  GAL1450    -0.2176
      8  O3       -38.4500  -35.4150   -8.7620 O.3   1450  GAL1450    -0.2175
      9  O4       -40.2660  -34.1550   -7.2880 O.3   1450  GAL1450    -0.2176
     10  O5       -42.1540  -36.6160   -7.4960 O.3   1450  GAL1450    -0.3481
     11  O6       -42.5550  -36.1720   -4.4650 O.3   1450  GAL1450    -0.2176
@<TRIPOS>BOND
     1     7     2    1
     2     2     1    1
     3     2     3    1
     4     8     3    1
     5     1    10    1
     6     3     4    1
     7    10     5    1
     8     9     4    1
     9     4     5    1
    10     5     6    1
    11     6    11    1
