@<TRIPOS>MOLECULE
2iwh_ANP_A_1.pdb
 31 33 0 0 0
SMALL
GASTEIGER

@<TRIPOS>ATOM
      1  PG       200.6170 -146.9050  148.5430 P.3   2973  ANP2973     0.4884
      2  O1G      199.5030 -146.0730  149.3640 O.3   2973  ANP2973    -0.1240
      3  O2G      200.3040 -146.7680  146.9680 O.2   2973  ANP2973    -0.2331
      4  O3G      200.6550 -148.3220  148.9720 O.3   2973  ANP2973    -0.1240
      5  PB       203.3850 -146.8410  148.4250 P.3   2973  ANP2973     0.4669
      6  O1B      202.9910 -148.2500  147.7460 O.2   2973  ANP2973    -0.2351
      7  O2B      204.2230 -147.0120  149.6340 O.3   2973  ANP2973    -0.1253
      8  N3B      201.9980 -146.1040  148.8390 N.3   2973  ANP2973    -0.0163
      9  PA       203.8240 -146.1170  145.7540 P.3   2973  ANP2973     0.2220
     10  O1A      202.2580 -145.7920  145.5570 O.3   2973  ANP2973    -0.4370
     11  O2A      204.1700 -147.4700  145.2610 O.2   2973  ANP2973    -0.5170
     12  O3A      204.1220 -145.9230  147.3230 O.3   2973  ANP2973    -0.2360
     13  O5'      204.6380 -144.9290  145.0350 O.3   2973  ANP2973    -0.3111
     14  C5'      204.3250 -143.5650  145.3260 C.3   2973  ANP2973     0.1813
     15  C4'      205.0950 -142.6440  144.3800 C.3   2973  ANP2973     0.1821
     16  O4'      204.3230 -142.4320  143.1830 O.3   2973  ANP2973    -0.3135
     17  C3'      205.1480 -141.2770  145.0620 C.3   2973  ANP2973     0.2184
     18  O3'      206.3370 -140.6130  144.6280 O.3   2973  ANP2973    -0.2174
     19  C2'      203.9080 -140.5620  144.5290 C.3   2973  ANP2973     0.2570
     20  O2'      204.1580 -139.1550  144.5760 O.3   2973  ANP2973    -0.2130
     21  C1'      204.0200 -141.0280  143.0790 C.3   2973  ANP2973     0.3186
     22  N9       202.7290 -140.7890  142.3930 N.pl3 2973  ANP2973    -0.1439
     23  C8       201.5420 -141.1870  142.8400 C.3   2973  ANP2973     0.3377
     24  N7       200.6030 -140.8350  141.9630 N.2   2973  ANP2973    -0.2095
     25  C5       201.1880 -140.1980  140.9520 C.2   2973  ANP2973     0.2526
     26  C6       200.7320 -139.6130  139.7750 C.2   2973  ANP2973     0.4393
     27  N6       199.4400 -139.6070  139.4560 N.pl3 2973  ANP2973     0.2180
     28  N1       201.6240 -139.0480  138.9450 N.2   2973  ANP2973     0.0021
     29  C2       202.9120 -139.0490  139.2320 C.3   2973  ANP2973     0.5254
     30  N3       203.3740 -139.5940  140.3440 N.2   2973  ANP2973    -0.0055
     31  C4       202.5480 -140.1730  141.2270 C.2   2973  ANP2973     0.3518
@<TRIPOS>BOND
     1    28    29    1
     2    28    26    2
     3    29    30    1
     4    27    26    1
     5    26    25    1
     6    30    31    2
     7    25    31    1
     8    25    24    2
     9    31    22    1
    10    24    23    1
    11    22    23    1
    12    22    21    1
    13    21    16    1
    14    21    19    1
    15    16    15    1
    16    15    17    1
    17    15    14    1
    18    19    20    1
    19    19    17    1
    20    18    17    1
    21    13    14    1
    22    13     9    1
    23    11     9    2
    24    10     9    1
    25     9    12    1
    26     3     1    2
    27    12     5    1
    28     6     5    2
    29     5     8    1
    30     5     7    1
    31     1     8    1
    32     1     4    1
    33     1     2    1
