@<TRIPOS>MOLECULE
2iwi_HB1_A_1.pdb
 30 36 0 0 0
SMALL
GASTEIGER

@<TRIPOS>ATOM
      1  O3        -8.2500   56.3800   -1.4890 O.3   1289  HB11289     0.0000
      2  C4        -7.4710   57.1690   -1.2030 C.3   1289  HB11289     0.0000
      3 RU1        -6.1200   58.3850   -0.8890 Ru    1289  HB11289     0.0000
      4  C5        -4.5960   56.9510   -1.3970 C.3   1289  HB11289     0.0000
      5  C6        -4.5520   57.9880   -2.3520 C.2   1289  HB11289     0.0000
      6  C7        -4.1900   59.1720   -1.6620 C.2   1289  HB11289     0.0000
      7  C8        -4.0260   58.8740   -0.2910 C.2   1289  HB11289     0.0000
      8  C9        -4.2910   57.4760   -0.1350 C.2   1289  HB11289     0.0000
      9  N3        -6.9750   59.1530    0.8860 N.pl3 1289  HB11289     0.0000
     10  C2        -6.8020   58.7650    2.1550 C.2   1289  HB11289     0.0000
     11  N1        -7.2730   59.9360   -1.6570 N.ar  1289  HB11289     0.0000
     12  C11       -7.6180   60.5500   -2.8270 C.ar  1289  HB11289     0.0000
     13  C16       -8.5090   61.6390   -2.5690 C.ar  1289  HB11289     0.0000
     14  C15       -8.9910   62.4100   -3.6300 C.3   1289  HB11289     0.0000
     15  C14       -8.5780   62.0750   -4.9110 C.2   1289  HB11289     0.0000
     16  C13       -7.6940   60.9980   -5.1450 C.2   1289  HB11289     0.0000
     17  C12       -7.1980   60.2200   -4.1130 C.2   1289  HB11289     0.0000
     18  C17       -8.6950   61.6530   -1.1490 C.ar  1289  HB11289     0.0000
     19  C10       -7.9090   60.5840   -0.6910 C.ar  1289  HB11289     0.0000
     20  C18       -9.3680   62.3450   -0.1470 C.ar  1289  HB11289     0.0000
     21  C19      -10.2850   63.5190   -0.2280 C.1   1289  HB11289     0.0000
     22  O1       -10.6380   64.1150   -1.2080 O.2   1289  HB11289     0.0000
     23  C21       -9.2550   61.9990    1.1960 C.ar  1289  HB11289     0.0000
     24  C20      -10.0690   62.9120    1.9880 C.1   1289  HB11289     0.0000
     25  N2       -10.6590   63.7960    1.0850 N.2   1289  HB11289     0.0000
     26  O2       -10.2310   62.9360    3.1880 O.2   1289  HB11289     0.0000
     27  C22       -8.4610   60.9230    1.6560 C.ar  1289  HB11289     0.0000
     28  C3        -7.7810   60.2160    0.6530 C.ar  1289  HB11289     0.0000
     29  C23       -8.2810   60.4920    2.9830 C.2   1289  HB11289     0.0000
     30  C1        -7.4530   59.4160    3.2120 C.2   1289  HB11289     0.0000
@<TRIPOS>BOND
     1    16    15    2
     2    16    17    1
     3    15    14    1
     4    17    12    2
     5    14    13    1
     6    12    13   ar
     7    12    11   ar
     8    13    18   ar
     9     5     6    2
    10     5     4    1
    11     6     7    1
    12    11     3    1
    13    11    19   ar
    14     1     2    1
    15     4     3    1
    16     4     8    1
    17    22    21    2
    18     2     3    1
    19    18    19   ar
    20    18    20   ar
    21     3     9    1
    22    19    28   ar
    23     7     8    2
    24    21    20    1
    25    21    25    2
    26    20    23   ar
    27    28     9    1
    28    28    27   ar
    29     9    10    1
    30    25    24    2
    31    23    27   ar
    32    23    24    1
    33    27    29    2
    34    24    26    2
    35    10    30    2
    36    29    30    1
