@<TRIPOS>MOLECULE
2iws_NP4_A_1.pdb
 22 23 0 0 0
SMALL
GASTEIGER

@<TRIPOS>ATOM
      1  C1        18.4650  -34.9290  -60.3030 C.2   1215  NP41215     0.3441
      2  C2        18.4250  -33.9530  -59.1610 C.ar  1215  NP41215     0.1119
      3  O10       19.7270  -35.1970  -60.9690 O.3   1215  NP41215    -0.4450
      4  C3        17.4640  -32.9540  -59.1340 C.ar  1215  NP41215     0.2048
      5  C4        17.4290  -32.0480  -58.0840 C.ar  1215  NP41215     0.0851
      6  C5        18.3790  -32.1530  -57.0610 C.ar  1215  NP41215     0.2090
      7  C6        19.3380  -33.1400  -57.0890 C.ar  1215  NP41215     0.0933
      8  C7        19.3750  -34.0400  -58.1350 C.ar  1215  NP41215     0.0083
      9  C8        20.4150  -35.1380  -58.1850 C.3   1215  NP41215     0.0920
     10  C9        21.7050  -34.7130  -58.8540 C.2   1215  NP41215     0.1551
     11  C10       21.9060  -33.2980  -59.3390 C.3   1215  NP41215     0.0652
     12  C11       23.0010  -33.2730  -60.4030 C.3   1215  NP41215     0.0124
     13  C12       22.4170  -33.2520  -61.8100 C.3   1215  NP41215     0.0261
     14  C13       22.7320  -34.5640  -62.4860 C.2   1215  NP41215    -0.0306
     15  C14       21.7910  -35.2420  -63.1410 C.2   1215  NP41215    -0.0268
     16  C15       20.3800  -34.7180  -63.2330 C.3   1215  NP41215     0.0731
     17  C16       19.4780  -35.5460  -62.3300 C.3   1215  NP41215     0.2134
     18  O1        17.4560  -35.5070  -60.6830 O.2   1215  NP41215    -0.2448
     19  O3        16.5410  -32.8560  -60.1320 O.3   1215  NP41215    -0.2862
     20  O4        18.3460  -31.2700  -56.0350 O.3   1215  NP41215    -0.2856
     21 CL1        20.4000  -33.2140  -55.8910 Cl    1215  NP41215    -0.0792
     22  O5        22.6010  -35.5290  -59.0130 O.2   1215  NP41215    -0.2957
@<TRIPOS>BOND
     1    16    15    1
     2    16    17    1
     3    15    14    2
     4    14    13    1
     5    17     3    1
     6    13    12    1
     7     3     1    1
     8    18     1    2
     9    12    11    1
    10     1     2    1
    11    19     4    1
    12    11    10    1
    13     2     4   ar
    14     2     8   ar
    15     4     5   ar
    16    22    10    2
    17    10     9    1
    18     9     8    1
    19     8     7   ar
    20     5     6   ar
    21     7     6   ar
    22     7    21    1
    23     6    20    1
