@<TRIPOS>MOLECULE
2iwu_NP5_A_1.pdb
 22 23 0 0 0
SMALL
GASTEIGER

@<TRIPOS>ATOM
      1  C1        18.5050  -35.2070   -5.6720 C.2   1215  NP51215     0.3441
      2  O10       19.7720  -35.6510   -6.2310 O.3   1215  NP51215    -0.4450
      3  C2        18.5160  -34.2160   -4.5470 C.ar  1215  NP51215     0.1119
      4  C3        17.6240  -33.1570   -4.5310 C.ar  1215  NP51215     0.2048
      5  C4        17.6450  -32.2430   -3.4850 C.ar  1215  NP51215     0.0851
      6  C5        18.5660  -32.3810   -2.4560 C.ar  1215  NP51215     0.2090
      7  C6        19.4600  -33.4420   -2.4810 C.ar  1215  NP51215     0.0933
      8  C7        19.4410  -34.3540   -3.5240 C.ar  1215  NP51215     0.0083
      9  C8        20.4270  -35.4990   -3.5290 C.3   1215  NP51215     0.0920
     10  C9        21.7940  -35.0650   -4.0150 C.2   1215  NP51215     0.1551
     11  C10       22.2030  -33.6060   -4.0360 C.3   1215  NP51215     0.0652
     12  C11       21.8840  -32.9170   -5.3650 C.3   1215  NP51215     0.0124
     13  C12       22.8080  -33.3430   -6.5040 C.3   1215  NP51215     0.0261
     14  C13       21.9820  -34.1990   -7.4310 C.2   1215  NP51215    -0.0306
     15  C14       21.8780  -35.5020   -7.1880 C.2   1215  NP51215    -0.0268
     16  C15       21.0330  -36.3710   -8.0850 C.3   1215  NP51215     0.0731
     17  C16       19.6300  -36.3030   -7.4940 C.3   1215  NP51215     0.2134
     18  O1        17.4590  -35.6570   -6.1140 O.2   1215  NP51215    -0.2448
     19  O3        16.7110  -33.0120   -5.5390 O.3   1215  NP51215    -0.2862
     20  O4        18.5790  -31.4770   -1.4380 O.3   1215  NP51215    -0.2856
     21 CL1        20.5350  -33.6270   -1.3060 Cl    1215  NP51215    -0.0792
     22  O5        22.5860  -35.9180   -4.3840 O.2   1215  NP51215    -0.2957
@<TRIPOS>BOND
     1    16    17    1
     2    16    15    1
     3    17     2    1
     4    14    15    2
     5    14    13    1
     6    13    12    1
     7     2     1    1
     8    18     1    2
     9     1     3    1
    10    19     4    1
    11    12    11    1
    12     3     4   ar
    13     3     8   ar
    14     4     5   ar
    15    22    10    2
    16    11    10    1
    17    10     9    1
    18     9     8    1
    19     8     7   ar
    20     5     6   ar
    21     7     6   ar
    22     7    21    1
    23     6    20    1
