@<TRIPOS>MOLECULE
2iww_BGC_A_1.pdb
 12 12 0 0 0
SMALL
GASTEIGER

@<TRIPOS>ATOM
      1  C2       -34.8680  -17.4020   35.2070 C.3   1281  BGC1281     0.2434
      2  C3       -36.2540  -17.0190   34.6930 C.3   1281  BGC1281     0.2199
      3  C4       -37.2940  -17.8140   35.4780 C.3   1281  BGC1281     0.2144
      4  C5       -37.0890  -17.6160   36.9840 C.3   1281  BGC1281     0.1836
      5  C6       -38.0320  -18.4970   37.7910 C.3   1281  BGC1281     0.2142
      6  C1       -34.7820  -17.1060   36.7010 C.3   1281  BGC1281     0.3024
      7  O1       -33.4680  -17.3790   37.1650 O.3   1281  BGC1281    -0.1869
      8  O2       -33.8500  -16.7050   34.5260 O.3   1281  BGC1281    -0.2148
      9  O3       -36.3870  -17.2770   33.3080 O.3   1281  BGC1281    -0.2174
     10  O4       -38.6000  -17.4530   35.0700 O.3   1281  BGC1281    -0.2176
     11  O5       -35.7530  -17.8990   37.3670 O.3   1281  BGC1281    -0.3236
     12  O6       -39.3510  -18.1720   37.4370 O.3   1281  BGC1281    -0.2176
@<TRIPOS>BOND
     1     9     2    1
     2     8     1    1
     3     2     1    1
     4     2     3    1
     5    10     3    1
     6     1     6    1
     7     3     4    1
     8     6     7    1
     9     6    11    1
    10     4    11    1
    11     4     5    1
    12    12     5    1
