@<TRIPOS>MOLECULE
2iwx_M1S_A_1.pdb
 24 25 0 0 0
SMALL
GASTEIGER

@<TRIPOS>ATOM
      1  C1        55.2130   75.9430   -5.7160 C.2   1215  M1S1215     0.3441
      2  C2        55.1850   76.8410   -4.5140 C.ar  1215  M1S1215     0.1119
      3  C3        54.3080   77.9400   -4.5250 C.ar  1215  M1S1215     0.2048
      4  C4        54.2500   78.8390   -3.4690 C.ar  1215  M1S1215     0.0851
      5  C5        55.1110   78.6130   -2.3920 C.ar  1215  M1S1215     0.2090
      6  C6        55.9470   77.5310   -2.4050 C.ar  1215  M1S1215     0.0933
      7  C7        56.0390   76.6130   -3.4390 C.ar  1215  M1S1215     0.0083
      8  C8        57.0120   75.4290   -3.3490 C.3   1215  M1S1215     0.0920
      9  C9        58.3680   75.6650   -3.9470 C.2   1215  M1S1215     0.1551
     10  C10       58.8980   77.0470   -4.2040 C.3   1215  M1S1215     0.0649
     11  C11       60.3080   76.9840   -4.8030 C.3   1215  M1S1215     0.0078
     12  C12       60.8100   78.3620   -5.2040 C.3   1215  M1S1215     0.0008
     13  C13       59.9570   79.0080   -6.2950 C.3   1215  M1S1215     0.0047
     14  C14       60.0570   78.2250   -7.6030 C.3   1215  M1S1215     0.0257
     15  C15       58.7230   77.5900   -7.9270 C.2   1215  M1S1215    -0.0306
     16  C16       58.6180   76.2670   -8.0280 C.2   1215  M1S1215    -0.0268
     17  C17       57.2910   75.6270   -8.3670 C.3   1215  M1S1215     0.0731
     18  C18       56.6900   74.7670   -7.2600 C.3   1215  M1S1215     0.2134
     19  O2        54.2500   75.6110   -6.3730 O.2   1215  M1S1215    -0.2448
     20  O3        53.4440   78.1320   -5.5890 O.3   1215  M1S1215    -0.2862
     21  O4        55.1350   79.4940   -1.3390 O.3   1215  M1S1215    -0.2856
     22 CL1        56.9420   77.2720   -0.9640 Cl    1215  M1S1215    -0.0792
     23  O5        59.0370   74.6520   -4.1670 O.2   1215  M1S1215    -0.2957
     24  O1        56.5320   75.5970   -6.0790 O.3   1215  M1S1215    -0.4450
@<TRIPOS>BOND
     1    17    16    1
     2    17    18    1
     3    16    15    2
     4    15    14    1
     5    14    13    1
     6    18    24    1
     7    19     1    2
     8    13    12    1
     9    24     1    1
    10     1     2    1
    11    20     3    1
    12    12    11    1
    13    11    10    1
    14     3     2   ar
    15     3     4   ar
    16     2     7   ar
    17    10     9    1
    18    23     9    2
    19     9     8    1
    20     4     5   ar
    21     7     8    1
    22     7     6   ar
    23     6     5   ar
    24     6    22    1
    25     5    21    1
