@<TRIPOS>MOLECULE
2ix0_C5P_A_1.pdb
 21 22 0 0 0
SMALL
GASTEIGER

@<TRIPOS>ATOM
      1  O3P       16.3870    3.5110   29.9740 O.3   1645  C5P1645    -0.1145
      2  P         17.2780    4.3740   29.1340 P.3   1645  C5P1645     0.5327
      3  O1P       18.0310    3.3590   28.3580 O.2   1645  C5P1645    -0.2224
      4  O2P       18.0020    5.5540   29.7610 O.3   1645  C5P1645    -0.1145
      5  O5'       16.3930    5.0770   28.0420 O.3   1645  C5P1645    -0.2675
      6  C5'       16.9870    5.2120   26.7690 C.3   1645  C5P1645     0.1859
      7  C4'       16.8960    6.6560   26.4360 C.3   1645  C5P1645     0.1801
      8  O4'       16.9700    6.7930   25.0280 O.3   1645  C5P1645    -0.3320
      9  C3'       15.5650    7.3160   26.7330 C.3   1645  C5P1645     0.2158
     10  O3'       15.2280    7.4530   28.1320 O.3   1645  C5P1645    -0.2175
     11  C2'       15.8160    8.6130   25.9930 C.3   1645  C5P1645     0.2319
     12  O2'       16.5230    9.5400   26.7960 O.3   1645  C5P1645    -0.2157
     13  C1'       16.8030    8.2030   24.9340 C.3   1645  C5P1645     0.2400
     14  N1        16.4450    8.5980   23.5860 N.am  1645  C5P1645    -0.1778
     15  C2        16.8250    9.9120   23.2510 C.1   1645  C5P1645     0.2756
     16  N3        16.3030   10.5060   22.1480 N.2   1645  C5P1645    -0.3024
     17  C4        15.3180    9.8990   21.4320 C.2   1645  C5P1645     0.2346
     18  C5        14.8520    8.6470   21.8050 C.2   1645  C5P1645     0.0687
     19  C6        15.3630    8.0180   22.9270 C.2   1645  C5P1645     0.0836
     20  O2        17.7590   10.4500   23.9110 O.2   1645  C5P1645    -0.1925
     21  N4        14.7540   10.4920   20.3400 N.pl3 1645  C5P1645    -0.0921
@<TRIPOS>BOND
     1    21    17    1
     2    17    18    1
     3    17    16    2
     4    18    19    2
     5    16    15    2
     6    19    14    1
     7    15    14   am
     8    15    20    2
     9    14    13    1
    10    13     8    1
    11    13    11    1
    12     8     7    1
    13    11     9    1
    14    11    12    1
    15     7     9    1
    16     7     6    1
    17     9    10    1
    18     6     5    1
    19     5     2    1
    20     3     2    2
    21     2     4    1
    22     2     1    1
