@<TRIPOS>MOLECULE
2ix5_CAA_A_1.pdb
 48 50 0 0 0
SMALL
GASTEIGER

@<TRIPOS>ATOM
      1  N1A       25.5550   -3.1790   15.9080 N.2   1432  CAA1432     0.0021
      2  C2A       26.4500   -2.2510   15.5800 C.3   1432  CAA1432     0.5254
      3  N3A       27.4620   -1.9480   16.3870 N.2   1432  CAA1432    -0.0055
      4  C4A       27.6140   -2.5770   17.5670 C.2   1432  CAA1432     0.3518
      5  C5A       26.6970   -3.5520   17.9370 C.2   1432  CAA1432     0.2526
      6  C6A       25.6470   -3.8470   17.0740 C.2   1432  CAA1432     0.4393
      7  N6A       24.7510   -4.7780   17.4030 N.pl3 1432  CAA1432     0.2180
      8  N7A       27.0580   -4.0200   19.1270 N.2   1432  CAA1432    -0.2095
      9  C8A       28.1600   -3.3680   19.4990 C.3   1432  CAA1432     0.3377
     10  N9A       28.5080   -2.4880   18.5530 N.pl3 1432  CAA1432    -0.1439
     11  C1B       29.6910   -1.5790   18.6310 C.3   1432  CAA1432     0.3185
     12  C2B       30.9230   -2.1510   17.9400 C.3   1432  CAA1432     0.2543
     13  O2B       31.5680   -3.1100   18.7830 O.3   1432  CAA1432    -0.2131
     14  C3B       31.7870   -0.8950   17.7540 C.3   1432  CAA1432     0.1928
     15  O3B       32.6580   -0.6660   18.8770 O.3   1432  CAA1432    -0.2673
     16  P3B       34.2420   -1.0680   18.8240 P.3   1432  CAA1432     0.5327
     17  O7A       34.9660   -0.2650   20.0260 O.3   1432  CAA1432    -0.1145
     18  O8A       34.3210   -2.6170   19.2890 O.3   1432  CAA1432    -0.1145
     19  O9A       34.8680   -0.8250   17.5000 O.2   1432  CAA1432    -0.2224
     20  C4B       30.7520    0.2360   17.7020 C.3   1432  CAA1432     0.1795
     21  O4B       29.4510   -0.3810   17.8830 O.3   1432  CAA1432    -0.3136
     22  C5B       30.7830    0.9560   16.3440 C.3   1432  CAA1432     0.1812
     23  O5B       30.2080    0.1550   15.2980 O.3   1432  CAA1432    -0.3112
     24  P1A       30.5850    0.4730   13.7670 P.3   1432  CAA1432     0.2189
     25  O1A       29.7180    1.6000   13.3650 O.2   1432  CAA1432    -0.5170
     26  O2A       32.0590    0.6200   13.7050 O.3   1432  CAA1432    -0.4371
     27  O3A       30.1310   -0.8300   12.8940 O.3   1432  CAA1432    -0.2703
     28  P2A       30.0430   -2.3610   13.4330 P.3   1432  CAA1432     0.2188
     29  O4A       30.3710   -2.3820   14.8670 O.3   1432  CAA1432    -0.4371
     30  O5A       28.7570   -2.9240   12.9680 O.2   1432  CAA1432    -0.5170
     31  O6A       31.2320   -3.1290   12.6660 O.3   1432  CAA1432    -0.3138
     32  CBP       31.3860   -4.0440   10.3350 C.3   1432  CAA1432     0.0645
     33  CCP       31.5390   -2.8490   11.3000 C.3   1432  CAA1432     0.1519
     34  CDP       32.6640   -4.8860   10.3820 C.3   1432  CAA1432     0.0056
     35  CEP       30.1930   -4.9290   10.7410 C.3   1432  CAA1432     0.0056
     36  CAP       31.1880   -3.3950    8.9440 C.3   1432  CAA1432     0.2312
     37  OAP       32.4140   -2.7880    8.4990 O.3   1432  CAA1432    -0.2131
     38  C9P       30.6450   -4.2830    7.8080 C.2   1432  CAA1432     0.2719
     39  O9P       29.5160   -4.7780    7.8540 O.2   1432  CAA1432    -0.2706
     40  N8P       31.4830   -4.4030    6.7750 N.am  1432  CAA1432    -0.2028
     41  C7P       31.1640   -5.1510    5.5500 C.3   1432  CAA1432     0.1248
     42  C6P       30.5240   -4.1110    4.6160 C.3   1432  CAA1432     0.1102
     43  C5P       30.2850   -4.6210    3.2000 C.2   1432  CAA1432     0.2432
     44  O5P       29.3860   -5.4240    2.9650 O.2   1432  CAA1432    -0.2733
     45  N4P       31.0990   -4.1070    2.2820 N.am  1432  CAA1432    -0.2044
     46  C3P       31.0430   -4.4760    0.8580 C.3   1432  CAA1432     0.1276
     47  C2P       29.7990   -3.9440    0.1430 C.3   1432  CAA1432     0.0920
     48  S1P       29.8150   -4.3860   -1.6340 S.3   1432  CAA1432    -0.0802
@<TRIPOS>BOND
     1    48    47    1
     2    47    46    1
     3    46    45    1
     4    45    43   am
     5    44    43    2
     6    43    42    1
     7    42    41    1
     8    41    40    1
     9    40    38   am
    10    38    39    2
    11    38    36    1
    12    37    36    1
    13    36    32    1
    14    32    34    1
    15    32    35    1
    16    32    33    1
    17    33    31    1
    18    31    28    1
    19    27    28    1
    20    27    24    1
    21    30    28    2
    22    25    24    2
    23    28    29    1
    24    26    24    1
    25    24    23    1
    26    23    22    1
    27     2     1    1
    28     2     3    1
    29     1     6    2
    30    22    20    1
    31     3     4    2
    32     6     7    1
    33     6     5    1
    34    19    16    2
    35     4     5    1
    36     4    10    1
    37    20    14    1
    38    20    21    1
    39    14    12    1
    40    14    15    1
    41    21    11    1
    42     5     8    2
    43    12    11    1
    44    12    13    1
    45    10    11    1
    46    10     9    1
    47    16    15    1
    48    16    18    1
    49    16    17    1
    50     8     9    1
