@<TRIPOS>MOLECULE
2ixa_NAD_A_1.pdb
 44 48 0 0 0
SMALL
GASTEIGER

@<TRIPOS>ATOM
      1  PA       -17.5460   39.7560    0.8830 P.3   1445  NAD1445     0.2189
      2  O1A      -17.4090   38.3050    1.3450 O.3   1445  NAD1445    -0.4371
      3  O2A      -18.9350   40.2270    0.7660 O.2   1445  NAD1445    -0.5170
      4  O5B      -16.8340   39.9220   -0.5480 O.3   1445  NAD1445    -0.3112
      5  C5B      -15.7140   39.1440   -0.9160 C.3   1445  NAD1445     0.1813
      6  C4B      -15.8770   38.7630   -2.3780 C.3   1445  NAD1445     0.1821
      7  O4B      -14.6240   38.3490   -2.8870 O.3   1445  NAD1445    -0.3135
      8  C3B      -16.8570   37.6180   -2.6070 C.3   1445  NAD1445     0.2184
      9  O3B      -17.8090   37.9810   -3.5800 O.3   1445  NAD1445    -0.2174
     10  C2B      -15.9740   36.4760   -3.0820 C.3   1445  NAD1445     0.2570
     11  O2B      -16.6320   35.5860   -3.9630 O.3   1445  NAD1445    -0.2130
     12  C1B      -14.8380   37.2500   -3.7360 C.3   1445  NAD1445     0.3186
     13  N9A      -13.5940   36.4960   -3.9250 N.pl3 1445  NAD1445    -0.1439
     14  C8A      -12.9860   35.6360   -3.0530 C.3   1445  NAD1445     0.3377
     15  N7A      -11.8630   35.1660   -3.6360 N.2   1445  NAD1445    -0.2095
     16  C5A      -11.7520   35.7180   -4.8630 C.2   1445  NAD1445     0.2526
     17  C6A      -10.8040   35.5760   -5.8670 C.2   1445  NAD1445     0.4393
     18  N6A       -9.7620   34.7740   -5.6820 N.pl3 1445  NAD1445     0.2180
     19  N1A      -10.9570   36.2820   -7.0400 N.2   1445  NAD1445     0.0021
     20  C2A      -12.0430   37.1230   -7.2160 C.3   1445  NAD1445     0.5254
     21  N3A      -12.9830   37.2610   -6.2160 N.2   1445  NAD1445    -0.0055
     22  C4A      -12.8340   36.5650   -5.0580 C.2   1445  NAD1445     0.3518
     23  O3       -16.6620   40.6990    1.8510 O.3   1445  NAD1445    -0.2703
     24  PN       -16.6160   42.3040    1.7840 P.3   1445  NAD1445     0.2189
     25  O1N      -17.4320   42.8180    2.9040 O.3   1445  NAD1445    -0.4371
     26  O2N      -16.9690   42.7820    0.4390 O.2   1445  NAD1445    -0.5170
     27  O5D      -15.0870   42.6310    2.1510 O.3   1445  NAD1445    -0.3112
     28  C5D      -14.0270   42.5670    1.2170 C.3   1445  NAD1445     0.1813
     29  C4D      -12.9330   43.5790    1.5340 C.3   1445  NAD1445     0.1799
     30  O4D      -13.5100   44.8520    1.7190 O.3   1445  NAD1445    -0.3327
     31  C3D      -12.1840   43.2590    2.8120 C.3   1445  NAD1445     0.2158
     32  O3D      -10.8290   43.6240    2.6930 O.3   1445  NAD1445    -0.2175
     33  C2D      -12.8890   44.1170    3.8440 C.3   1445  NAD1445     0.2309
     34  O2D      -12.1080   44.3940    4.9760 O.3   1445  NAD1445    -0.2158
     35  C1D      -13.1950   45.3540    3.0060 C.3   1445  NAD1445     0.2263
     36  N1N      -14.2860   46.2130    3.5220 N.pl3 1445  NAD1445    -0.2787
     37  C2N      -14.0640   47.5560    3.5800 C.3   1445  NAD1445     0.1244
     38  C3N      -15.0630   48.4180    4.0410 C.2   1445  NAD1445     0.0544
     39  C7N      -14.8210   49.8970    4.1000 C.2   1445  NAD1445     0.2818
     40  O7N      -15.8280   50.7520    4.5840 O.2   1445  NAD1445    -0.2670
     41  N7N      -13.6560   50.3950    3.6950 N.am  1445  NAD1445    -0.0839
     42  C4N      -16.2810   47.8900    4.4650 C.2   1445  NAD1445     0.0033
     43  C5N      -16.4880   46.5180    4.4110 C.2   1445  NAD1445     0.0157
     44  C6N      -15.4820   45.6890    3.9370 C.2   1445  NAD1445     0.0633
@<TRIPOS>BOND
     1    20    19    1
     2    20    21    1
     3    19    17    2
     4    21    22    2
     5    17    18    1
     6    17    16    1
     7    22    16    1
     8    22    13    1
     9    16    15    2
    10    11    10    1
    11    13    12    1
    12    13    14    1
    13    12    10    1
    14    12     7    1
    15    15    14    1
    16     9     8    1
    17    10     8    1
    18     7     6    1
    19     8     6    1
    20     6     5    1
    21     5     4    1
    22     4     1    1
    23    26    24    2
    24     3     1    2
    25     1     2    1
    26     1    23    1
    27    28    29    1
    28    28    27    1
    29    29    30    1
    30    29    31    1
    31    30    35    1
    32    24    23    1
    33    24    27    1
    34    24    25    1
    35    32    31    1
    36    31    33    1
    37    35    36    1
    38    35    33    1
    39    36    37    1
    40    36    44    1
    41    37    38    1
    42    41    39   am
    43    33    34    1
    44    44    43    2
    45    38    39    1
    46    38    42    2
    47    39    40    2
    48    43    42    1
