@<TRIPOS>MOLECULE
2ixb_A2G_A_1.pdb
 15 15 0 0 0
SMALL
GASTEIGER

@<TRIPOS>ATOM
      1  C1       -18.3620   49.0540    8.2180 C.3   1446  A2G1446     0.2917
      2  C2       -16.8410   49.3810    8.0890 C.3   1446  A2G1446     0.1871
      3  C3       -16.1380   48.4050    7.1110 C.3   1446  A2G1446     0.2095
      4  C4       -16.4510   46.9270    7.4360 C.3   1446  A2G1446     0.2136
      5  C5       -17.9890   46.7380    7.5200 C.3   1446  A2G1446     0.1835
      6  C6       -18.4280   45.3290    7.9620 C.3   1446  A2G1446     0.2142
      7  C7       -16.8730   51.8510    8.5170 C.2   1446  A2G1446     0.2421
      8  C8       -16.4700   53.2400    8.0250 C.3   1446  A2G1446     0.0964
      9  O        -18.5750   47.6630    8.4330 O.3   1446  A2G1446    -0.3242
     10  O1       -19.0800   49.4600    7.0530 O.3   1446  A2G1446    -0.1879
     11  O3       -14.7280   48.5640    7.1080 O.3   1446  A2G1446    -0.2183
     12  O4       -15.8410   46.5670    8.6590 O.3   1446  A2G1446    -0.2176
     13  O6       -19.8080   45.1000    7.6860 O.3   1446  A2G1446    -0.2176
     14  O7       -17.1140   51.6790    9.6990 O.2   1446  A2G1446    -0.2733
     15  N2       -16.6240   50.7740    7.6930 N.am  1446  A2G1446    -0.1991
@<TRIPOS>BOND
     1    10     1    1
     2    11     3    1
     3     3     4    1
     4     3     2    1
     5     4     5    1
     6     4    12    1
     7     5     6    1
     8     5     9    1
     9    13     6    1
    10    15     2    1
    11    15     7   am
    12     8     7    1
    13     2     1    1
    14     1     9    1
    15     7    14    2
