@<TRIPOS>MOLECULE
2ixb_NAD_A_1.pdb
 44 48 0 0 0
SMALL
GASTEIGER

@<TRIPOS>ATOM
      1  PA       -17.7420   40.0840    0.8650 P.3   1445  NAD1445     0.2189
      2  O1A      -17.6340   38.6440    1.3780 O.3   1445  NAD1445    -0.4371
      3  O2A      -19.1400   40.5620    0.7870 O.2   1445  NAD1445    -0.5170
      4  O5B      -17.0990   40.2120   -0.5990 O.3   1445  NAD1445    -0.3112
      5  C5B      -15.9310   39.5180   -0.9790 C.3   1445  NAD1445     0.1813
      6  C4B      -16.0750   39.1080   -2.4400 C.3   1445  NAD1445     0.1821
      7  O4B      -14.8200   38.6610   -2.9040 O.3   1445  NAD1445    -0.3135
      8  C3B      -17.0550   37.9570   -2.6770 C.3   1445  NAD1445     0.2184
      9  O3B      -18.0060   38.3190   -3.6560 O.3   1445  NAD1445    -0.2174
     10  C2B      -16.1830   36.8030   -3.1510 C.3   1445  NAD1445     0.2570
     11  O2B      -16.8400   35.9160   -4.0430 O.3   1445  NAD1445    -0.2130
     12  C1B      -15.0290   37.5760   -3.7780 C.3   1445  NAD1445     0.3186
     13  N9A      -13.7930   36.8060   -3.9610 N.pl3 1445  NAD1445    -0.1439
     14  C8A      -13.1910   35.9600   -3.0740 C.3   1445  NAD1445     0.3377
     15  N7A      -12.0780   35.4640   -3.6510 N.2   1445  NAD1445    -0.2095
     16  C5A      -11.9610   35.9810   -4.8950 C.2   1445  NAD1445     0.2526
     17  C6A      -11.0220   35.7970   -5.9070 C.2   1445  NAD1445     0.4393
     18  N6A       -9.9790   34.9950   -5.7340 N.pl3 1445  NAD1445     0.2180
     19  N1A      -11.1770   36.4750   -7.0900 N.2   1445  NAD1445     0.0021
     20  C2A      -12.2520   37.3270   -7.2750 C.3   1445  NAD1445     0.5254
     21  N3A      -13.1880   37.5050   -6.2770 N.2   1445  NAD1445    -0.0055
     22  C4A      -13.0380   36.8380   -5.1020 C.2   1445  NAD1445     0.3518
     23  O3       -16.8300   41.0420    1.7970 O.3   1445  NAD1445    -0.2703
     24  PN       -16.8730   42.6550    1.7670 P.3   1445  NAD1445     0.2189
     25  O1N      -17.6920   43.1200    2.9070 O.3   1445  NAD1445    -0.4371
     26  O2N      -17.2450   43.1600    0.4320 O.2   1445  NAD1445    -0.5170
     27  O5D      -15.3430   43.0260    2.1080 O.3   1445  NAD1445    -0.3112
     28  C5D      -14.2960   42.9840    1.1620 C.3   1445  NAD1445     0.1813
     29  C4D      -13.1610   43.9260    1.5440 C.3   1445  NAD1445     0.1799
     30  O4D      -13.6990   45.2160    1.7090 O.3   1445  NAD1445    -0.3327
     31  C3D      -12.4900   43.5860    2.8630 C.3   1445  NAD1445     0.2158
     32  O3D      -11.1120   43.8840    2.7860 O.3   1445  NAD1445    -0.2175
     33  C2D      -13.1940   44.4820    3.8700 C.3   1445  NAD1445     0.2309
     34  O2D      -12.4310   44.7600    5.0170 O.3   1445  NAD1445    -0.2158
     35  C1D      -13.4280   45.7170    3.0140 C.3   1445  NAD1445     0.2263
     36  N1N      -14.5330   46.6220    3.4230 N.pl3 1445  NAD1445    -0.2787
     37  C2N      -14.2610   47.9510    3.5560 C.3   1445  NAD1445     0.1244
     38  C3N      -15.2730   48.8500    3.9080 C.2   1445  NAD1445     0.0544
     39  C7N      -14.9820   50.3120    4.0690 C.2   1445  NAD1445     0.2818
     40  O7N      -16.0000   51.2060    4.4390 O.2   1445  NAD1445    -0.2670
     41  N7N      -13.7520   50.7660    3.8550 N.am  1445  NAD1445    -0.0839
     42  C4N      -16.5610   48.3710    4.1120 C.2   1445  NAD1445     0.0033
     43  C5N      -16.8180   47.0140    3.9860 C.2   1445  NAD1445     0.0157
     44  C6N      -15.7940   46.1520    3.6330 C.2   1445  NAD1445     0.0633
@<TRIPOS>BOND
     1    20    19    1
     2    20    21    1
     3    19    17    2
     4    21    22    2
     5    17    18    1
     6    17    16    1
     7    22    16    1
     8    22    13    1
     9    16    15    2
    10    11    10    1
    11    13    12    1
    12    13    14    1
    13    12    10    1
    14    12     7    1
    15     9     8    1
    16    15    14    1
    17    10     8    1
    18     7     6    1
    19     8     6    1
    20     6     5    1
    21     5     4    1
    22     4     1    1
    23    26    24    2
    24     3     1    2
    25     1     2    1
    26     1    23    1
    27    28    29    1
    28    28    27    1
    29    29    30    1
    30    29    31    1
    31    30    35    1
    32    24    23    1
    33    24    27    1
    34    24    25    1
    35    32    31    1
    36    31    33    1
    37    35    36    1
    38    35    33    1
    39    36    37    1
    40    36    44    1
    41    37    38    1
    42    44    43    2
    43    41    39   am
    44    33    34    1
    45    38    39    1
    46    38    42    2
    47    43    42    1
    48    39    40    2
