@<TRIPOS>MOLECULE
2ixc_TRH_A_1.pdb
 35 37 0 0 0
SMALL
GASTEIGER

@<TRIPOS>ATOM
      1  O4P       -5.6950    0.4680  -16.5510 O.2   1199  TRH1199    -0.5170
      2  P2        -4.6660    0.8970  -15.3950 P.3   1199  TRH1199     0.2208
      3  O3P       -5.1030    0.9940  -13.8660 O.3   1199  TRH1199    -0.4371
      4  O1        -3.3070    0.0030  -15.5300 O.3   1199  TRH1199    -0.2857
      5  C1        -2.8930   -0.9390  -14.5480 C.3   1199  TRH1199     0.2741
      6  C2        -1.4140   -1.2800  -14.7970 C.3   1199  TRH1199     0.2409
      7  O2        -1.1730   -1.4800  -16.1990 O.3   1199  TRH1199    -0.2149
      8  C3        -1.0190   -2.5550  -14.0580 C.3   1199  TRH1199     0.2197
      9  O3         0.3120   -2.8850  -14.4600 O.3   1199  TRH1199    -0.2174
     10  C4        -1.9820   -3.7240  -14.3360 C.3   1199  TRH1199     0.2118
     11  O4        -1.5840   -4.8620  -13.5560 O.3   1199  TRH1199    -0.2177
     12  C5        -3.4080   -3.2850  -14.0170 C.3   1199  TRH1199     0.1508
     13  O5        -3.6990   -2.1000  -14.7690 O.3   1199  TRH1199    -0.3281
     14  C6        -4.4820   -4.3310  -14.3470 C.3   1199  TRH1199     0.0350
     15  OPP       -4.0230    2.3600  -15.7070 O.3   1199  TRH1199    -0.2703
     16  P         -3.9190    3.0590  -17.1610 P.3   1199  TRH1199     0.2189
     17  O1P       -5.3520    3.1720  -17.8880 O.3   1199  TRH1199    -0.4371
     18  O2P       -2.6690    2.4080  -17.9310 O.2   1199  TRH1199    -0.5170
     19  O5'       -3.5280    4.5600  -16.7210 O.3   1199  TRH1199    -0.3112
     20  C5'       -4.4340    5.3530  -15.9290 C.3   1199  TRH1199     0.1812
     21  C4'       -3.7270    6.6750  -15.6020 C.3   1199  TRH1199     0.1773
     22  O4'       -2.6220    6.3760  -14.7340 O.3   1199  TRH1199    -0.3339
     23  C3'       -3.1380    7.3970  -16.8290 C.3   1199  TRH1199     0.1857
     24  O3'       -3.3660    8.8330  -16.7410 O.3   1199  TRH1199    -0.2203
     25  C2'       -1.6320    7.0860  -16.7940 C.3   1199  TRH1199     0.0874
     26  C1'       -1.3800    6.8050  -15.3150 C.3   1199  TRH1199     0.2090
     27  N11       -0.3830    5.7960  -14.9540 N.am  1199  TRH1199    -0.1794
     28  C21        0.7500    6.2050  -14.3020 C.1   1199  TRH1199     0.2844
     29  O21        0.9870    7.4860  -14.0670 O.2   1199  TRH1199    -0.1918
     30  N31        1.6860    5.3400  -13.9050 N.2   1199  TRH1199    -0.2455
     31  C41        1.4940    4.0300  -14.1010 C.1   1199  TRH1199     0.2134
     32  O41        2.4220    3.1990  -13.6780 O.2   1199  TRH1199    -0.2088
     33  C51        0.3640    3.5670  -14.7530 C.2   1199  TRH1199     0.0891
     34  C5A        0.1780    2.0810  -14.9770 C.3   1199  TRH1199     0.0462
     35  C61       -0.6010    4.4810  -15.1710 C.2   1199  TRH1199     0.0877
@<TRIPOS>BOND
     1    18    16    2
     2    17    16    1
     3    16    19    1
     4    16    15    1
     5    23    25    1
     6    23    24    1
     7    23    21    1
     8    25    26    1
     9    19    20    1
    10     1     2    2
    11     7     6    1
    12    20    21    1
    13    15     2    1
    14    21    22    1
    15     4     2    1
    16     4     5    1
    17     2     3    1
    18    26    27    1
    19    26    22    1
    20    35    27    1
    21    35    33    2
    22    34    33    1
    23    27    28   am
    24     6     5    1
    25     6     8    1
    26    13     5    1
    27    13    12    1
    28    33    31    1
    29     9     8    1
    30    14    12    1
    31    10     8    1
    32    10    12    1
    33    10    11    1
    34    28    29    2
    35    28    30    2
    36    31    30    2
    37    31    32    2
