@<TRIPOS>MOLECULE
2ixe_ATP_A_1.pdb
 31 33 0 0 0
SMALL
GASTEIGER

@<TRIPOS>ATOM
      1  PG       -16.3360   24.2170   -3.8810 P.3     1  ATP1        0.5373
      2  O1G      -16.1470   23.5800   -2.5310 O.3     1  ATP1       -0.1143
      3  O2G      -17.5580   25.0930   -3.9740 O.3     1  ATP1       -0.1143
      4  O3G      -16.1210   23.2690   -5.0410 O.2     1  ATP1       -0.2221
      5  PB       -13.6190   25.1210   -4.3710 P.3     1  ATP1        0.2277
      6  O1B      -12.8610   25.1100   -3.0550 O.3     1  ATP1       -0.4368
      7  O2B      -13.3640   23.9770   -5.3090 O.2     1  ATP1       -0.5168
      8  O3B      -15.1790   25.3550   -4.0190 O.3     1  ATP1       -0.2258
      9  PA       -12.7040   26.6930   -6.6270 P.3     1  ATP1        0.2189
     10  O1A      -11.2450   26.2900   -6.6210 O.3     1  ATP1       -0.4371
     11  O2A      -13.6150   26.0600   -7.6570 O.2     1  ATP1       -0.5170
     12  O3A      -13.3180   26.5350   -5.1270 O.3     1  ATP1       -0.2700
     13  O5'      -12.8130   28.2650   -6.8660 O.3     1  ATP1       -0.3112
     14  C5'      -11.9400   29.1930   -6.2320 C.3     1  ATP1        0.1813
     15  C4'      -12.3170   30.5860   -6.7130 C.3     1  ATP1        0.1821
     16  O4'      -11.9110   30.7190   -8.0780 O.3     1  ATP1       -0.3135
     17  C3'      -13.8230   30.8150   -6.6670 C.3     1  ATP1        0.2184
     18  O3'      -14.1300   32.0880   -6.0930 O.3     1  ATP1       -0.2174
     19  C2'      -14.2750   30.7540   -8.1100 C.3     1  ATP1        0.2570
     20  O2'      -15.3340   31.6930   -8.3330 O.3     1  ATP1       -0.2130
     21  C1'      -13.0160   31.0940   -8.9010 C.3     1  ATP1        0.3186
     22  N9       -12.8780   30.3690  -10.1860 N.pl3   1  ATP1       -0.1439
     23  C8       -12.9870   29.0390  -10.3690 C.3     1  ATP1        0.3377
     24  N7       -12.7800   28.7250  -11.6710 N.2     1  ATP1       -0.2095
     25  C5       -12.5240   29.8620  -12.3400 C.2     1  ATP1        0.2526
     26  C6       -12.2160   30.2380  -13.7400 C.2     1  ATP1        0.4393
     27  N6       -12.1460   29.2960  -14.7080 N.pl3   1  ATP1        0.2180
     28  N1       -12.0110   31.5500  -14.0120 N.2     1  ATP1        0.0021
     29  C2       -12.0830   32.4980  -13.0540 C.3     1  ATP1        0.5254
     30  N3       -12.3560   32.2200  -11.7660 N.2     1  ATP1       -0.0055
     31  C4       -12.5830   30.9470  -11.3540 C.2     1  ATP1        0.3518
@<TRIPOS>BOND
     1    27    26    1
     2    28    26    2
     3    28    29    1
     4    26    25    1
     5    29    30    1
     6    25    24    2
     7    25    31    1
     8    30    31    2
     9    24    23    1
    10    31    22    1
    11    23    22    1
    12    22    21    1
    13    21    19    1
    14    21    16    1
    15    20    19    1
    16    19    17    1
    17    16    15    1
    18    11     9    2
    19    13     9    1
    20    13    14    1
    21    15    17    1
    22    15    14    1
    23    17    18    1
    24     9    10    1
    25     9    12    1
    26     7     5    2
    27    12     5    1
    28     4     1    2
    29     5     8    1
    30     5     6    1
    31     8     1    1
    32     3     1    1
    33     1     2    1
