@<TRIPOS>MOLECULE
2ixf_ATP_A_1.pdb
 31 33 0 0 0
SMALL
GASTEIGER

@<TRIPOS>ATOM
      1  PG        15.0320    4.7410  -16.7770 P.3     1  ATP1        0.5373
      2  O1G       14.8910    4.9340  -15.2980 O.3     1  ATP1       -0.1143
      3  O2G       16.1080    3.7610  -17.1910 O.3     1  ATP1       -0.1143
      4  O3G       15.0830    6.0240  -17.5580 O.2     1  ATP1       -0.2221
      5  PB        12.1340    4.2850  -17.2730 P.3     1  ATP1        0.2277
      6  O1B       11.5080    3.7520  -16.0210 O.3     1  ATP1       -0.4368
      7  O2B       11.8570    5.7140  -17.6540 O.2     1  ATP1       -0.5168
      8  O3B       13.7130    3.9470  -17.2880 O.3     1  ATP1       -0.2258
      9  PA        11.0790    3.5670  -19.9090 P.3     1  ATP1        0.2189
     10  O1A        9.6110    3.8310  -19.7190 O.3     1  ATP1       -0.4371
     11  O2A       11.9070    4.5260  -20.7140 O.2     1  ATP1       -0.5170
     12  O3A       11.6660    3.2620  -18.4320 O.3     1  ATP1       -0.2700
     13  O5'       11.2460    2.1390  -20.6020 O.3     1  ATP1       -0.3112
     14  C5'       10.4470    1.0360  -20.1620 C.3     1  ATP1        0.1813
     15  C4'       10.7240   -0.1810  -21.0240 C.3     1  ATP1        0.1821
     16  O4'       10.1950    0.0550  -22.3290 O.3     1  ATP1       -0.3135
     17  C3'       12.2140   -0.4700  -21.1930 C.3     1  ATP1        0.2184
     18  O3'       12.4380   -1.8760  -21.1010 O.3     1  ATP1       -0.2174
     19  C2'       12.5560    0.0720  -22.5640 C.3     1  ATP1        0.2570
     20  O2'       13.6370   -0.6050  -23.2260 O.3     1  ATP1       -0.2130
     21  C1'       11.2290   -0.0600  -23.3050 C.3     1  ATP1        0.3186
     22  N9        11.0510    0.9910  -24.3240 N.pl3   1  ATP1       -0.1439
     23  C8        11.1980    2.3140  -24.1510 C.3     1  ATP1        0.3377
     24  N7        10.9620    2.9670  -25.3040 N.2     1  ATP1       -0.2095
     25  C5        10.6610    2.0520  -26.2380 C.2     1  ATP1        0.2526
     26  C6        10.3100    2.0680  -27.6650 C.2     1  ATP1        0.4393
     27  N6        10.2330    3.2400  -28.3330 N.pl3   1  ATP1        0.2180
     28  N1        10.0730    0.8850  -28.2680 N.2     1  ATP1        0.0021
     29  C2        10.1490   -0.2900  -27.6130 C.3     1  ATP1        0.5254
     30  N3        10.4580   -0.3680  -26.3060 N.2     1  ATP1       -0.0055
     31  C4        10.7180    0.7460  -25.5860 C.2     1  ATP1        0.3518
@<TRIPOS>BOND
     1    27    26    1
     2    28    26    2
     3    28    29    1
     4    26    25    1
     5    29    30    1
     6    30    31    2
     7    25    31    1
     8    25    24    2
     9    31    22    1
    10    24    23    1
    11    22    23    1
    12    22    21    1
    13    21    19    1
    14    21    16    1
    15    20    19    1
    16    19    17    1
    17    16    15    1
    18    17    18    1
    19    17    15    1
    20    15    14    1
    21    11     9    2
    22    13    14    1
    23    13     9    1
    24     9    10    1
    25     9    12    1
    26    12     5    1
    27     7     5    2
    28     4     1    2
    29     8     5    1
    30     8     1    1
    31     5     6    1
    32     3     1    1
    33     1     2    1
