@<TRIPOS>MOLECULE
2ixg_ATP_A_1.pdb
 31 33 0 0 0
SMALL
GASTEIGER

@<TRIPOS>ATOM
      1  PG        62.2430   13.3100   43.7690 P.3     1  ATP1        0.5373
      2  O1G       62.0210   13.1860   45.2590 O.3     1  ATP1       -0.1143
      3  O2G       63.1340   12.2380   43.1890 O.2     1  ATP1       -0.2221
      4  O3G       62.5640   14.7090   43.2960 O.3     1  ATP1       -0.1143
      5  PB        59.4590   13.7410   43.6000 P.3     1  ATP1        0.2277
      6  O1B       59.7720   15.1800   43.9470 O.2     1  ATP1       -0.5168
      7  O2B       58.8010   12.8600   44.6330 O.3     1  ATP1       -0.4368
      8  O3B       60.8040   12.9990   43.1120 O.3     1  ATP1       -0.2258
      9  PA        58.3320   15.0050   41.3470 P.3     1  ATP1        0.2189
     10  O1A       57.2170   15.8310   41.9390 O.3     1  ATP1       -0.4371
     11  O2A       59.6800   15.6360   41.0930 O.2     1  ATP1       -0.5170
     12  O3A       58.5450   13.7000   42.2690 O.3     1  ATP1       -0.2700
     13  O5'       57.8130   14.3990   39.9510 O.3     1  ATP1       -0.3112
     14  C5'       56.6930   13.5210   39.8830 C.3     1  ATP1        0.1813
     15  C4'       56.5680   12.9780   38.4630 C.3     1  ATP1        0.1821
     16  O4'       56.2190   14.0360   37.5600 O.3     1  ATP1       -0.3135
     17  C3'       57.8780   12.3780   37.9700 C.3     1  ATP1        0.2184
     18  O3'       57.6390   11.0860   37.3990 O.3     1  ATP1       -0.2174
     19  C2'       58.4100   13.3680   36.9470 C.3     1  ATP1        0.2570
     20  O2'       59.0350   12.7180   35.8350 O.3     1  ATP1       -0.2130
     21  C1'       57.1850   14.1620   36.5080 C.3     1  ATP1        0.3186
     22  N9        57.4950   15.5970   36.2440 N.pl3   1  ATP1       -0.1439
     23  C8        58.0420   16.4750   37.1120 C.3     1  ATP1        0.3377
     24  N7        58.1780   17.7020   36.5410 N.2     1  ATP1       -0.2095
     25  C5        57.7090   17.6230   35.2840 C.2     1  ATP1        0.2526
     26  C6        57.5560   18.5510   34.1330 C.2     1  ATP1        0.4393
     27  N6        57.9440   19.8450   34.2210 N.pl3   1  ATP1        0.2180
     28  N1        57.0130   18.0590   32.9920 N.2     1  ATP1        0.0021
     29  C2        56.6190   16.7720   32.8820 C.3     1  ATP1        0.5254
     30  N3        56.7310   15.8800   33.8890 N.2     1  ATP1       -0.0055
     31  C4        57.2580   16.2330   35.0920 C.2     1  ATP1        0.3518
@<TRIPOS>BOND
     1    29    28    1
     2    29    30    1
     3    28    26    2
     4    30    31    2
     5    26    27    1
     6    26    25    1
     7    31    25    1
     8    31    22    1
     9    25    24    2
    10    20    19    1
    11    22    21    1
    12    22    23    1
    13    21    19    1
    14    21    16    1
    15    24    23    1
    16    19    17    1
    17    18    17    1
    18    16    15    1
    19    17    15    1
    20    15    14    1
    21    14    13    1
    22    13     9    1
    23    11     9    2
    24     9    10    1
    25     9    12    1
    26    12     5    1
    27     8     5    1
    28     8     1    1
    29     3     1    2
    30     4     1    1
    31     5     6    2
    32     5     7    1
    33     1     2    1
