@<TRIPOS>MOLECULE
2ixh_TRH_A_1.pdb
 35 37 0 0 0
SMALL
GASTEIGER

@<TRIPOS>ATOM
      1  O4P        0.8030   16.3880    9.3220 O.2   1185  TRH1185    -0.5170
      2  P2         0.2670   17.1070   10.6230 P.3   1185  TRH1185     0.2208
      3  O3P        0.4770   16.4240   12.0570 O.3   1185  TRH1185    -0.4371
      4  O1         0.8520   18.6150   10.6880 O.3   1185  TRH1185    -0.2857
      5  C1         1.7170   19.0780   11.7290 C.3   1185  TRH1185     0.2741
      6  C2         1.9200   20.5960   11.6260 C.3   1185  TRH1185     0.2409
      7  O2         2.3450   20.9600   10.3090 O.3   1185  TRH1185    -0.2149
      8  C3         2.9680   21.0750   12.6270 C.3   1185  TRH1185     0.2197
      9  O3         3.1950   22.4730   12.4580 O.3   1185  TRH1185    -0.2174
     10  C4         4.2720   20.3160   12.4540 C.3   1185  TRH1185     0.2118
     11  O4         5.2020   20.7870   13.4460 O.3   1185  TRH1185    -0.2177
     12  C5         3.9760   18.8200   12.5570 C.3   1185  TRH1185     0.1508
     13  O5         2.9730   18.4390   11.5980 O.3   1185  TRH1185    -0.3281
     14  C6         5.2160   17.9770   12.2680 C.3   1185  TRH1185     0.0350
     15  OPP       -1.3150   17.3870   10.4290 O.3   1185  TRH1185    -0.2703
     16  P         -2.0450   17.6720    9.0160 P.3   1185  TRH1185     0.2189
     17  O1P       -1.9460   16.3840    8.0860 O.2   1185  TRH1185    -0.5170
     18  O2P       -1.5750   19.0750    8.4140 O.3   1185  TRH1185    -0.4371
     19  O5'       -3.5860   17.7840    9.4580 O.3   1185  TRH1185    -0.3112
     20  C5'       -4.2110   16.6970   10.1400 C.3   1185  TRH1185     0.1812
     21  C4'       -5.6630   17.0500   10.4520 C.3   1185  TRH1185     0.1773
     22  O4'       -5.6730   17.9320   11.5730 O.3   1185  TRH1185    -0.3339
     23  C3'       -6.3680   17.7620    9.3060 C.3   1185  TRH1185     0.1857
     24  O3'       -7.7260   17.2970    9.1950 O.3   1185  TRH1185    -0.2203
     25  C2'       -6.3350   19.2240    9.7030 C.3   1185  TRH1185     0.0874
     26  C1'       -6.2720   19.1880   11.2320 C.3   1185  TRH1185     0.2090
     27  N11       -5.4770   20.2530   11.8840 N.am  1185  TRH1185    -0.1794
     28  C21       -6.0360   21.1130   12.7910 C.1   1185  TRH1185     0.2844
     29  O21       -7.3380   21.0610   13.0950 O.2   1185  TRH1185    -0.1918
     30  N31       -5.2810   22.0510   13.3920 N.2   1185  TRH1185    -0.2455
     31  C41       -3.9710   22.1620   13.1310 C.1   1185  TRH1185     0.2134
     32  O41       -3.2560   23.0930   13.7430 O.2   1185  TRH1185    -0.2088
     33  C51       -3.3720   21.3020   12.2310 C.2   1185  TRH1185     0.0891
     34  C5A       -1.8930   21.3900   11.9240 C.3   1185  TRH1185     0.0462
     35  C61       -4.1630   20.3320   11.6240 C.2   1185  TRH1185     0.0877
@<TRIPOS>BOND
     1    17    16    2
     2    18    16    1
     3    16    19    1
     4    16    15    1
     5    24    23    1
     6    23    25    1
     7    23    21    1
     8     1     2    2
     9    19    20    1
    10    25    26    1
    11    20    21    1
    12     7     6    1
    13    15     2    1
    14    21    22    1
    15     2     4    1
    16     2     3    1
    17     4     5    1
    18    26    22    1
    19    26    27    1
    20    13     5    1
    21    13    12    1
    22    35    27    1
    23    35    33    2
    24     6     5    1
    25     6     8    1
    26    27    28   am
    27    34    33    1
    28    33    31    1
    29    14    12    1
    30    10    12    1
    31    10     8    1
    32    10    11    1
    33     9     8    1
    34    28    29    2
    35    28    30    2
    36    31    30    2
    37    31    32    2
