@<TRIPOS>MOLECULE
2ixi_TYD_A_1.pdb
 25 26 0 0 0
SMALL
GASTEIGER

@<TRIPOS>ATOM
      1  PA        14.3990   10.8300   14.2150 P.3   1182  TYD1182     0.2231
      2  O1A       14.8310    9.5080   14.8080 O.2   1182  TYD1182    -0.5169
      3  O2A       13.9390   11.9270   15.1370 O.3   1182  TYD1182    -0.4370
      4  O3A       13.2680   10.5280   13.0990 O.3   1182  TYD1182    -0.2261
      5  PB        11.7860   11.1650   13.1310 P.3   1182  TYD1182     0.5373
      6  O1B       12.0230   12.6310   12.8360 O.3   1182  TYD1182    -0.1143
      7  O2B       11.2750   10.8580   14.5250 O.3   1182  TYD1182    -0.1143
      8  O3B       11.0520   10.4200   12.0370 O.2   1182  TYD1182    -0.2221
      9  O5'       15.6370   11.3710   13.3290 O.3   1182  TYD1182    -0.3111
     10  C5'       15.4990   12.3830   12.3260 C.3   1182  TYD1182     0.1812
     11  C4'       16.1820   11.9350   11.0340 C.3   1182  TYD1182     0.1773
     12  O4'       17.5970   11.8210   11.2270 O.3   1182  TYD1182    -0.3339
     13  C3'       15.7040   10.5700   10.5690 C.3   1182  TYD1182     0.1857
     14  O3'       15.4650   10.5960    9.1560 O.3   1182  TYD1182    -0.2203
     15  C2'       16.8290    9.6120   10.9070 C.3   1182  TYD1182     0.0874
     16  C1'       18.0570   10.5110   10.8900 C.3   1182  TYD1182     0.2090
     17  N1        19.1160   10.1320   11.8340 N.am  1182  TYD1182    -0.1794
     18  C2        20.4210    9.8770   11.3520 C.1   1182  TYD1182     0.2844
     19  O2        20.6770    9.9410   10.1270 O.2   1182  TYD1182    -0.1918
     20  N3        21.4070    9.5460   12.1990 N.2   1182  TYD1182    -0.2455
     21  C4        21.2140    9.4510   13.5190 C.1   1182  TYD1182     0.2134
     22  O4        22.1650    9.1420   14.2770 O.2   1182  TYD1182    -0.2088
     23  C5        19.8550    9.7140   14.0540 C.2   1182  TYD1182     0.0891
     24  C5M       19.5890    9.6260   15.5350 C.3   1182  TYD1182     0.0462
     25  C6        18.8510   10.0590   13.1560 C.2   1182  TYD1182     0.0877
@<TRIPOS>BOND
     1    14    13    1
     2    19    18    2
     3    13    15    1
     4    13    11    1
     5    16    15    1
     6    16    12    1
     7    16    17    1
     8    11    12    1
     9    11    10    1
    10    18    17   am
    11    18    20    2
    12    17    25    1
    13     8     5    2
    14    20    21    2
    15    10     9    1
    16     6     5    1
    17     4     5    1
    18     4     1    1
    19     5     7    1
    20    25    23    2
    21     9     1    1
    22    21    23    1
    23    21    22    2
    24    23    24    1
    25     1     2    2
    26     1     3    1
