@<TRIPOS>MOLECULE
2ixk_TDO_A_1.pdb
 35 37 0 0 0
SMALL
GASTEIGER

@<TRIPOS>ATOM
      1  O4P       14.3280   12.3380   17.8870 O.3   1185  TDO1185    -0.4371
      2  P2        15.7450   12.4260   17.3680 P.3   1185  TDO1185     0.2208
      3  O3P       16.5220   13.9060   17.4630 O.2   1185  TDO1185    -0.5170
      4  O1        16.5710   11.2610   18.1310 O.3   1185  TDO1185    -0.2857
      5  C1        17.6080   11.5460   19.0730 C.3   1185  TDO1185     0.2748
      6  C2        18.4900   10.3030   19.2010 C.3   1185  TDO1185     0.2455
      7  O2        17.7110    9.1820   19.6260 O.3   1185  TDO1185    -0.2145
      8  C3        19.5890   10.5470   20.2220 C.3   1185  TDO1185     0.2462
      9  O3        20.4700    9.4120   20.3560 O.3   1185  TDO1185    -0.2121
     10  C4        18.9170   10.9250   21.5100 C.2   1185  TDO1185     0.2103
     11  O4        19.1190   10.2870   22.5430 O.2   1185  TDO1185    -0.2908
     12  C5        18.0050   12.1190   21.4110 C.3   1185  TDO1185     0.1774
     13  O5        17.0540   11.8850   20.3560 O.3   1185  TDO1185    -0.3232
     14  C6        17.2500   12.4000   22.7090 C.3   1185  TDO1185     0.0403
     15  OPP       15.8060   12.0310   15.8040 O.3   1185  TDO1185    -0.2703
     16  P         14.8080   11.0460   15.0060 P.3   1185  TDO1185     0.2189
     17  O1P       13.4200   11.6400   14.9300 O.2   1185  TDO1185    -0.5170
     18  O2P       14.8430    9.4630   15.5460 O.3   1185  TDO1185    -0.4371
     19  O5'       15.4200   11.0910   13.5260 O.3   1185  TDO1185    -0.3112
     20  C5'       15.3530   12.2990   12.7810 C.3   1185  TDO1185     0.1812
     21  C4'       15.9950   12.1080   11.4230 C.3   1185  TDO1185     0.1773
     22  O4'       17.4130   11.9160   11.5110 O.3   1185  TDO1185    -0.3339
     23  C3'       15.4510   10.8860   10.7290 C.3   1185  TDO1185     0.1857
     24  O3'       15.2700   11.2590    9.3600 O.3   1185  TDO1185    -0.2203
     25  C2'       16.5270    9.8280   10.8810 C.3   1185  TDO1185     0.0874
     26  C1'       17.7960   10.6660   10.9380 C.3   1185  TDO1185     0.2090
     27  N11       18.8660   10.1670   11.8050 N.am  1185  TDO1185    -0.1794
     28  C21       20.1020    9.9360   11.3260 C.1   1185  TDO1185     0.2844
     29  O21       20.3800   10.0600   10.1150 O.2   1185  TDO1185    -0.1918
     30  N31       21.0790    9.5250   12.1310 N.2   1185  TDO1185    -0.2455
     31  C41       20.9170    9.3580   13.4410 C.1   1185  TDO1185     0.2134
     32  O41       21.8630    8.9770   14.1450 O.2   1185  TDO1185    -0.2088
     33  C51       19.5750    9.6080   14.0160 C.2   1185  TDO1185     0.0891
     34  C5A       19.2820    9.4470   15.4890 C.3   1185  TDO1185     0.0462
     35  C61       18.6080   10.0420   13.1270 C.2   1185  TDO1185     0.0877
@<TRIPOS>BOND
     1    24    23    1
     2    29    28    2
     3    23    25    1
     4    23    21    1
     5    25    26    1
     6    26    22    1
     7    26    27    1
     8    28    27   am
     9    28    30    2
    10    21    22    1
    11    21    20    1
    12    27    35    1
    13    30    31    2
    14    20    19    1
    15    35    33    2
    16    31    33    1
    17    31    32    2
    18    19    16    1
    19    33    34    1
    20    17    16    2
    21    16    18    1
    22    16    15    1
    23    15     2    1
    24     2     3    2
    25     2     1    1
    26     2     4    1
    27     4     5    1
    28     5     6    1
    29     5    13    1
    30     6     7    1
    31     6     8    1
    32     8     9    1
    33     8    10    1
    34    13    12    1
    35    12    10    1
    36    12    14    1
    37    10    11    2
