@<TRIPOS>MOLECULE
2ixl_TRH_A_1.pdb
 35 37 0 0 0
SMALL
GASTEIGER

@<TRIPOS>ATOM
      1  O4P       -9.2570   -2.5900    2.3750 O.2   1198  TRH1198    -0.5170
      2  P2        -8.0190   -1.8370    3.0700 P.3   1198  TRH1198     0.2208
      3  O3P       -6.6250   -2.5530    3.4170 O.3   1198  TRH1198    -0.4371
      4  O1        -7.7150   -0.4990    2.2270 O.3   1198  TRH1198    -0.2857
      5  C1        -6.5170   -0.3300    1.4820 C.3   1198  TRH1198     0.2741
      6  C2        -6.4460    1.1310    1.0520 C.3   1198  TRH1198     0.2409
      7  O2        -7.6510    1.4810    0.3500 O.3   1198  TRH1198    -0.2149
      8  C3        -5.2230    1.3200    0.1700 C.3   1198  TRH1198     0.2197
      9  O3        -5.1490    2.6810   -0.2750 O.3   1198  TRH1198    -0.2174
     10  C4        -5.2370    0.3290   -1.0080 C.3   1198  TRH1198     0.2118
     11  O4        -4.0320    0.4770   -1.7570 O.3   1198  TRH1198    -0.2177
     12  C5        -5.3880   -1.1120   -0.5060 C.3   1198  TRH1198     0.1508
     13  O5        -6.5400   -1.1980    0.3340 O.3   1198  TRH1198    -0.3281
     14  C6        -5.5110   -2.1290   -1.6420 C.3   1198  TRH1198     0.0350
     15  OPP       -8.5260   -1.1850    4.4530 O.3   1198  TRH1198    -0.2703
     16  P        -10.0040   -0.6510    4.8050 P.3   1198  TRH1198     0.2189
     17  O1P      -11.0360   -1.8780    4.9420 O.3   1198  TRH1198    -0.4371
     18  O2P      -10.3810    0.6350    3.9330 O.2   1198  TRH1198    -0.5170
     19  O5'       -9.6990   -0.0830    6.2830 O.3   1198  TRH1198    -0.3112
     20  C5'       -9.3410   -0.9430    7.3770 C.3   1198  TRH1198     0.1812
     21  C4'       -9.3640   -0.1500    8.6840 C.3   1198  TRH1198     0.1773
     22  O4'       -8.2930    0.8120    8.7220 O.3   1198  TRH1198    -0.3339
     23  C3'      -10.6430    0.6460    8.8810 C.3   1198  TRH1198     0.1857
     24  O3'      -11.0600    0.5470   10.2510 O.3   1198  TRH1198    -0.2203
     25  C2'      -10.2870    2.0910    8.5520 C.3   1198  TRH1198     0.0874
     26  C1'       -8.7980    2.1510    8.8580 C.3   1198  TRH1198     0.2090
     27  N11       -7.9650    3.0150    7.9820 N.am  1198  TRH1198    -0.1794
     28  C21       -7.2600    4.0450    8.5270 C.1   1198  TRH1198     0.2844
     29  O21       -7.3260    4.3270    9.8190 O.2   1198  TRH1198    -0.1918
     30  N31       -6.4650    4.8250    7.7750 N.2   1198  TRH1198    -0.2455
     31  C41       -6.3430    4.5830    6.4570 C.1   1198  TRH1198     0.2134
     32  O41       -5.5540    5.3640    5.7490 O.2   1198  TRH1198    -0.2088
     33  C51       -7.0450    3.5460    5.8570 C.2   1198  TRH1198     0.0891
     34  C5A       -6.9240    3.2650    4.3730 C.3   1198  TRH1198     0.0462
     35  C61       -7.8630    2.7490    6.6590 C.2   1198  TRH1198     0.0877
@<TRIPOS>BOND
     1    11    10    1
     2    14    12    1
     3    10    12    1
     4    10     8    1
     5    12    13    1
     6     9     8    1
     7     8     6    1
     8    13     5    1
     9     7     6    1
    10     6     5    1
    11     5     4    1
    12     4     2    1
    13     1     2    2
    14     2     3    1
    15     2    15    1
    16    18    16    2
    17    34    33    1
    18    15    16    1
    19    16    17    1
    20    16    19    1
    21    32    31    2
    22    33    31    1
    23    33    35    2
    24    19    20    1
    25    31    30    2
    26    35    27    1
    27    20    21    1
    28    30    28    2
    29    27    28   am
    30    27    26    1
    31    28    29    2
    32    25    26    1
    33    25    23    1
    34    21    22    1
    35    21    23    1
    36    22    26    1
    37    23    24    1
