@<TRIPOS>MOLECULE
2ixp_III_F_1.pdb
 43 44 0 0 0
SMALL
GASTEIGER

@<TRIPOS>ATOM
      1  C1        -7.6610   -4.3380  -15.2110 C.2     1  SIN1        0.3650
      2  O1        -7.2070   -4.0020  -14.0950 O.co2   1  SIN1       -0.2457
      3  O2        -8.0910   -5.5160  -15.3690 O.co2   1  SIN1       -0.2457
      4  C2        -7.6940   -3.3260  -16.3470 C.3     1  SIN1        0.1182
      5  C3        -8.6610   -2.1750  -16.0480 C.3     1  SIN1        0.0632
      6  C4        -9.7890   -2.6300  -15.1350 C.3     1  SIN1        0.2265
      7  O3       -10.5940   -3.5300  -15.4720 O.3     1  SIN1       -0.2036
      8  N        -10.8730   -1.7260  -15.5580 N.3     2  ALA2       -0.1813
      9  CA       -12.2710   -1.8970  -15.0940 C.3     2  ALA2        0.1529
     10  C        -12.9480   -3.0920  -15.8430 C.2     2  ALA2        0.2577
     11  O        -13.9310   -3.7020  -15.3570 O.2     2  ALA2       -0.2718
     12  CB       -13.0330   -0.6070  -15.2960 C.3     2  ALA2        0.0288
     13  N        -12.3880   -3.4240  -17.0130 N.am    3  ALA3       -0.1967
     14  CA       -12.8800   -4.4900  -17.8520 C.3     3  ALA3        0.1713
     15  C        -11.7370   -5.1840  -18.6520 C.2     3  ALA3        0.2458
     16  O        -10.7050   -4.5890  -18.9330 O.2     3  ALA3       -0.2730
     17  CB       -13.9410   -3.9660  -18.7280 C.3     3  ALA3        0.0333
     18  N        -11.8900   -6.4790  -18.9860 N.am    4  PRO4       -0.2716
     19  CA       -10.6950   -7.0470  -19.6350 C.3     4  PRO4        0.1535
     20  C        -10.6910   -6.5930  -21.0820 C.2     4  PRO4        0.2595
     21  O        -11.7420   -6.5140  -21.6840 O.2     4  PRO4       -0.2716
     22  CB       -10.9420   -8.5430  -19.5660 C.3     4  PRO4        0.0310
     23  CG       -12.2760   -8.6910  -18.7670 C.3     4  PRO4        0.0237
     24  CD       -12.9970   -7.4440  -18.9060 C.3     4  PRO4        0.0939
     25  N         -9.5350   -6.2030  -21.5970 N.am    5  LYS5       -0.2013
     26  CA        -9.3560   -5.8820  -23.0140 C.3     5  LYS5        0.1465
     27  C         -7.9020   -6.1760  -23.3260 C.3     5  LYS5        0.2639
     28  O         -7.4460   -7.3140  -23.1980 O.3     5  LYS5       -0.1972
     29  CB        -9.6360   -4.4110  -23.3280 C.3     5  LYS5        0.0262
     30  CG       -10.9340   -3.8980  -22.8060 C.3     5  LYS5        0.0034
     31  CD       -11.4410   -2.6070  -23.4950 C.3     5  LYS5        0.0206
     32  CE       -13.0290   -2.5510  -23.3870 C.3     5  LYS5        0.1093
     33  NZ       -13.8980   -3.2310  -24.4570 N.3     5  LYS5       -0.1314
     34  N1        -8.3790   -6.8750  -25.0010 N.pl3   6  NIT6       -0.2067
     35  C1        -7.4110   -7.2020  -25.8650 C.ar    6  NIT6        0.0681
     36  C2        -7.6820   -7.0700  -27.2290 C.ar    6  NIT6        0.0179
     37  C3        -6.7020   -7.4090  -28.1660 C.ar    6  NIT6        0.0254
     38  C4        -5.4580   -7.8730  -27.7120 C.ar    6  NIT6        0.1430
     39  N4        -4.4260   -8.2310  -28.6130 N.pl3   6  NIT6        0.0577
     40  ON1       -3.2980   -8.3760  -28.1220 O.2     6  NIT6       -0.1261
     41  ON2       -4.6150   -8.4100  -29.8290 O.2     6  NIT6       -0.1261
     42  C5        -5.2050   -7.9750  -26.3210 C.ar    6  NIT6        0.0254
     43  C6        -6.1720   -7.6440  -25.3820 C.ar    6  NIT6        0.0179
@<TRIPOS>BOND
     1    41    39    2
     2    39    40    2
     3    39    38    1
     4    37    38   ar
     5    37    36   ar
     6    38    42   ar
     7    36    35   ar
     8    42    43   ar
     9    35    43   ar
    10    35    34    1
    11    34    27    1
    12    33    32    1
    13    31    32    1
    14    31    30    1
    15    29    26    1
    16    29    30    1
    17    27    28    1
    18    27    26    1
    19    26    25    1
    20    21    20    2
    21    25    20   am
    22    20    19    1
    23    19    22    1
    24    19    18    1
    25    22    23    1
    26    18    24    1
    27    18    15   am
    28    16    15    2
    29    24    23    1
    30    17    14    1
    31    15    14    1
    32    14    13    1
    33    13    10   am
    34     4     5    1
    35     4     1    1
    36     5     6    1
    37    10    11    2
    38    10     9    1
    39     8     6    1
    40     8     9    1
    41     7     6    1
    42     3     1   ar
    43    12     9    1
    44     1     2   ar
