@<TRIPOS>MOLECULE
2ixu_MU2_A_1.pdb
 34 34 0 0 0
SMALL
GASTEIGER

@<TRIPOS>ATOM
      1  C1        23.8210   61.1150   27.7870 C.3   1341  MU21341     0.2916
      2  O1        23.8580   61.9510   26.6270 O.3   1341  MU21341    -0.1879
      3  C2        24.1970   59.6730   27.4120 C.3   1341  MU21341     0.1839
      4  N2        25.5510   59.6530   26.8380 N.am  1341  MU21341    -0.1993
      5  C7        26.4490   58.7080   27.1360 C.2   1341  MU21341     0.2420
      6  O7        26.2220   57.7670   27.9020 O.2   1341  MU21341    -0.2733
      7  C8        27.8150   58.8240   26.4680 C.3   1341  MU21341     0.0964
      8  C3        23.1500   59.1250   26.4320 C.3   1341  MU21341     0.1734
      9  O3        23.4790   57.7610   26.0760 O.3   1341  MU21341    -0.3449
     10  C4        21.7660   59.1940   27.0620 C.3   1341  MU21341     0.2103
     11  O4        20.7870   58.6930   26.1400 O.3   1341  MU21341    -0.2178
     12  C5        21.4520   60.6420   27.4210 C.3   1341  MU21341     0.1834
     13  O5        22.4820   61.1620   28.3440 O.3   1341  MU21341    -0.3242
     14  C6        20.0850   60.7620   28.1010 C.3   1341  MU21341     0.2142
     15  O6        19.9120   62.0460   28.7070 O.3   1341  MU21341    -0.2176
     16  C18       23.4730   57.1250   24.7760 C.3   1341  MU21341     0.1926
     17  C20       23.3420   55.6010   24.8890 C.3   1341  MU21341     0.0421
     18  C19       24.6170   57.6140   23.9660 C.2   1341  MU21341     0.2689
     19  O18       25.7640   57.1660   24.1170 O.2   1341  MU21341    -0.2707
     20  N4        24.2530   58.5690   23.1030 N.am  1341  MU21341    -0.1957
     21  C21       25.1570   59.2350   22.1640 C.3   1341  MU21341     0.1729
     22  C23       24.3560   59.9920   21.0960 C.3   1341  MU21341     0.0334
     23  C22       26.1200   60.2080   22.8480 C.2   1341  MU21341     0.2616
     24  O19       25.8420   60.6830   23.9680 O.2   1341  MU21341    -0.2715
     25  C24       27.5980   63.1930   20.7790 C.3   1341  MU21341     0.1163
     26  C25       28.7020   62.3920   21.4360 C.3   1341  MU21341     0.0430
     27  C26       28.1300   61.5710   22.5890 C.3   1341  MU21341     0.1750
     28  C27       29.2690   60.9950   23.4410 C.2   1341  MU21341     0.2806
     29  N20       29.8820   61.8060   24.1550 N.am  1341  MU21341    -0.0863
     30  O21       29.5250   59.7690   23.3920 O.2   1341  MU21341    -0.2698
     31  C28       28.0470   64.0320   19.6240 C.2   1341  MU21341     0.3649
     32  O22       27.4130   63.9040   18.5570 O.co2 1341  MU21341    -0.2457
     33  O23       29.0200   64.8160   19.7660 O.co2 1341  MU21341    -0.2457
     34  N5        27.1960   60.5540   22.1250 N.am  1341  MU21341    -0.1963
@<TRIPOS>BOND
     1    32    31   ar
     2    31    33   ar
     3    31    25    1
     4    25    26    1
     5    22    21    1
     6    26    27    1
     7    34    27    1
     8    34    23   am
     9    21    23    1
    10    21    20    1
    11    27    28    1
    12    23    24    2
    13    20    18   am
    14    30    28    2
    15    28    29   am
    16    18    19    2
    17    18    16    1
    18    16    17    1
    19    16     9    1
    20     9     8    1
    21    11    10    1
    22     8    10    1
    23     8     3    1
    24     7     5    1
    25     2     1    1
    26     4     5   am
    27     4     3    1
    28    10    12    1
    29     5     6    2
    30     3     1    1
    31    12    14    1
    32    12    13    1
    33     1    13    1
    34    14    15    1
