@<TRIPOS>MOLECULE
2ixv_MU2_A_1.pdb
 34 34 0 0 0
SMALL
GASTEIGER

@<TRIPOS>ATOM
      1  C1        23.9340   61.0430   27.6520 C.3   341  MU2341      0.2916
      2  O1        24.0330   61.8820   26.5070 O.3   341  MU2341     -0.1879
      3  C2        24.2180   59.5810   27.2740 C.3   341  MU2341      0.1839
      4  N2        25.5660   59.4830   26.6920 N.am  341  MU2341     -0.1993
      5  C7        26.4270   58.5080   26.9990 C.2   341  MU2341      0.2420
      6  O7        26.1730   57.5990   27.7920 O.2   341  MU2341     -0.2733
      7  C8        27.7910   58.5520   26.3020 C.3   341  MU2341      0.0964
      8  C3        23.1390   59.1000   26.2950 C.3   341  MU2341      0.1734
      9  O3        23.3910   57.7010   25.9520 O.3   341  MU2341     -0.3449
     10  C4        21.7630   59.2580   26.9300 C.3   341  MU2341      0.2103
     11  O4        20.7500   58.8320   26.0030 O.3   341  MU2341     -0.2178
     12  C5        21.5430   60.7180   27.2870 C.3   341  MU2341      0.1834
     13  O5        22.6010   61.1690   28.2080 O.3   341  MU2341     -0.3242
     14  C6        20.1910   60.9190   27.9730 C.3   341  MU2341      0.2142
     15  O6        19.9930   62.2880   28.3220 O.3   341  MU2341     -0.2176
     16  C18       23.4210   57.0270   24.6670 C.3   341  MU2341      0.1926
     17  C20       23.3800   55.5050   24.8390 C.3   341  MU2341      0.0421
     18  C19       24.5360   57.5460   23.8350 C.2   341  MU2341      0.2689
     19  O18       25.7070   57.1540   23.9890 O.2   341  MU2341     -0.2707
     20  N4        24.1250   58.4580   22.9460 N.am  341  MU2341     -0.1957
     21  C21       24.9920   59.1320   21.9840 C.3   341  MU2341      0.1729
     22  C23       24.1560   59.8630   20.9320 C.3   341  MU2341      0.0334
     23  C22       25.9480   60.1240   22.6320 C.2   341  MU2341      0.2617
     24  O19       25.6750   60.6320   23.7340 O.2   341  MU2341     -0.2715
     25  N5        27.0340   60.4270   21.9050 N.am  341  MU2341     -0.1941
     26  C24       27.9950   61.4260   22.3510 C.3   341  MU2341      0.1983
     27  C25       28.4540   62.3450   21.2070 C.3   341  MU2341      0.0429
     28  C26       27.2560   63.0100   20.5480 C.3   341  MU2341      0.0909
     29  C27       27.5920   63.9260   19.4090 C.2   341  MU2341      0.2608
     30  N20       28.4160   64.8520   19.5840 N.am  341  MU2341     -0.0878
     31  O21       27.0200   63.7120   18.3210 O.2   341  MU2341     -0.2717
     32  C28       29.1980   60.7780   23.0370 C.2   341  MU2341      0.3842
     33  O22       29.7550   59.8000   22.4970 O.co2 341  MU2341     -0.2437
     34  O23       29.5530   61.2680   24.1120 O.co2 341  MU2341     -0.2437
@<TRIPOS>BOND
     1    31    29    2
     2    29    30   am
     3    29    28    1
     4    28    27    1
     5    22    21    1
     6    27    26    1
     7    25    26    1
     8    25    23   am
     9    21    23    1
    10    21    20    1
    11    26    32    1
    12    33    32   ar
    13    23    24    2
    14    20    18   am
    15    32    34   ar
    16    18    19    2
    17    18    16    1
    18    16    17    1
    19    16     9    1
    20     9     8    1
    21    11    10    1
    22     8    10    1
    23     8     3    1
    24     7     5    1
    25     2     1    1
    26     4     5   am
    27     4     3    1
    28    10    12    1
    29     5     6    2
    30     3     1    1
    31    12    14    1
    32    12    13    1
    33     1    13    1
    34    14    15    1
