@<TRIPOS>MOLECULE
2iy5_FYA_A_1.pdb
 33 36 0 0 0
SMALL
GASTEIGER

@<TRIPOS>ATOM
      1  C         17.8200   63.1340   18.8110 C.3   1351  FYA1351     0.1683
      2  CA        19.3180   63.3250   18.8000 C.3   1351  FYA1351     0.1261
      3  N         19.9670   62.2040   19.4270 N.3   1351  FYA1351    -0.1299
      4  CB        19.7390   63.4850   17.3190 C.3   1351  FYA1351     0.0479
      5  CG        20.9340   64.3150   17.0520 C.ar  1351  FYA1351    -0.0206
      6  CD1       20.8470   65.7460   16.9110 C.ar  1351  FYA1351    -0.0042
      7  CD2       22.2340   63.7190   16.9270 C.ar  1351  FYA1351    -0.0042
      8  CE1       22.0160   66.5320   16.6620 C.ar  1351  FYA1351    -0.0003
      9  CE2       23.3970   64.5110   16.6790 C.ar  1351  FYA1351    -0.0003
     10  CZ        23.3010   65.9220   16.5440 C.ar  1351  FYA1351    -0.0000
     11  P         15.4950   63.6910   18.3510 P.3   1351  FYA1351     0.2141
     12  O1P       14.6360   64.7210   17.7900 O.2   1351  FYA1351    -0.5172
     13  O2P       15.1430   63.3120   19.7280 O.3   1351  FYA1351    -0.4373
     14  O3P       17.0160   64.1900   18.2190 O.3   1351  FYA1351    -0.3125
     15  O5'       15.4170   62.4310   17.3430 O.3   1351  FYA1351    -0.3114
     16  C5'       15.7890   62.5970   15.9490 C.3   1351  FYA1351     0.1813
     17  C4'       14.7290   62.0400   14.9700 C.3   1351  FYA1351     0.1821
     18  O4'       14.0640   60.8790   15.5640 O.3   1351  FYA1351    -0.3135
     19  C3'       13.6140   62.9880   14.6550 C.3   1351  FYA1351     0.2184
     20  O3'       14.0020   63.9510   13.6890 O.3   1351  FYA1351    -0.2174
     21  C2'       12.4530   62.0890   14.2540 C.3   1351  FYA1351     0.2570
     22  O2'       12.2230   62.0610   12.8540 O.3   1351  FYA1351    -0.2130
     23  C1'       12.7990   60.7250   14.8930 C.3   1351  FYA1351     0.3186
     24  N9        11.8300   60.2670   15.9620 N.pl3 1351  FYA1351    -0.1439
     25  C8        11.7560   60.7110   17.2860 C.3   1351  FYA1351     0.3377
     26  N7        10.8310   60.1800   18.0310 N.2   1351  FYA1351    -0.2095
     27  C5        10.2150   59.2840   17.1520 C.2   1351  FYA1351     0.2526
     28  C6         9.0800   58.3530   17.2660 C.2   1351  FYA1351     0.4393
     29  N6         8.4090   58.2000   18.4390 N.pl3 1351  FYA1351     0.2180
     30  N1         8.7110   57.5900   16.1510 N.2   1351  FYA1351     0.0021
     31  C2         9.4030   57.7510   14.9640 C.3   1351  FYA1351     0.5254
     32  N3        10.4610   58.5890   14.7370 N.2   1351  FYA1351    -0.0055
     33  C4        10.7920   59.3320   15.8620 C.2   1351  FYA1351     0.3518
@<TRIPOS>BOND
     1    22    21    1
     2    20    19    1
     3    21    19    1
     4    21    23    1
     5    19    17    1
     6    32    31    1
     7    32    33    2
     8    23    18    1
     9    23    24    1
    10    31    30    1
    11    17    18    1
    12    17    16    1
    13    33    24    1
    14    33    27    1
    15    16    15    1
    16    24    25    1
    17    30    28    2
    18    10     8   ar
    19    10     9   ar
    20     8     6   ar
    21     9     7   ar
    22     6     5   ar
    23     7     5   ar
    24     5     4    1
    25    27    28    1
    26    27    26    2
    27    28    29    1
    28    25    26    1
    29     4     2    1
    30    15    11    1
    31    12    11    2
    32    14    11    1
    33    14     1    1
    34    11    13    1
    35     2     1    1
    36     2     3    1
