@<TRIPOS>MOLECULE
2iy6_FLC_A_1.pdb
 13 12 0 0 0
SMALL
GASTEIGER

@<TRIPOS>ATOM
      1  CAC       27.2620   35.4760   89.3900 C.2   1517  FLC1517     0.3680
      2  CA        25.7690   35.4490   89.1310 C.3   1517  FLC1517     0.1560
      3  CB        25.0080   36.6050   89.7650 C.3   1517  FLC1517     0.2402
      4  CBC       25.7390   37.8900   89.4640 C.2   1517  FLC1517     0.3927
      5  CG        23.5770   36.5510   89.1940 C.3   1517  FLC1517     0.1560
      6  CGC       22.5630   37.5560   89.6980 C.2   1517  FLC1517     0.3680
      7  OA1       28.0220   35.4570   88.4020 O.co2 1517  FLC1517    -0.2455
      8  OA2       27.6580   35.4960   90.5740 O.co2 1517  FLC1517    -0.2455
      9  OB1       25.7140   38.3470   88.3070 O.co2 1517  FLC1517    -0.2429
     10  OB2       26.3740   38.4480   90.3940 O.co2 1517  FLC1517    -0.2429
     11  OG1       21.3440   37.2470   89.7320 O.co2 1517  FLC1517    -0.2455
     12  OG2       22.9560   38.6690   90.0560 O.co2 1517  FLC1517    -0.2455
     13  OHB       25.0080   36.4190   91.1940 O.3   1517  FLC1517    -0.2129
@<TRIPOS>BOND
     1     9     4   ar
     2     7     1   ar
     3     2     1    1
     4     2     3    1
     5     5     6    1
     6     5     3    1
     7     1     8   ar
     8     4     3    1
     9     4    10   ar
    10     6    11   ar
    11     6    12   ar
    12     3    13    1
