@<TRIPOS>MOLECULE
2iy7_CSF_A_1.pdb
 42 44 0 0 0
SMALL
GASTEIGER

@<TRIPOS>ATOM
      1  C5A       46.8720   16.6360   10.7630 C.3   1414  CSF1414     0.1582
      2  C4A       47.4400   15.5750   11.7210 C.3   1414  CSF1414     0.2121
      3  C2A       49.4590   15.5960   10.3290 C.3   1414  CSF1414     0.3216
      4  O6A       49.0690   16.6770    9.5410 O.3   1414  CSF1414    -0.3217
      5  C6A       47.8560   17.3110   10.1210 C.3   1414  CSF1414     0.1735
      6  C3A       48.4480   14.6390   10.9420 C.3   1414  CSF1414     0.2551
      7  O4A       46.3920   14.8000   12.3400 O.3   1414  CSF1414    -0.2181
      8  N5A       46.0110   17.5570   11.4570 N.am  1414  CSF1414    -0.2019
      9  C7A       47.7350   18.5890    9.2340 C.3   1414  CSF1414     0.2135
     10  C8A       48.6030   19.3050    8.4160 C.3   1414  CSF1414     0.2173
     11  C9A       47.8660   20.6870    8.1910 C.3   1414  CSF1414     0.2175
     12  O9A       47.4950   20.5080    6.8060 O.3   1414  CSF1414    -0.2175
     13  O8A       49.6440   19.6340    9.4740 O.3   1414  CSF1414    -0.2175
     14  O7A       46.6260   17.9350    8.2360 O.3   1414  CSF1414    -0.2176
     15  C1A       50.4220   14.6980    9.4570 C.2   1414  CSF1414     0.4183
     16  OBA       50.5520   14.9780    8.2670 O.co2 1414  CSF1414    -0.2401
     17  OAA       50.9830   13.6880    9.9610 O.co2 1414  CSF1414    -0.2401
     18  O1A       50.3300   16.0110   11.2810 O.3   1414  CSF1414    -0.2813
     19  O2A       51.3450   17.9510   10.2750 O.2   1414  CSF1414    -0.5171
     20  N1        56.4990   16.8020   11.5840 N.am  1414  CSF1414    -0.1778
     21  C2        57.7610   17.1620   11.5960 C.1   1414  CSF1414     0.2756
     22  N3        58.1110   18.4370   11.1350 N.2   1414  CSF1414    -0.3024
     23  C4        57.2010   19.3160   10.7830 C.2   1414  CSF1414     0.2346
     24  C5        56.0450   18.8400   10.8810 C.2   1414  CSF1414     0.0687
     25  C6        55.7640   17.7140   11.2690 C.2   1414  CSF1414     0.0836
     26  C3'       54.5760   15.5070   13.9590 C.3   1414  CSF1414     0.2158
     27  C2'       56.0820   15.3650   13.4730 C.3   1414  CSF1414     0.2319
     28  C1'       56.0420   15.4570   11.9770 C.3   1414  CSF1414     0.2400
     29  O4'       54.7400   15.1050   11.5520 O.3   1414  CSF1414    -0.3320
     30  C4'       53.9810   15.1680   12.5070 C.3   1414  CSF1414     0.1799
     31  PA        51.1700   17.3310   11.8410 P.3   1414  CSF1414     0.2163
     32  O5'       52.6000   16.8050   11.7730 O.3   1414  CSF1414    -0.3113
     33  C5'       52.3860   15.4930   12.8960 C.3   1414  CSF1414     0.1813
     34  O3'       54.2100   15.0230   15.0180 O.3   1414  CSF1414    -0.2175
     35  O2'       56.3500   13.9820   13.8380 O.3   1414  CSF1414    -0.2157
     36  N4        57.4740   20.5500   10.2770 N.pl3 1414  CSF1414    -0.0921
     37  O2        58.6200   16.3760   11.8850 O.2   1414  CSF1414    -0.1925
     38  O3A       50.5410   18.2560   12.6960 O.3   1414  CSF1414    -0.4372
     39  C10       44.9050   18.0690   10.9230 C.2   1414  CSF1414     0.2420
     40  O10       44.5380   17.7930    9.8030 O.2   1414  CSF1414    -0.2733
     41  C11       44.1360   19.0190   11.7780 C.3   1414  CSF1414     0.0964
     42  F3A       47.7990   13.9720    9.9530 F     1414  CSF1414    -0.2285
@<TRIPOS>BOND
     1    12    11    1
     2    11    10    1
     3    14     9    1
     4    16    15   ar
     5    10     9    1
     6    10    13    1
     7     9     5    1
     8    15    17   ar
     9    15     3    1
    10     4     5    1
    11     4     3    1
    12    40    39    2
    13    42     6    1
    14     5     1    1
    15    19    31    2
    16    36    23    1
    17     3     6    1
    18     3    18    1
    19     1     8    1
    20     1     2    1
    21    23    24    1
    22    23    22    2
    23    24    25    2
    24    39     8   am
    25    39    41    1
    26     6     2    1
    27    22    21    2
    28    25    20    1
    29    18    31    1
    30    29    28    1
    31    29    30    1
    32    20    21   am
    33    20    28    1
    34    21    37    2
    35     2     7    1
    36    32    31    1
    37    32    33    1
    38    31    38    1
    39    28    27    1
    40    30    33    1
    41    30    26    1
    42    27    35    1
    43    27    26    1
    44    26    34    1
