@<TRIPOS>MOLECULE
2iy8_CSF_A_1.pdb
 42 44 0 0 0
SMALL
GASTEIGER

@<TRIPOS>ATOM
      1  C5A       15.2270   15.9310   42.0300 C.3   1415  CSF1415     0.1582
      2  C4A       15.6950   17.1010   41.2020 C.3   1415  CSF1415     0.2121
      3  C2A       17.8430   17.0240   42.5440 C.3   1415  CSF1415     0.3216
      4  O6A       17.2890   15.9680   43.2710 O.3   1415  CSF1415    -0.3217
      5  C6A       16.3280   15.1330   42.6780 C.3   1415  CSF1415     0.1735
      6  C3A       16.6830   17.8880   42.0850 C.3   1415  CSF1415     0.2551
      7  O4A       14.7190   17.9280   40.6440 O.3   1415  CSF1415    -0.2181
      8  N5A       14.2860   15.0650   41.4370 N.am  1415  CSF1415    -0.2019
      9  C7A       15.7490   14.2460   43.7860 C.3   1415  CSF1415     0.2135
     10  C8A       16.7100   13.5370   44.7010 C.3   1415  CSF1415     0.2173
     11  C9A       16.2680   12.0810   44.9240 C.3   1415  CSF1415     0.2175
     12  O9A       15.3700   11.9030   46.0010 O.3   1415  CSF1415    -0.2175
     13  O8A       17.8310   13.3580   43.8870 O.3   1415  CSF1415    -0.2175
     14  O7A       15.3960   13.1080   43.0750 O.3   1415  CSF1415    -0.2176
     15  C1A       18.6560   17.7780   43.5230 C.2   1415  CSF1415     0.4183
     16  OBA       19.2100   18.8140   43.1960 O.co2 1415  CSF1415    -0.2401
     17  OAA       18.7630   17.2680   44.6540 O.co2 1415  CSF1415    -0.2401
     18  O1A       18.7760   16.6770   41.5340 O.3   1415  CSF1415    -0.2813
     19  O2A       20.0210   14.5400   42.2120 O.3   1415  CSF1415    -0.4372
     20  N1        24.7450   15.9330   41.4100 N.am  1415  CSF1415    -0.1778
     21  C2        26.0970   15.5320   41.4210 C.1   1415  CSF1415     0.2756
     22  N3        26.4450   14.2970   41.8650 N.2   1415  CSF1415    -0.3024
     23  C4        25.5210   13.4240   42.3210 C.2   1415  CSF1415     0.2346
     24  C5        24.1650   13.7870   42.3380 C.2   1415  CSF1415     0.0687
     25  C6        23.8170   15.0260   41.8930 C.2   1415  CSF1415     0.0836
     26  C3'       23.2150   17.0480   39.1280 C.3   1415  CSF1415     0.2158
     27  C2'       24.5550   17.4550   39.6300 C.3   1415  CSF1415     0.2319
     28  C1'       24.3640   17.3220   41.1110 C.3   1415  CSF1415     0.2400
     29  O4'       23.0620   17.7420   41.3030 O.3   1415  CSF1415    -0.3320
     30  C4'       22.3700   17.8090   40.1040 C.3   1415  CSF1415     0.1799
     31  PA        19.6520   15.4210   41.2290 P.3   1415  CSF1415     0.2163
     32  O5'       20.9110   15.9520   40.5860 O.3   1415  CSF1415    -0.3113
     33  C5'       20.9790   17.2990   40.2700 C.3   1415  CSF1415     0.1813
     34  O3'       23.0150   17.2320   37.7650 O.3   1415  CSF1415    -0.2175
     35  O2'       24.7710   18.7890   39.3500 O.3   1415  CSF1415    -0.2157
     36  N4        25.5770   12.2600   42.6060 N.pl3 1415  CSF1415    -0.0921
     37  O2        26.9090   16.1470   41.1440 O.2   1415  CSF1415    -0.1925
     38  O3A       18.9380   14.7700   40.2270 O.2   1415  CSF1415    -0.5171
     39  C10       13.0620   14.7820   41.8020 C.2   1415  CSF1415     0.2420
     40  O10       12.5290   15.1910   42.7310 O.2   1415  CSF1415    -0.2733
     41  C11       12.2830   13.8460   40.9890 C.3   1415  CSF1415     0.0964
     42  F3A       16.0780   18.3250   43.2210 F     1415  CSF1415    -0.2285
@<TRIPOS>BOND
     1    34    26    1
     2    26    27    1
     3    26    30    1
     4    35    27    1
     5    27    28    1
     6    30    33    1
     7    30    29    1
     8    38    31    2
     9    33    32    1
    10    32    31    1
    11     7     2    1
    12    41    39    1
    13    28    29    1
    14    28    20    1
    15    37    21    2
    16     2     1    1
    17     2     6    1
    18    31    18    1
    19    31    19    1
    20    20    21   am
    21    20    25    1
    22    21    22    2
    23     8    39   am
    24     8     1    1
    25    18     3    1
    26    39    40    2
    27    22    23    2
    28    25    24    2
    29     1     5    1
    30     6     3    1
    31     6    42    1
    32    23    24    1
    33    23    36    1
    34     3     4    1
    35     3    15    1
    36     5     4    1
    37     5     9    1
    38    14     9    1
    39    16    15   ar
    40    15    17   ar
    41     9    10    1
    42    13    10    1
    43    10    11    1
    44    11    12    1
