@<TRIPOS>MOLECULE
2iy8_LAT_A_1.pdb
 23 24 0 0 0
SMALL
GASTEIGER

@<TRIPOS>ATOM
      1  C1        14.3160   19.5440   47.7710 C.3   1414  LAT1414     0.2695
      2  C2        13.4280   19.7980   46.5620 C.3   1414  LAT1414     0.2406
      3  C3        14.3040   19.8460   45.2750 C.3   1414  LAT1414     0.2198
      4  C4        15.3800   20.9770   45.4520 C.3   1414  LAT1414     0.2144
      5  C5        16.2100   20.6940   46.7470 C.3   1414  LAT1414     0.1835
      6  C6        17.1120   21.6940   46.9240 C.3   1414  LAT1414     0.2142
      7  O1        13.4770   19.5330   48.8990 O.3   1414  LAT1414    -0.3257
      8  O2        12.4150   18.7940   46.4340 O.3   1414  LAT1414    -0.2149
      9  O3        13.5170   20.0430   44.1110 O.3   1414  LAT1414    -0.2174
     10  O4        14.8250   22.3220   45.4950 O.3   1414  LAT1414    -0.2176
     11  O5        15.3150   20.5930   47.9100 O.3   1414  LAT1414    -0.3256
     12  O6        17.8820   21.4640   48.0540 O.3   1414  LAT1414    -0.2176
     13  C1'       13.7790   18.7820   53.0660 C.3   1414  LAT1414     0.3023
     14  C2'       15.1300   19.1890   52.3530 C.3   1414  LAT1414     0.2433
     15  C3'       14.7370   19.9000   51.0120 C.3   1414  LAT1414     0.2168
     16  C4'       13.8700   18.9250   50.1390 C.3   1414  LAT1414     0.1804
     17  C5'       12.5770   18.5440   50.9010 C.3   1414  LAT1414     0.1804
     18  C6'       11.6910   17.6010   50.0800 C.3   1414  LAT1414     0.2141
     19  O1'       14.0350   18.1240   54.2580 O.3   1414  LAT1414    -0.1869
     20  O2'       15.9390   20.0540   53.1710 O.3   1414  LAT1414    -0.2148
     21  O3'       15.9050   20.2990   50.3550 O.3   1414  LAT1414    -0.2175
     22  O5'       12.9190   17.9090   52.2090 O.3   1414  LAT1414    -0.3237
     23  O6'       10.6310   17.0820   50.8440 O.3   1414  LAT1414    -0.2176
@<TRIPOS>BOND
     1     9     3    1
     2     3     4    1
     3     3     2    1
     4     4    10    1
     5     4     5    1
     6     8     2    1
     7     2     1    1
     8     5     6    1
     9     5    11    1
    10     6    12    1
    11     1    11    1
    12     1     7    1
    13     7    16    1
    14    18    23    1
    15    18    17    1
    16    16    17    1
    17    16    15    1
    18    21    15    1
    19    17    22    1
    20    15    14    1
    21    22    13    1
    22    14    13    1
    23    14    20    1
    24    13    19    1
