@<TRIPOS>MOLECULE
2iya_ZIO_A_1.pdb
 48 51 0 0 0
SMALL
GASTEIGER

@<TRIPOS>ATOM
      1  C10       42.6870   53.6660   28.6380 C.3   1425  ZIO1425     0.0634
      2  C11       43.6820   53.4270   29.7960 C.3   1425  ZIO1425     0.1579
      3  C12       43.2380   53.5750   31.2940 C.3   1425  ZIO1425     0.0706
      4  C13       44.4320   53.2270   32.2240 C.3   1425  ZIO1425     0.1713
      5  O2        44.7330   51.8460   32.0230 O.3   1425  ZIO1425    -0.4521
      6  C2        45.9600   49.9730   30.8840 C.3   1425  ZIO1425     0.1263
      7  C3        46.0900   49.9060   29.3270 C.3   1425  ZIO1425     0.1305
      8  C4        45.3040   48.7320   28.6640 C.3   1425  ZIO1425     0.0551
      9  C5        45.2460   48.8240   27.0970 C.3   1425  ZIO1425     0.1201
     10  C6        44.6660   50.1550   26.5240 C.3   1425  ZIO1425     0.0299
     11  C7        43.1490   50.1490   26.8150 C.3   1425  ZIO1425     0.0347
     12  C8        42.3820   51.4290   27.1820 C.3   1425  ZIO1425     0.1480
     13  C9        43.0950   52.7530   27.4730 C.3   1425  ZIO1425     0.1813
     14  O11       44.1680   53.1680   26.6670 O.3   1425  ZIO1425    -0.2205
     15  C1        45.8580   51.4510   31.2920 C.2   1425  ZIO1425     0.3187
     16  O1        46.8060   52.3860   30.8540 O.2   1425  ZIO1425    -0.2500
     17  O3        47.4520   49.8680   28.9350 O.3   1425  ZIO1425    -0.3323
     18  O7        44.3930   47.7850   26.6280 O.3   1425  ZIO1425    -0.3310
     19  C34       42.4870   55.1200   28.1760 C.3   1425  ZIO1425     0.0053
     20  C33       41.1300   51.6270   26.3130 C.3   1425  ZIO1425     0.1716
     21  C35       42.0260   52.6980   31.6640 C.3   1425  ZIO1425     0.0063
     22  O12       44.8970   54.1090   29.5320 O.3   1425  ZIO1425    -0.2229
     23  C36       44.1740   53.4520   33.7230 C.3   1425  ZIO1425     0.0474
     24  C30       47.0900   49.3170   31.6980 C.3   1425  ZIO1425     0.0142
     25  C32       44.9140   50.3590   25.0140 C.3   1425  ZIO1425     0.0026
     26  C22       45.0890   46.7780   25.8990 C.3   1425  ZIO1425     0.2679
     27  C23       44.1510   45.5740   25.8040 C.3   1425  ZIO1425     0.2224
     28  C24       44.7330   44.5040   24.8530 C.3   1425  ZIO1425     0.0957
     29  C25       45.1760   45.1130   23.5100 C.3   1425  ZIO1425     0.0483
     30  C26       46.1330   46.2800   23.7900 C.3   1425  ZIO1425     0.1194
     31  O9        45.4700   47.2390   24.6130 O.3   1425  ZIO1425    -0.3311
     32  N1        43.8410   43.3430   24.7200 N.3   1425  ZIO1425    -0.2691
     33  C27       46.5430   47.0300   22.5160 C.3   1425  ZIO1425     0.0322
     34  O8        43.9330   44.9960   27.0810 O.3   1425  ZIO1425    -0.2163
     35  C28       44.4730   42.2100   24.0110 C.3   1425  ZIO1425     0.0897
     36  C14       47.9700   50.8980   28.1100 C.3   1425  ZIO1425     0.2376
     37  C15       49.3420   51.3170   28.6930 C.3   1425  ZIO1425     0.0935
     38  C16       50.4170   50.2110   28.4950 C.3   1425  ZIO1425     0.1530
     39  C17       50.4260   49.7420   27.0250 C.3   1425  ZIO1425     0.2059
     40  C18       48.9900   49.4070   26.5510 C.3   1425  ZIO1425     0.1505
     41  O4        48.0750   50.4880   26.7490 O.3   1425  ZIO1425    -0.3302
     42  O5        51.7300   50.6660   28.8680 O.3   1425  ZIO1425    -0.3507
     43  O6        51.2020   48.5520   26.8960 O.3   1425  ZIO1425    -0.2179
     44  O10       41.0560   51.2950   27.6760 O.3   1425  ZIO1425    -0.3510
     45  C20       51.8720   50.7870   30.2860 C.3   1425  ZIO1425     0.1741
     46  C29       42.4400   43.5830   24.3340 C.3   1425  ZIO1425     0.0897
     47  C21       48.9150   49.0360   25.0570 C.3   1425  ZIO1425     0.0349
     48  C31       45.7910   47.3630   29.1910 C.3   1425  ZIO1425     0.0050
@<TRIPOS>BOND
     1    33    30    1
     2    29    30    1
     3    29    28    1
     4    30    31    1
     5    35    32    1
     6    46    32    1
     7    31    26    1
     8    32    28    1
     9    28    27    1
    10    25    10    1
    11    47    40    1
    12    27    26    1
    13    27    34    1
    14    26    18    1
    15    20    12    1
    16    20    44    1
    17    10    11    1
    18    10     9    1
    19    40    41    1
    20    40    39    1
    21    18     9    1
    22    14    13    1
    23    41    36    1
    24    11    12    1
    25    43    39    1
    26    39    38    1
    27     9     8    1
    28    12    13    1
    29    12    44    1
    30    13     1    1
    31    36    37    1
    32    36    17    1
    33    19     1    1
    34    38    37    1
    35    38    42    1
    36     1     2    1
    37     8    48    1
    38     8     7    1
    39    42    45    1
    40    17     7    1
    41     7     6    1
    42    22     2    1
    43     2     3    1
    44    16    15    2
    45     6    15    1
    46     6    24    1
    47    15     5    1
    48     3    21    1
    49     3     4    1
    50     5     4    1
    51     4    23    1
