@<TRIPOS>MOLECULE
2iya_UDP_A_1.pdb
 25 26 0 0 0
SMALL
GASTEIGER

@<TRIPOS>ATOM
      1  N1        43.4410   31.6720   28.5650 N.am  1424  UDP1424    -0.1766
      2  C2        42.8820   30.4000   28.5090 C.1   1424  UDP1424     0.2845
      3  N3        43.4780   29.4290   27.7240 N.2   1424  UDP1424    -0.2452
      4  C4        44.6270   29.6960   27.0090 C.1   1424  UDP1424     0.2182
      5  C5        45.2090   30.9770   27.0640 C.2   1424  UDP1424     0.1242
      6  C6        44.5950   31.9440   27.8630 C.2   1424  UDP1424     0.0929
      7  O2        41.8560   30.1250   29.1220 O.2   1424  UDP1424    -0.1918
      8  O4        45.1240   28.8000   26.3270 O.2   1424  UDP1424    -0.2085
      9  C1'       42.7890   32.6940   29.4090 C.3   1424  UDP1424     0.2401
     10  C2'       43.5160   32.8730   30.7400 C.3   1424  UDP1424     0.2319
     11  O2'       43.1070   31.9040   31.6830 O.3   1424  UDP1424    -0.2157
     12  C3'       43.1770   34.3130   31.1210 C.3   1424  UDP1424     0.2158
     13  C4'       42.9800   34.9860   29.7560 C.3   1424  UDP1424     0.1799
     14  O4'       42.8240   33.9610   28.7850 O.3   1424  UDP1424    -0.3320
     15  O3'       41.9570   34.3960   31.8390 O.3   1424  UDP1424    -0.2175
     16  C5'       44.1440   35.8660   29.2880 C.3   1424  UDP1424     0.1813
     17  O5'       44.0500   37.1010   29.9770 O.3   1424  UDP1424    -0.3111
     18  PA        45.3510   37.9450   30.3510 P.3   1424  UDP1424     0.2231
     19  O1A       44.8940   39.0630   31.1810 O.3   1424  UDP1424    -0.4370
     20  O2A       46.4070   37.1330   31.0110 O.2   1424  UDP1424    -0.5169
     21  O3A       46.1300   38.2910   29.0050 O.3   1424  UDP1424    -0.2261
     22  PB        45.6310   38.9390   27.6370 P.3   1424  UDP1424     0.5373
     23  O1B       44.9460   37.8700   26.8760 O.2   1424  UDP1424    -0.2221
     24  O2B       46.8380   39.4270   26.9970 O.3   1424  UDP1424    -0.1143
     25  O3B       44.6870   40.0380   27.9660 O.3   1424  UDP1424    -0.1143
@<TRIPOS>BOND
     1     8     4    2
     2    23    22    2
     3    24    22    1
     4     4     5    1
     5     4     3    2
     6     5     6    2
     7    22    25    1
     8    22    21    1
     9     3     2    2
    10     6     1    1
    11     2     1   am
    12     2     7    2
    13     1     9    1
    14    14     9    1
    15    14    13    1
    16    21    18    1
    17    16    13    1
    18    16    17    1
    19     9    10    1
    20    13    12    1
    21    17    18    1
    22    18    20    2
    23    18    19    1
    24    10    12    1
    25    10    11    1
    26    12    15    1
