@<TRIPOS>MOLECULE
2iyf_UDP_A_1.pdb
 25 26 0 0 0
SMALL
GASTEIGER

@<TRIPOS>ATOM
      1  N1        -5.1790    5.5980  -37.3300 N.am  1401  UDP1401    -0.1766
      2  C2        -4.9760    6.1600  -38.5820 C.1   1401  UDP1401     0.2845
      3  N3        -4.4740    7.4430  -38.6680 N.2   1401  UDP1401    -0.2452
      4  C4        -4.1930    8.1730  -37.5300 C.1   1401  UDP1401     0.2182
      5  C5        -4.4060    7.6120  -36.2750 C.2   1401  UDP1401     0.1242
      6  C6        -4.7600    6.2700  -36.2000 C.2   1401  UDP1401     0.0929
      7  O2        -5.2080    5.5440  -39.6150 O.2   1401  UDP1401    -0.1918
      8  O4        -3.7470    9.3220  -37.6390 O.2   1401  UDP1401    -0.2085
      9  C1'       -5.7170    4.2230  -37.2160 C.3   1401  UDP1401     0.2401
     10  C2'       -4.6090    3.2110  -36.9920 C.3   1401  UDP1401     0.2319
     11  O2'       -4.0790    2.8020  -38.2280 O.3   1401  UDP1401    -0.2157
     12  C3'       -5.3160    2.1120  -36.2210 C.3   1401  UDP1401     0.2158
     13  C4'       -6.3480    2.8920  -35.4110 C.3   1401  UDP1401     0.1799
     14  O4'       -6.5460    4.1260  -36.0740 O.3   1401  UDP1401    -0.3320
     15  O3'       -5.9830    1.2150  -37.0970 O.3   1401  UDP1401    -0.2175
     16  C5'       -5.8700    3.1560  -33.9920 C.3   1401  UDP1401     0.1813
     17  O5'       -6.1060    1.9690  -33.2610 O.3   1401  UDP1401    -0.3111
     18  PA        -5.1480    1.4980  -32.0610 P.3   1401  UDP1401     0.2231
     19  O1A       -5.6930    0.2360  -31.4760 O.3   1401  UDP1401    -0.4370
     20  O2A       -3.7580    1.3480  -32.5570 O.2   1401  UDP1401    -0.5169
     21  O3A       -5.0920    2.7100  -31.0040 O.3   1401  UDP1401    -0.2261
     22  PB        -6.2590    3.3340  -30.0770 P.3   1401  UDP1401     0.5373
     23  O1B       -6.6690    4.6110  -30.7270 O.2   1401  UDP1401    -0.2221
     24  O2B       -5.6430    3.5720  -28.7590 O.3   1401  UDP1401    -0.1143
     25  O3B       -7.4130    2.3990  -29.9670 O.3   1401  UDP1401    -0.1143
@<TRIPOS>BOND
     1     7     2    2
     2     3     2    2
     3     3     4    2
     4     2     1   am
     5    11    10    1
     6     8     4    2
     7     4     5    1
     8     1     9    1
     9     1     6    1
    10     9    10    1
    11     9    14    1
    12    15    12    1
    13    10    12    1
    14     5     6    2
    15    12    13    1
    16    14    13    1
    17    13    16    1
    18    16    17    1
    19    17    18    1
    20    20    18    2
    21    18    19    1
    22    18    21    1
    23    21    22    1
    24    23    22    2
    25    22    25    1
    26    22    24    1
