@<TRIPOS>MOLECULE
2iyg_FMN_A_1.pdb
 31 33 0 0 0
SMALL
GASTEIGER

@<TRIPOS>ATOM
      1  N1         0.5180   33.5830   -1.6090 N.2   1122  FMN1122    -0.2890
      2  C2         0.0840   34.7480   -2.2240 C.1   1122  FMN1122     0.3669
      3  O2        -1.0410   34.8170   -2.6920 O.2   1122  FMN1122    -0.1744
      4  N3         0.9130   35.8500   -2.3320 N.2   1122  FMN1122    -0.2300
      5  C4         2.1880   35.7780   -1.8220 C.1   1122  FMN1122     0.2513
      6  O4         2.8940   36.7700   -1.8780 O.2   1122  FMN1122    -0.2057
      7  C4A        2.6440   34.6080   -1.2130 C.2   1122  FMN1122     0.2700
      8  N5         3.9390   34.5390   -0.7210 N.2   1122  FMN1122    -0.3878
      9  C5A        4.4090   33.3910   -0.0970 C.2   1122  FMN1122     0.1320
     10  C6         5.7130   33.3530    0.3940 C.2   1122  FMN1122     0.0250
     11  C7         6.2000   32.1950    1.0000 C.2   1122  FMN1122    -0.0238
     12  C7M        7.6190   32.1580    1.5080 C.3   1122  FMN1122     0.0308
     13  C8         5.3680   31.0860    1.1290 C.2   1122  FMN1122    -0.0280
     14  C8M        5.8230   29.8760    1.8970 C.3   1122  FMN1122     0.0304
     15  C9         4.0710   31.1410    0.6400 C.2   1122  FMN1122    -0.0041
     16  C9A        3.5740   32.2830    0.0230 C.3   1122  FMN1122     0.1497
     17  N10        2.2720   32.3390   -0.5040 N.pl3 1122  FMN1122    -0.2691
     18  C10        1.8090   33.5000   -1.1150 C.2   1122  FMN1122     0.2416
     19  C1'        1.3850   31.1390   -0.4820 C.3   1122  FMN1122     0.1294
     20  C2'        0.3400   31.3010    0.6230 C.3   1122  FMN1122     0.2044
     21  O2'        0.9090   30.9680    1.8570 O.3   1122  FMN1122    -0.2185
     22  C3'       -0.8100   30.3180    0.4690 C.3   1122  FMN1122     0.2164
     23  O3'       -0.3130   29.1170   -0.0710 O.3   1122  FMN1122    -0.2175
     24  C4'       -1.9250   30.9060   -0.3790 C.3   1122  FMN1122     0.2147
     25  O4'       -2.9490   31.2840    0.5020 O.3   1122  FMN1122    -0.2176
     26  C5'       -2.5220   29.9090   -1.3640 C.3   1122  FMN1122     0.1892
     27  O5'       -1.5220   29.0320   -1.8690 O.3   1122  FMN1122    -0.2674
     28  P         -1.8610   27.4550   -1.9460 P.3   1122  FMN1122     0.5327
     29  O1P       -2.1810   27.0300   -0.5190 O.3   1122  FMN1122    -0.1145
     30  O2P       -3.0620   27.2650   -2.8600 O.2   1122  FMN1122    -0.2224
     31  O3P       -0.6630   26.6850   -2.4560 O.3   1122  FMN1122    -0.1145
@<TRIPOS>BOND
     1    30    28    2
     2     3     2    2
     3    31    28    1
     4     4     2    2
     5     4     5    2
     6     2     1    2
     7    28    27    1
     8    28    29    1
     9     6     5    2
    10    27    26    1
    11     5     7    1
    12     1    18    2
    13    26    24    1
    14     7    18    1
    15     7     8    2
    16    18    17    1
    17     8     9    2
    18    17    19    1
    19    17    16    1
    20    19    20    1
    21    24    22    1
    22    24    25    1
    23     9    16    1
    24     9    10    1
    25    23    22    1
    26    16    15    1
    27    10    11    2
    28    22    20    1
    29    20    21    1
    30    15    13    2
    31    11    13    1
    32    11    12    1
    33    13    14    1
