@<TRIPOS>MOLECULE
2iyi_FMN_A_1.pdb
 31 33 0 0 0
SMALL
GASTEIGER

@<TRIPOS>ATOM
      1  N1         0.1920   33.0720   -1.6820 N.2   1122  FMN1122    -0.2887
      2  C2        -0.2990   34.2030   -2.2880 C.1   1122  FMN1122     0.3669
      3  O2        -1.4410   34.1820   -2.7260 O.2   1122  FMN1122    -0.1744
      4  N3         0.4890   35.3360   -2.3860 N.2   1122  FMN1122    -0.2300
      5  C4         1.7850   35.3170   -1.8770 C.1   1122  FMN1122     0.2513
      6  O4         2.4040   36.3750   -1.7830 O.2   1122  FMN1122    -0.2057
      7  C4A        2.2850   34.1660   -1.2650 C.2   1122  FMN1122     0.2706
      8  N5         3.5680   34.1380   -0.7500 N.2   1122  FMN1122    -0.3841
      9  C5A        4.0380   32.9870   -0.1450 C.2   1122  FMN1122     0.1452
     10  C6         5.3330   32.9590    0.3690 C.2   1122  FMN1122     0.0252
     11  C7         5.8230   31.8100    0.9910 C.2   1122  FMN1122    -0.0375
     12  C7M        7.2280   31.7730    1.5230 C.3   1122  FMN1122     0.0268
     13  C8         5.0100   30.6760    1.0870 C.3   1122  FMN1122     0.0417
     14  C8M        5.4170   29.4990    1.9320 C.3   1122  FMN1122     0.0091
     15  C9         3.7150   30.7100    0.5650 C.2   1122  FMN1122    -0.0049
     16  C9A        3.2150   31.8560   -0.0530 C.2   1122  FMN1122     0.0795
     17  N10        1.9250   31.8770   -0.5720 N.pl3 1122  FMN1122    -0.2545
     18  C10        1.4710   33.0370   -1.1700 C.2   1122  FMN1122     0.2449
     19  C1'        1.0040   30.6820   -0.5180 C.3   1122  FMN1122     0.1336
     20  C2'        0.0310   30.8950    0.6430 C.3   1122  FMN1122     0.2048
     21  O2'        0.7040   30.5470    1.8290 O.3   1122  FMN1122    -0.2185
     22  C3'       -1.2870   30.1130    0.6160 C.3   1122  FMN1122     0.2165
     23  O3'       -0.9770   28.7450    0.6580 O.3   1122  FMN1122    -0.2175
     24  C4'       -2.2270   30.3000   -0.5780 C.3   1122  FMN1122     0.2147
     25  O4'       -2.4420   31.6370   -0.9910 O.3   1122  FMN1122    -0.2176
     26  C5'       -3.5720   29.6680   -0.2450 C.3   1122  FMN1122     0.1892
     27  O5'       -3.4670   28.2580   -0.3230 O.3   1122  FMN1122    -0.2674
     28  P         -2.9880   27.4570   -1.6700 P.3   1122  FMN1122     0.5327
     29  O1P       -3.5610   26.0460   -1.6490 O.3   1122  FMN1122    -0.1145
     30  O2P       -3.5650   28.1550   -2.8990 O.2   1122  FMN1122    -0.2224
     31  O3P       -1.4670   27.3440   -1.7600 O.3   1122  FMN1122    -0.1145
@<TRIPOS>BOND
     1    30    28    2
     2     3     2    2
     3     4     2    2
     4     4     5    2
     5     2     1    2
     6     5     6    2
     7     5     7    1
     8    31    28    1
     9     1    18    2
    10    28    29    1
    11    28    27    1
    12     7    18    1
    13     7     8    2
    14    18    17    1
    15    25    24    1
    16     8     9    2
    17    24    26    1
    18    24    22    1
    19    17    19    1
    20    17    16    1
    21    19    20    1
    22    27    26    1
    23     9    16    1
    24     9    10    1
    25    16    15    2
    26    10    11    2
    27    15    13    1
    28    22    20    1
    29    22    23    1
    30    20    21    1
    31    11    13    1
    32    11    12    1
    33    13    14    1
