@<TRIPOS>MOLECULE
2iyl_GDP_D_1.pdb
 28 30 0 0 0
SMALL
GASTEIGER

@<TRIPOS>ATOM
      1  PB        23.8070   49.0260   26.2970 P.3   1001  GDP1001     0.5373
      2  O1B       24.9440   49.6840   25.5700 O.3   1001  GDP1001    -0.1143
      3  O2B       22.9900   50.0110   27.0630 O.3   1001  GDP1001    -0.1143
      4  O3B       22.9600   48.1400   25.4370 O.2   1001  GDP1001    -0.2221
      5  O3A       24.4370   47.9930   27.3470 O.3   1001  GDP1001    -0.2261
      6  PA        25.8060   48.0240   28.1880 P.3   1001  GDP1001     0.2231
      7  O1A       25.8350   49.2300   29.0910 O.3   1001  GDP1001    -0.4370
      8  O2A       26.9980   47.7630   27.3190 O.2   1001  GDP1001    -0.5169
      9  O5'       25.5100   46.7020   29.0500 O.3   1001  GDP1001    -0.3111
     10  C5'       24.3490   46.5590   29.8710 C.3   1001  GDP1001     0.1813
     11  C4'       24.6980   45.5230   30.9260 C.3   1001  GDP1001     0.1799
     12  O4'       24.5770   44.2160   30.3660 O.3   1001  GDP1001    -0.3326
     13  C3'       26.1460   45.6560   31.3830 C.3   1001  GDP1001     0.2158
     14  O3'       26.1030   45.5700   32.8090 O.3   1001  GDP1001    -0.2175
     15  C2'       26.8530   44.4250   30.8350 C.3   1001  GDP1001     0.2310
     16  O2'       27.8130   43.9130   31.7670 O.3   1001  GDP1001    -0.2158
     17  C1'       25.7100   43.4360   30.7160 C.3   1001  GDP1001     0.2293
     18  N9        25.9180   42.4300   29.6600 N.pl3 1001  GDP1001    -0.2354
     19  C8        26.0520   42.6550   28.3350 C.3   1001  GDP1001     0.2246
     20  N7        26.2100   41.4850   27.6820 N.2   1001  GDP1001    -0.2322
     21  C5        26.1870   40.4930   28.5810 C.2   1001  GDP1001     0.2182
     22  C6        26.3090   39.0150   28.5650 C.1   1001  GDP1001     0.2372
     23  O6        26.4630   38.4100   27.4890 O.2   1001  GDP1001    -0.2069
     24  N1        26.2340   38.3540   29.7450 N.2   1001  GDP1001    -0.2485
     25  C2        26.0540   39.0060   30.9190 C.1   1001  GDP1001     0.2531
     26  N2        25.9960   38.2860   32.0640 N.pl3 1001  GDP1001    -0.0226
     27  N3        25.9400   40.3490   31.0020 N.2   1001  GDP1001    -0.3074
     28  C4        25.9980   41.1190   29.8990 C.2   1001  GDP1001     0.2300
@<TRIPOS>BOND
     1     4     1    2
     2     2     1    1
     3     1     3    1
     4     1     5    1
     5     8     6    2
     6     5     6    1
     7    23    22    2
     8    20    19    1
     9    20    21    2
    10     6     9    1
    11     6     7    1
    12    19    18    1
    13    22    21    1
    14    22    24    2
    15    21    28    1
    16     9    10    1
    17    18    28    1
    18    18    17    1
    19    24    25    2
    20    10    11    1
    21    28    27    2
    22    12    17    1
    23    12    11    1
    24    17    15    1
    25    15    13    1
    26    15    16    1
    27    25    27    2
    28    25    26    1
    29    11    13    1
    30    13    14    1
