@<TRIPOS>MOLECULE
2iyo_6PG_A_1.pdb
 17 16 0 0 0
SMALL
GASTEIGER

@<TRIPOS>ATOM
      1  C1        42.5120   18.2710   20.5620 C.2   1471  6PG1471     0.3973
      2  C2        43.0140   19.0210   21.7960 C.3   1471  6PG1471     0.2865
      3  C3        42.0180   20.1720   22.1180 C.3   1471  6PG1471     0.2260
      4  C4        42.6580   21.3250   22.9430 C.3   1471  6PG1471     0.2179
      5  C5        42.4280   21.2970   24.4900 C.3   1471  6PG1471     0.2147
      6  C6        42.9490   20.0740   25.2820 C.3   1471  6PG1471     0.1892
      7  O1A       42.1780   17.0910   20.6370 O.co2 1471  6PG1471    -0.2427
      8  O1        42.4320   18.8500   19.4800 O.co2 1471  6PG1471    -0.2427
      9  O2        43.1800   18.1160   22.8990 O.3   1471  6PG1471    -0.2080
     10  O3        40.8020   19.6620   22.7040 O.3   1471  6PG1471    -0.2169
     11  O4        44.0500   21.4320   22.6310 O.3   1471  6PG1471    -0.2175
     12  O5        42.9430   22.4860   25.0690 O.3   1471  6PG1471    -0.2176
     13  O6        44.2120   20.2180   25.9490 O.3   1471  6PG1471    -0.2674
     14  P         44.4820   20.9660   27.3670 P.3   1471  6PG1471     0.5327
     15  O1P       45.9480   20.4560   27.7940 O.3   1471  6PG1471    -0.1145
     16  O2P       43.5080   20.4560   28.5180 O.3   1471  6PG1471    -0.1145
     17  O3P       44.4400   22.4450   27.2340 O.2   1471  6PG1471    -0.2224
@<TRIPOS>BOND
     1     8     1   ar
     2     1     7   ar
     3     1     2    1
     4     2     3    1
     5     2     9    1
     6     3    10    1
     7     3     4    1
     8    11     4    1
     9     4     5    1
    10     5    12    1
    11     5     6    1
    12     6    13    1
    13    13    14    1
    14    17    14    2
    15    14    15    1
    16    14    16    1
