@<TRIPOS>MOLECULE
2iyp_5RP_A_1.pdb
 14 13 0 0 0
SMALL
GASTEIGER

@<TRIPOS>ATOM
      1  C2        -6.3920    1.5130   63.9750 C.3   1471  5RP1471     0.2486
      2  C3        -5.2720    0.6880   64.6400 C.2   1471  5RP1471     0.2165
      3  C5        -5.5720   -0.6540   65.3330 C.3   1471  5RP1471     0.2439
      4  O13       -6.8620   -1.1380   64.9380 O.3   1471  5RP1471    -0.2122
      5  C6        -5.3930   -0.5290   66.8740 C.3   1471  5RP1471     0.2194
      6  O14       -5.0220   -1.7830   67.4500 O.3   1471  5RP1471    -0.2172
      7  C7        -6.6100    0.0300   67.6240 C.3   1471  5RP1471     0.1896
      8  O8        -6.1640    0.6330   68.8330 O.3   1471  5RP1471    -0.2674
      9  P9        -6.2370   -0.1610   70.2280 P.3   1471  5RP1471     0.5327
     10  O12       -6.2080   -1.7350   69.9170 O.2   1471  5RP1471    -0.2224
     11  O11       -7.7440    0.1190   70.8100 O.3   1471  5RP1471    -0.1145
     12  O10       -5.1540    0.2130   71.1780 O.3   1471  5RP1471    -0.1145
     13  O4        -4.1110    1.0790   64.6210 O.2   1471  5RP1471    -0.2905
     14  O1        -6.1520    2.9390   63.9430 O.3   1471  5RP1471    -0.2118
@<TRIPOS>BOND
     1    14     1    1
     2     1     2    1
     3    13     2    2
     4     2     3    1
     5     4     3    1
     6     3     5    1
     7     5     6    1
     8     5     7    1
     9     7     8    1
    10     8     9    1
    11    10     9    2
    12     9    11    1
    13     9    12    1
