@<TRIPOS>MOLECULE
2iyp_A2P_B_1.pdb
 27 29 0 0 0
SMALL
GASTEIGER

@<TRIPOS>ATOM
      1  P1        28.1420   21.5250   93.9640 P.3   1470  A2P1470     0.5328
      2  O1P       27.8450   22.5020   95.0750 O.3   1470  A2P1470    -0.1145
      3  O2P       27.5720   21.8720   92.6090 O.2   1470  A2P1470    -0.2224
      4  O3P       29.5730   21.0450   93.9010 O.3   1470  A2P1470    -0.1145
      5  P2        20.5990   20.7930   92.9770 P.3   1470  A2P1470     0.5327
      6  O4P       20.4280   22.0370   93.8290 O.3   1470  A2P1470    -0.1145
      7  O5P       21.1970   21.0370   91.5960 O.2   1470  A2P1470    -0.2224
      8  O6P       19.3860   19.8760   92.9920 O.3   1470  A2P1470    -0.1145
      9  O5'       21.7020   19.9360   93.8070 O.3   1470  A2P1470    -0.2675
     10  C5'       22.9670   20.5140   94.1300 C.3   1470  A2P1470     0.1860
     11  C4'       23.8690   19.6300   94.9910 C.3   1470  A2P1470     0.1822
     12  O4'       24.2990   18.4320   94.3210 O.3   1470  A2P1470    -0.3136
     13  C3'       25.1290   20.4390   95.2390 C.3   1470  A2P1470     0.2157
     14  O3'       25.7080   20.1320   96.5130 O.3   1470  A2P1470    -0.2175
     15  C2'       26.0390   19.9750   94.1290 C.3   1470  A2P1470     0.2314
     16  O2'       27.3920   20.2010   94.4730 O.3   1470  A2P1470    -0.2630
     17  C1'       25.6870   18.5060   93.9770 C.3   1470  A2P1470     0.3158
     18  N9        25.8550   18.0490   92.5820 N.pl3 1470  A2P1470    -0.1439
     19  C8        25.0610   18.4320   91.5700 C.3   1470  A2P1470     0.3377
     20  N7        25.4390   17.8500   90.4140 N.2   1470  A2P1470    -0.2095
     21  C5        26.5000   17.0720   90.6740 C.2   1470  A2P1470     0.2526
     22  C6        27.3710   16.1780   89.8670 C.2   1470  A2P1470     0.4393
     23  N6        27.1400   16.0310   88.5340 N.pl3 1470  A2P1470     0.2180
     24  N1        28.3870   15.5380   90.5110 N.2   1470  A2P1470     0.0021
     25  C2        28.5930   15.7010   91.8440 C.3   1470  A2P1470     0.5254
     26  N3        27.8280   16.4960   92.6330 N.2   1470  A2P1470    -0.0055
     27  C4        26.7790   17.2000   92.1130 C.2   1470  A2P1470     0.3518
@<TRIPOS>BOND
     1    23    22    1
     2    22    24    2
     3    22    21    1
     4    20    21    2
     5    20    19    1
     6    24    25    1
     7    21    27    1
     8    19    18    1
     9     7     5    2
    10    25    26    1
    11    27    18    1
    12    27    26    2
    13    18    17    1
    14     3     1    2
    15     5     8    1
    16     5     9    1
    17     5     6    1
    18     9    10    1
    19     4     1    1
    20     1    16    1
    21     1     2    1
    22    17    15    1
    23    17    12    1
    24    15    16    1
    25    15    13    1
    26    10    11    1
    27    12    11    1
    28    11    13    1
    29    13    14    1
