@<TRIPOS>MOLECULE
2iyp_NAP_A_1.pdb
 48 52 0 0 0
SMALL
GASTEIGER

@<TRIPOS>ATOM
      1  PA        -1.2880   -8.8410   65.9210 P.3   1470  NAP1470     0.2189
      2  O1A       -1.0510   -7.5580   66.6370 O.2   1470  NAP1470    -0.5170
      3  O2A       -2.1870   -9.7870   66.6460 O.3   1470  NAP1470    -0.4371
      4  O5B        0.1670   -9.4780   65.6130 O.3   1470  NAP1470    -0.3112
      5  C5B        0.2110  -10.8310   65.2560 C.3   1470  NAP1470     0.1813
      6  C4B        1.2330  -11.0830   64.1690 C.3   1470  NAP1470     0.1820
      7  O4B        2.5320  -10.9990   64.7230 O.3   1470  NAP1470    -0.3136
      8  C3B        1.0680  -12.5160   63.6980 C.3   1470  NAP1470     0.2157
      9  O3B        1.5220  -12.6650   62.3650 O.3   1470  NAP1470    -0.2175
     10  C2B        1.9830  -13.2540   64.6560 C.3   1470  NAP1470     0.2314
     11  O2B        2.3860  -14.5190   64.1830 O.3   1470  NAP1470    -0.2630
     12  C1B        3.1310  -12.2810   64.8420 C.3   1470  NAP1470     0.3158
     13  N9A        3.7120  -12.4470   66.1770 N.pl3 1470  NAP1470    -0.1439
     14  C8A        3.0370  -12.3010   67.3590 C.3   1470  NAP1470     0.3377
     15  N7A        3.8970  -12.5250   68.3770 N.2   1470  NAP1470    -0.2095
     16  C5A        5.1130  -12.8140   67.8640 C.2   1470  NAP1470     0.2526
     17  C6A        6.3310  -13.1190   68.4750 C.2   1470  NAP1470     0.4393
     18  N6A        6.4230  -13.1630   69.8070 N.pl3 1470  NAP1470     0.2180
     19  N1A        7.4360  -13.3780   67.6740 N.2   1470  NAP1470     0.0021
     20  C2A        7.3180  -13.3280   66.2900 C.3   1470  NAP1470     0.5254
     21  N3A        6.1020  -13.0200   65.6960 N.2   1470  NAP1470    -0.0055
     22  C4A        5.0140  -12.7680   66.4720 C.2   1470  NAP1470     0.3518
     23  O3        -1.8510   -8.5680   64.4240 O.3   1470  NAP1470    -0.2703
     24  PN        -2.6250   -7.3610   63.6600 P.3   1470  NAP1470     0.2189
     25  O1N       -3.2160   -6.4520   64.6780 O.3   1470  NAP1470    -0.4371
     26  O2N       -3.4890   -7.9730   62.6260 O.2   1470  NAP1470    -0.5170
     27  O5D       -1.4810   -6.5550   62.8480 O.3   1470  NAP1470    -0.3112
     28  C5D       -0.1060   -6.5910   63.1680 C.3   1470  NAP1470     0.1813
     29  C4D        0.4670   -5.1760   63.3000 C.3   1470  NAP1470     0.1799
     30  O4D       -0.3040   -4.1740   62.6410 O.3   1470  NAP1470    -0.3327
     31  C3D        0.5060   -4.8140   64.7690 C.3   1470  NAP1470     0.2158
     32  O3D        1.7590   -4.2260   65.0260 O.3   1470  NAP1470    -0.2175
     33  C2D       -0.6480   -3.8320   64.9350 C.3   1470  NAP1470     0.2309
     34  O2D       -0.4160   -2.8820   65.9480 O.3   1470  NAP1470    -0.2158
     35  C1D       -0.7720   -3.1920   63.5590 C.3   1470  NAP1470     0.2263
     36  N1N       -2.1300   -2.6940   63.2090 N.pl3 1470  NAP1470    -0.2787
     37  C2N       -3.2900   -3.4050   63.4740 C.3   1470  NAP1470     0.1244
     38  C3N       -4.5520   -2.8840   63.0930 C.2   1470  NAP1470     0.0544
     39  C7N       -5.8700   -3.6230   63.3500 C.2   1470  NAP1470     0.2818
     40  O7N       -7.0990   -2.9260   63.2220 O.2   1470  NAP1470    -0.2670
     41  N7N       -5.8870   -4.9250   63.6730 N.am  1470  NAP1470    -0.0839
     42  C4N       -4.5900   -1.6370   62.4430 C.2   1470  NAP1470     0.0033
     43  C5N       -3.4280   -0.9290   62.1900 C.2   1470  NAP1470     0.0157
     44  C6N       -2.2070   -1.4730   62.5770 C.2   1470  NAP1470     0.0633
     45  P2B        1.6650  -15.8460   64.7590 P.3   1470  NAP1470     0.5328
     46  O1X        0.5480  -16.3220   63.8470 O.2   1470  NAP1470    -0.2224
     47  O2X        2.7750  -16.8720   64.8370 O.3   1470  NAP1470    -0.1145
     48  O3X        1.0510  -15.5600   66.1170 O.3   1470  NAP1470    -0.1145
@<TRIPOS>BOND
     1    43    42    1
     2    43    44    2
     3     9     8    1
     4    42    38    2
     5    44    36    1
     6    26    24    2
     7    30    29    1
     8    30    35    1
     9    27    28    1
    10    27    24    1
    11    38    39    1
    12    38    37    1
    13    28    29    1
    14    36    37    1
    15    36    35    1
    16    40    39    2
    17    29    31    1
    18    39    41   am
    19    35    33    1
    20    24    23    1
    21    24    25    1
    22     8     6    1
    23     8    10    1
    24    46    45    2
    25     6     7    1
    26     6     5    1
    27    11    10    1
    28    11    45    1
    29    23     1    1
    30    10    12    1
    31     7    12    1
    32    45    47    1
    33    45    48    1
    34    31    33    1
    35    31    32    1
    36    12    13    1
    37    33    34    1
    38     5     4    1
    39     4     1    1
    40    21    20    1
    41    21    22    2
    42     1     2    2
    43     1     3    1
    44    13    22    1
    45    13    14    1
    46    20    19    1
    47    22    16    1
    48    14    15    1
    49    19    17    2
    50    16    15    2
    51    16    17    1
    52    17    18    1
