@<TRIPOS>MOLECULE
2iyq_SKM_A_1.pdb
 12 12 0 0 0
SMALL
GASTEIGER

@<TRIPOS>ATOM
      1  O12       37.1880  -35.5210   28.8430 O.3   201  SKM201     -0.2173
      2  C8        36.3580  -36.0680   29.8590 C.3   201  SKM201      0.2167
      3  C6        37.2830  -36.4420   31.0230 C.3   201  SKM201      0.1896
      4  O7        36.5580  -37.1110   32.0680 O.3   201  SKM201     -0.2200
      5  C5        37.9760  -35.1930   31.5430 C.3   201  SKM201      0.0684
      6  C4        37.0780  -33.9960   31.7360 C.2   201  SKM201      0.0584
      7  C1        37.5820  -32.8180   32.4140 C.2   201  SKM201      0.3837
      8  O2        36.8090  -31.9540   32.9000 O.co2 201  SKM201     -0.2409
      9  O3        38.8150  -32.6430   32.4000 O.co2 201  SKM201     -0.2409
     10  C10       35.8290  -33.9750   31.2130 C.2   201  SKM201      0.0111
     11  C9        35.2840  -35.0840   30.3470 C.3   201  SKM201      0.2066
     12  O11       34.6200  -34.4560   29.2290 O.3   201  SKM201     -0.2155
@<TRIPOS>BOND
     1     1     2    1
     2    12    11    1
     3     2    11    1
     4     2     3    1
     5    11    10    1
     6     3     5    1
     7     3     4    1
     8    10     6    2
     9     5     6    1
    10     6     7    1
    11     9     7   ar
    12     7     8   ar
