@<TRIPOS>MOLECULE
2iyq_ADP_A_1.pdb
 27 29 0 0 0
SMALL
GASTEIGER

@<TRIPOS>ATOM
      1  PB        28.8800  -32.4460   28.9210 P.3   202  ADP202      0.5373
      2  O1B       29.0520  -33.2420   27.6610 O.2   202  ADP202     -0.2221
      3  O2B       29.5760  -33.1620   30.0600 O.3   202  ADP202     -0.1143
      4  O3B       29.1830  -30.9410   28.9010 O.3   202  ADP202     -0.1143
      5  PA        26.2000  -33.5980   28.8800 P.3   202  ADP202      0.2231
      6  O1A       26.6380  -35.0320   28.9730 O.3   202  ADP202     -0.4370
      7  O2A       25.6610  -33.2280   27.5390 O.2   202  ADP202     -0.5169
      8  O3A       27.2980  -32.5080   29.3400 O.3   202  ADP202     -0.2261
      9  O5'       24.9450  -33.1450   29.8020 O.3   202  ADP202     -0.3111
     10  C5'       24.9480  -33.5130   31.1990 C.3   202  ADP202      0.1813
     11  C4'       23.5040  -33.7170   31.6830 C.3   202  ADP202      0.1821
     12  O4'       22.9420  -32.4510   31.6740 O.3   202  ADP202     -0.3135
     13  C3'       22.6700  -34.6230   30.7720 C.3   202  ADP202      0.2184
     14  O3'       21.6490  -35.4280   31.4440 O.3   202  ADP202     -0.2174
     15  C2'       21.9080  -33.6690   29.9570 C.3   202  ADP202      0.2570
     16  O2'       20.6140  -34.1930   29.7190 O.3   202  ADP202     -0.2130
     17  C1'       21.7960  -32.4540   30.8750 C.3   202  ADP202      0.3186
     18  N9        21.7050  -31.1670   30.2310 N.pl3 202  ADP202     -0.1439
     19  C8        22.6030  -30.6620   29.3480 C.3   202  ADP202      0.3377
     20  N7        22.1740  -29.4660   28.9610 N.2   202  ADP202     -0.2095
     21  C5        21.0310  -29.1620   29.6120 C.2   202  ADP202      0.2526
     22  C6        20.1350  -28.0400   29.5850 C.2   202  ADP202      0.4393
     23  N6        20.3580  -26.9560   28.8530 N.pl3 202  ADP202      0.2180
     24  N1        18.9880  -28.0670   30.3830 N.2   202  ADP202      0.0021
     25  C2        18.8070  -29.2030   31.1290 C.3   202  ADP202      0.5254
     26  N3        19.5910  -30.2670   31.2030 N.2   202  ADP202     -0.0055
     27  C4        20.7200  -30.2770   30.4340 C.2   202  ADP202      0.3518
@<TRIPOS>BOND
     1     7     5    2
     2     2     1    2
     3    23    22    1
     4     5     6    1
     5     5     8    1
     6     5     9    1
     7     4     1    1
     8     1     8    1
     9     1     3    1
    10    20    19    1
    11    20    21    2
    12    19    18    1
    13    22    21    1
    14    22    24    2
    15    21    27    1
    16    16    15    1
    17     9    10    1
    18    15    13    1
    19    15    17    1
    20    18    27    1
    21    18    17    1
    22    24    25    1
    23    27    26    2
    24    13    14    1
    25    13    11    1
    26    17    12    1
    27    25    26    1
    28    10    11    1
    29    12    11    1
