@<TRIPOS>MOLECULE
2iyr_SKM_A_1.pdb
 12 12 0 0 0
SMALL
GASTEIGER

@<TRIPOS>ATOM
      1  O12        0.0730   20.8370   26.8220 O.3   201  SKM201     -0.2173
      2  C8        -0.4720   19.5300   27.1280 C.3   201  SKM201      0.2167
      3  C6        -0.1660   18.5520   25.9880 C.3   201  SKM201      0.1896
      4  O7        -0.6200   17.2040   26.2860 O.3   201  SKM201     -0.2200
      5  C5         1.3350   18.5280   25.7330 C.3   201  SKM201      0.0684
      6  C4         2.0520   18.1710   27.0220 C.2   201  SKM201      0.0584
      7  C1         3.4340   17.7290   26.9130 C.2   201  SKM201      0.3837
      8  O2         4.0820   17.2600   27.8720 O.co2 201  SKM201     -0.2409
      9  O3         3.9630   17.8960   25.8240 O.co2 201  SKM201     -0.2409
     10  C10        1.4680   18.3120   28.2330 C.2   201  SKM201      0.0111
     11  C9         0.1270   19.0010   28.4290 C.3   201  SKM201      0.2066
     12  O11        0.3850   20.1060   29.2920 O.3   201  SKM201     -0.2155
@<TRIPOS>BOND
     1     5     3    1
     2     5     6    1
     3     9     7   ar
     4     3     4    1
     5     3     2    1
     6     1     2    1
     7     7     6    1
     8     7     8   ar
     9     6    10    2
    10     2    11    1
    11    10    11    1
    12    11    12    1
