@<TRIPOS>MOLECULE
2iys_SKM_A_1.pdb
 12 12 0 0 0
SMALL
GASTEIGER

@<TRIPOS>ATOM
      1  O12       15.4210   20.1560   32.0990 O.3   201  SKM201     -0.2173
      2  C8        15.9520   19.8100   33.3740 C.3   201  SKM201      0.2167
      3  C6        15.7330   20.9850   34.3080 C.3   201  SKM201      0.1896
      4  O7        16.3280   20.7280   35.5860 O.3   201  SKM201     -0.2200
      5  C5        14.2440   21.2720   34.4850 C.3   201  SKM201      0.0684
      6  C4        13.4330   20.0090   34.7070 C.2   201  SKM201      0.0584
      7  C1        12.0190   20.1290   35.1230 C.2   201  SKM201      0.3837
      8  O2        11.4250   19.1740   35.7120 O.co2 201  SKM201     -0.2409
      9  O3        11.4050   21.1630   34.8370 O.co2 201  SKM201     -0.2409
     10  C10       13.9080   18.7840   34.4360 C.2   201  SKM201      0.0111
     11  C9        15.3060   18.5350   33.9290 C.3   201  SKM201      0.2066
     12  O11       15.1820   17.4680   32.9630 O.3   201  SKM201     -0.2155
@<TRIPOS>BOND
     1     1     2    1
     2    12    11    1
     3     2    11    1
     4     2     3    1
     5    11    10    1
     6     3     5    1
     7     3     4    1
     8    10     6    2
     9     5     6    1
    10     6     7    1
    11     9     7   ar
    12     7     8   ar
