@<TRIPOS>MOLECULE
2iyu_ADP_A_1.pdb
 27 29 0 0 0
SMALL
GASTEIGER

@<TRIPOS>ATOM
      1  PB        15.2620    9.7940   33.6960 P.3   201  ADP201      0.5373
      2  O1B       16.3240   10.1220   32.6690 O.2   201  ADP201     -0.2221
      3  O2B       15.2370   10.7140   34.9150 O.3   201  ADP201     -0.1143
      4  O3B       13.8810    9.5540   33.1330 O.3   201  ADP201     -0.1143
      5  PA        16.8140    7.3660   34.3290 P.3   201  ADP201      0.2231
      6  O1A       17.9030    8.3320   34.6330 O.3   201  ADP201     -0.4370
      7  O2A       16.7310    6.4560   33.0940 O.2   201  ADP201     -0.5169
      8  O3A       15.5140    8.3390   34.2890 O.3   201  ADP201     -0.2261
      9  O5'       16.4560    6.3370   35.4950 O.3   201  ADP201     -0.3111
     10  C5'       16.6040    6.7130   36.8610 C.3   201  ADP201      0.1813
     11  C4'       17.1060    5.4860   37.5860 C.3   201  ADP201      0.1821
     12  O4'       16.0290    4.5790   37.6730 O.3   201  ADP201     -0.3135
     13  C3'       18.2770    4.7090   36.9830 C.3   201  ADP201      0.2184
     14  O3'       19.1750    4.3110   38.0300 O.3   201  ADP201     -0.2174
     15  C2'       17.6370    3.4850   36.3690 C.3   201  ADP201      0.2570
     16  O2'       18.3850    2.2770   36.4550 O.3   201  ADP201     -0.2130
     17  C1'       16.3170    3.3420   37.1120 C.3   201  ADP201      0.3186
     18  N9        15.3070    2.8790   36.1300 N.pl3 201  ADP201     -0.1439
     19  C8        14.9550    3.4720   34.9590 C.3   201  ADP201      0.3377
     20  N7        14.0530    2.7130   34.2940 N.2   201  ADP201     -0.2095
     21  C5        13.8440    1.5780   35.0290 C.2   201  ADP201      0.2526
     22  C6        13.0000    0.3450   34.9540 C.2   201  ADP201      0.4393
     23  N6        12.1860    0.1390   33.8650 N.pl3 201  ADP201      0.2180
     24  N1        13.0990   -0.5820   35.9860 N.2   201  ADP201      0.0021
     25  C2        13.8960   -0.3490   37.0590 C.3   201  ADP201      0.5254
     26  N3        14.6430    0.7600   37.1960 N.2   201  ADP201     -0.0055
     27  C4        14.6810    1.7150   36.2360 C.2   201  ADP201      0.3518
@<TRIPOS>BOND
     1     2     1    2
     2     7     5    2
     3     4     1    1
     4     1     8    1
     5     1     3    1
     6    23    22    1
     7     8     5    1
     8    20    19    1
     9    20    21    2
    10     5     6    1
    11     5     9    1
    12    22    21    1
    13    22    24    2
    14    19    18    1
    15    21    27    1
    16     9    10    1
    17    24    25    1
    18    18    27    1
    19    18    17    1
    20    27    26    2
    21    15    16    1
    22    15    13    1
    23    15    17    1
    24    10    11    1
    25    13    11    1
    26    13    14    1
    27    25    26    1
    28    17    12    1
    29    11    12    1
