@<TRIPOS>MOLECULE
2iyv_ADP_A_1.pdb
 27 29 0 0 0
SMALL
GASTEIGER

@<TRIPOS>ATOM
      1  PB        32.3420   17.7660   -7.4810 P.3   201  ADP201      0.5373
      2  O1B       31.9680   19.1980   -7.0940 O.3   201  ADP201     -0.1143
      3  O2B       32.8110   17.6580   -8.9220 O.2   201  ADP201     -0.2221
      4  O3B       31.3540   16.6990   -7.0420 O.3   201  ADP201     -0.1143
      5  PA        34.1590   16.1870   -5.8090 P.3   201  ADP201      0.2231
      6  O1A       34.0480   14.9750   -6.6730 O.2   201  ADP201     -0.5169
      7  O2A       33.5170   16.1800   -4.4580 O.3   201  ADP201     -0.4370
      8  O3A       33.7050   17.5000   -6.6490 O.3   201  ADP201     -0.2261
      9  O5'       35.6950   16.4900   -5.4770 O.3   201  ADP201     -0.3111
     10  C5'       36.6640   16.3420   -6.5220 C.3   201  ADP201      0.1813
     11  C4'       38.0060   15.9720   -5.9320 C.3   201  ADP201      0.1821
     12  O4'       38.4410   17.0430   -5.0930 O.3   201  ADP201     -0.3135
     13  C3'       37.9760   14.7270   -5.0660 C.3   201  ADP201      0.2184
     14  O3'       39.2220   14.0450   -5.2330 O.3   201  ADP201     -0.2174
     15  C2'       37.9010   15.2640   -3.6660 C.3   201  ADP201      0.2570
     16  O2'       38.4900   14.4290   -2.6760 O.3   201  ADP201     -0.2130
     17  C1'       38.6530   16.5710   -3.7620 C.3   201  ADP201      0.3186
     18  N9        38.1700   17.6030   -2.8460 N.pl3 201  ADP201     -0.1439
     19  C8        36.8580   18.0060   -2.7330 C.3   201  ADP201      0.3377
     20  N7        36.7450   19.0010   -1.8450 N.2   201  ADP201     -0.2095
     21  C5        38.0250   19.2340   -1.3940 C.2   201  ADP201      0.2526
     22  C6        38.6440   20.1500   -0.4420 C.2   201  ADP201      0.4393
     23  N6        37.8500   21.0060    0.2030 N.pl3 201  ADP201      0.2180
     24  N1        40.0090   20.1310   -0.2460 N.2   201  ADP201      0.0021
     25  C2        40.7500   19.2510   -0.9300 C.3   201  ADP201      0.5254
     26  N3        40.2940   18.3760   -1.8240 N.2   201  ADP201     -0.0055
     27  C4        38.9400   18.3310   -2.0770 C.2   201  ADP201      0.3518
@<TRIPOS>BOND
     1     3     1    2
     2     1     2    1
     3     1     4    1
     4     1     8    1
     5     6     5    2
     6     8     5    1
     7    10    11    1
     8    10     9    1
     9    11    12    1
    10    11    13    1
    11     5     9    1
    12     5     7    1
    13    14    13    1
    14    12    17    1
    15    13    15    1
    16    17    15    1
    17    17    18    1
    18    15    16    1
    19    18    19    1
    20    18    27    1
    21    19    20    1
    22    27    26    2
    23    27    21    1
    24    20    21    2
    25    26    25    1
    26    21    22    1
    27    25    24    1
    28    22    24    2
    29    22    23    1
