@<TRIPOS>MOLECULE
2iyw_ATP_A_1.pdb
 31 33 0 0 0
SMALL
GASTEIGER

@<TRIPOS>ATOM
      1  PG        32.0200   17.2610  -10.2690 P.3   201  ATP201      0.5373
      2  O1G       31.0570   16.1740   -9.8170 O.3   201  ATP201     -0.1143
      3  O2G       31.3150   18.5530  -10.6320 O.3   201  ATP201     -0.1143
      4  O3G       32.9970   16.8300  -11.3340 O.2   201  ATP201     -0.2221
      5  PB        32.5100   17.7990   -7.4970 P.3   201  ATP201      0.2277
      6  O1B       31.5770   16.6670   -7.1130 O.3   201  ATP201     -0.4368
      7  O2B       32.1300   19.2460   -7.2220 O.2   201  ATP201     -0.5168
      8  O3B       32.9770   17.6320   -9.0260 O.3   201  ATP201     -0.2258
      9  PA        34.4440   16.2900   -5.9610 P.3   201  ATP201      0.2189
     10  O1A       33.7400   16.1910   -4.6300 O.3   201  ATP201     -0.4371
     11  O2A       34.3560   15.1480   -6.9230 O.2   201  ATP201     -0.5170
     12  O3A       33.9460   17.5940   -6.7680 O.3   201  ATP201     -0.2700
     13  O5'       35.9770   16.6460   -5.6330 O.3   201  ATP201     -0.3112
     14  C5'       36.9940   16.6270   -6.6310 C.3   201  ATP201      0.1813
     15  C4'       38.3510   16.3220   -6.0050 C.3   201  ATP201      0.1821
     16  O4'       38.7570   17.3790   -5.1320 O.3   201  ATP201     -0.3135
     17  C3'       38.3610   15.0540   -5.1730 C.3   201  ATP201      0.2184
     18  O3'       39.6290   14.4140   -5.3610 O.3   201  ATP201     -0.2174
     19  C2'       38.2220   15.5530   -3.7520 C.3   201  ATP201      0.2570
     20  O2'       38.8220   14.6990   -2.7920 O.3   201  ATP201     -0.2130
     21  C1'       38.9350   16.8810   -3.8100 C.3   201  ATP201      0.3186
     22  N9        38.3980   17.8850   -2.8900 N.pl3 201  ATP201     -0.1439
     23  C8        37.0990   18.1760   -2.7070 C.3   201  ATP201      0.3377
     24  N7        36.9740   19.1630   -1.8030 N.2   201  ATP201     -0.2095
     25  C5        38.2060   19.5330   -1.4090 C.2   201  ATP201      0.2526
     26  C6        38.7680   20.5060   -0.4650 C.2   201  ATP201      0.4393
     27  N6        37.9690   21.3270    0.2480 N.pl3 201  ATP201      0.2180
     28  N1        40.1090   20.5610   -0.3420 N.2   201  ATP201      0.0021
     29  C2        40.9180   19.7550   -1.0500 C.3   201  ATP201      0.5254
     30  N3        40.4720   18.8380   -1.9250 N.2   201  ATP201     -0.0055
     31  C4        39.1450   18.6820   -2.1330 C.2   201  ATP201      0.3518
@<TRIPOS>BOND
     1     4     1    2
     2     3     1    1
     3     1     2    1
     4     1     8    1
     5     8     5    1
     6     5     7    2
     7     5     6    1
     8     5    12    1
     9    11     9    2
    10    12     9    1
    11    14    15    1
    12    14    13    1
    13    15    17    1
    14    15    16    1
    15     9    13    1
    16     9    10    1
    17    18    17    1
    18    17    19    1
    19    16    21    1
    20    21    19    1
    21    21    22    1
    22    19    20    1
    23    22    23    1
    24    22    31    1
    25    23    24    1
    26    31    30    2
    27    31    25    1
    28    30    29    1
    29    24    25    2
    30    25    26    1
    31    29    28    1
    32    26    28    2
    33    26    27    1
