@<TRIPOS>MOLECULE
2iyx_SKM_A_1.pdb
 12 12 0 0 0
SMALL
GASTEIGER

@<TRIPOS>ATOM
      1  O12        3.5550   32.7790   17.9590 O.3   201  SKM201     -0.2173
      2  C8         3.0480   32.9470   19.2910 C.3   201  SKM201      0.2167
      3  C6         4.0260   33.8340   20.0610 C.3   201  SKM201      0.1896
      4  O7         3.6140   33.9370   21.4260 O.3   201  SKM201     -0.2200
      5  C5         4.1250   35.2160   19.4590 C.3   201  SKM201      0.0684
      6  C4         2.7820   35.7610   19.0950 C.2   201  SKM201      0.0584
      7  C1         2.7290   37.1630   18.6910 C.2   201  SKM201      0.3837
      8  O2         1.5830   37.7400   18.6920 O.co2 201  SKM201     -0.2409
      9  O3         3.7800   37.6880   18.2620 O.co2 201  SKM201     -0.2409
     10  C10        1.6600   35.0300   18.9870 C.2   201  SKM201      0.0111
     11  C9         1.6510   33.5560   19.2700 C.3   201  SKM201      0.2066
     12  O11        0.8130   32.8530   18.3080 O.3   201  SKM201     -0.2155
@<TRIPOS>BOND
     1     1     2    1
     2     9     7   ar
     3    12    11    1
     4     7     8   ar
     5     7     6    1
     6    10     6    2
     7    10    11    1
     8     6     5    1
     9    11     2    1
    10     2     3    1
    11     5     3    1
    12     3     4    1
