@<TRIPOS>MOLECULE
2iyy_S3P_A_1.pdb
 16 16 0 0 0
SMALL
GASTEIGER

@<TRIPOS>ATOM
      1  C1         2.5160   35.8580   19.1650 C.2   201  S3P201      0.0583
      2  C2         1.3280   35.2900   18.8900 C.2   201  S3P201      0.0084
      3  C3         1.0630   33.8220   19.1090 C.3   201  S3P201      0.1809
      4  C4         2.3660   33.0470   19.3270 C.3   201  S3P201      0.2140
      5  C5         3.3410   33.7520   20.2750 C.3   201  S3P201      0.1895
      6  C6         3.7160   35.1170   19.7200 C.3   201  S3P201      0.0684
      7  C7         2.6980   37.2670   18.8980 C.2   201  S3P201      0.3837
      8  O1         0.3440   33.3190   17.9700 O.3   201  S3P201     -0.2655
      9  O2         2.9920   32.8530   18.0550 O.3   201  S3P201     -0.2174
     10  O3         2.7970   33.9520   21.5950 O.3   201  S3P201     -0.2200
     11  O4         3.8500   37.6250   18.6160 O.co2 201  S3P201     -0.2409
     12  O5         1.7360   38.0650   18.9480 O.co2 201  S3P201     -0.2409
     13  P1        -1.2680   33.2150   17.9500 P.3   201  S3P201      0.5329
     14  O6        -1.4960   31.8990   17.2120 O.2   201  S3P201     -0.2224
     15  O7        -1.6960   33.1350   19.4000 O.3   201  S3P201     -0.1145
     16  O8        -1.6940   34.5140   17.2720 O.3   201  S3P201     -0.1145
@<TRIPOS>BOND
     1    14    13    2
     2    16    13    1
     3    13     8    1
     4    13    15    1
     5     8     3    1
     6     9     4    1
     7    11     7   ar
     8     2     3    1
     9     2     1    2
    10     7    12   ar
    11     7     1    1
    12     3     4    1
    13     1     6    1
    14     4     5    1
    15     6     5    1
    16     5    10    1
