@<TRIPOS>MOLECULE
2iyz_ADP_A_1.pdb
 27 29 0 0 0
SMALL
GASTEIGER

@<TRIPOS>ATOM
      1  PB        -6.4740   33.1450   17.4490 P.3   202  ADP202      0.5373
      2  O1B       -5.7830   33.6340   18.7050 O.3   202  ADP202     -0.1143
      3  O2B       -6.2300   34.0450   16.2590 O.2   202  ADP202     -0.2221
      4  O3B       -6.3000   31.6640   17.2230 O.3   202  ADP202     -0.1143
      5  PA        -8.9110   31.9950   18.2480 P.3   202  ADP202      0.2231
      6  O1A       -9.4760   31.1870   17.0860 O.2   202  ADP202     -0.5169
      7  O2A       -8.1310   31.2340   19.3020 O.3   202  ADP202     -0.4370
      8  O3A       -8.0360   33.2780   17.7390 O.3   202  ADP202     -0.2261
      9  O5'      -10.1720   32.7350   18.9530 O.3   202  ADP202     -0.3111
     10  C5'      -10.0740   33.2670   20.2770 C.3   202  ADP202      0.1813
     11  C4'      -11.4750   33.5930   20.8070 C.3   202  ADP202      0.1821
     12  O4'      -12.1880   34.3480   19.8200 O.3   202  ADP202     -0.3135
     13  C3'      -12.3700   32.3980   21.1190 C.3   202  ADP202      0.2184
     14  O3'      -13.0590   32.6320   22.3560 O.3   202  ADP202     -0.2174
     15  C2'      -13.3530   32.3210   19.9630 C.3   202  ADP202      0.2570
     16  O2'      -14.6190   31.7590   20.3140 O.3   202  ADP202     -0.2130
     17  C1'      -13.4750   33.7790   19.5460 C.3   202  ADP202      0.3186
     18  N9       -13.8210   33.9630   18.1140 N.pl3 202  ADP202     -0.1439
     19  C8       -13.2090   33.3710   17.0610 C.3   202  ADP202      0.3377
     20  N7       -13.7680   33.7700   15.8860 N.2   202  ADP202     -0.2095
     21  C5       -14.7550   34.6420   16.1910 C.2   202  ADP202      0.2526
     22  C6       -15.7440   35.4350   15.4200 C.2   202  ADP202      0.4393
     23  N6       -15.7480   35.3370   14.0700 N.pl3 202  ADP202      0.2180
     24  N1       -16.6070   36.2390   16.1180 N.2   202  ADP202      0.0021
     25  C2       -16.5830   36.3190   17.4750 C.3   202  ADP202      0.5254
     26  N3       -15.7000   35.6220   18.2330 N.2   202  ADP202     -0.0055
     27  C4       -14.7840   34.7800   17.6620 C.2   202  ADP202      0.3518
@<TRIPOS>BOND
     1    23    22    1
     2    22    24    2
     3    22    21    1
     4    20    21    2
     5    20    19    1
     6    24    25    1
     7    21    27    1
     8     3     1    2
     9    19    18    1
    10     6     5    2
    11     4     1    1
    12     1     8    1
    13     1     2    1
    14    25    26    1
    15    27    18    1
    16    27    26    2
    17     8     5    1
    18    18    17    1
    19     5     9    1
    20     5     7    1
    21     9    10    1
    22    17    12    1
    23    17    15    1
    24    12    11    1
    25    15    16    1
    26    15    13    1
    27    10    11    1
    28    11    13    1
    29    13    14    1
