@<TRIPOS>MOLECULE
2iyz_S3P_A_1.pdb
 16 16 0 0 0
SMALL
GASTEIGER

@<TRIPOS>ATOM
      1  C1         2.7150   36.0540   18.9230 C.2   201  S3P201      0.0583
      2  C2         1.5710   35.3530   18.7670 C.2   201  S3P201      0.0084
      3  C3         1.4310   33.8760   19.0520 C.3   201  S3P201      0.1809
      4  C4         2.8260   33.2180   19.1750 C.3   201  S3P201      0.2140
      5  C5         3.7900   34.0470   20.0570 C.3   201  S3P201      0.1895
      6  C6         4.0020   35.4380   19.4510 C.3   201  S3P201      0.0684
      7  C7         2.7300   37.4780   18.5410 C.2   201  S3P201      0.3837
      8  O1         0.5560   33.3070   18.0450 O.3   201  S3P201     -0.2655
      9  O2         3.4350   33.0030   17.8830 O.3   201  S3P201     -0.2174
     10  O3         3.3450   34.2430   21.4240 O.3   201  S3P201     -0.2200
     11  O4         3.8040   37.9950   18.1480 O.co2 201  S3P201     -0.2409
     12  O5         1.6610   38.1410   18.5890 O.co2 201  S3P201     -0.2409
     13  P1        -1.1110   33.5340   17.9980 P.3   201  S3P201      0.5329
     14  O6        -1.6020   32.2770   17.2630 O.3   201  S3P201     -0.1145
     15  O7        -1.6080   33.5840   19.4310 O.3   201  S3P201     -0.1145
     16  O8        -1.3690   34.8370   17.2370 O.2   201  S3P201     -0.2224
@<TRIPOS>BOND
     1    16    13    2
     2    14    13    1
     3     9     4    1
     4    13     8    1
     5    13    15    1
     6     8     3    1
     7    11     7   ar
     8     7    12   ar
     9     7     1    1
    10     2     1    2
    11     2     3    1
    12     1     6    1
    13     3     4    1
    14     4     5    1
    15     6     5    1
    16     5    10    1
