@<TRIPOS>MOLECULE
2iz0_NAP_A_1.pdb
 48 52 0 0 0
SMALL
GASTEIGER

@<TRIPOS>ATOM
      1  PA        -0.9200   -8.8910   65.7230 P.3   1470  NAP1470     0.2189
      2  O1A       -0.5380   -7.5750   66.2870 O.2   1470  NAP1470    -0.5170
      3  O2A       -1.7100   -9.7140   66.6680 O.3   1470  NAP1470    -0.4371
      4  O5B        0.4490   -9.6390   65.3250 O.3   1470  NAP1470    -0.3112
      5  C5B        0.4260  -11.0040   65.0020 C.3   1470  NAP1470     0.1813
      6  C4B        1.5840  -11.3070   64.0770 C.3   1470  NAP1470     0.1820
      7  O4B        2.8110  -11.1260   64.7680 O.3   1470  NAP1470    -0.3136
      8  C3B        1.5280  -12.7570   63.6410 C.3   1470  NAP1470     0.2157
      9  O3B        2.0310  -12.9350   62.3300 O.3   1470  NAP1470    -0.2175
     10  C2B        2.4180  -13.4090   64.6700 C.3   1470  NAP1470     0.2314
     11  O2B        2.9380  -14.6380   64.2230 O.3   1470  NAP1470    -0.2630
     12  C1B        3.4810  -12.3620   64.9450 C.3   1470  NAP1470     0.3158
     13  N9A        4.0020  -12.5280   66.3170 N.pl3 1470  NAP1470    -0.1439
     14  C8A        3.2530  -12.4190   67.4660 C.3   1470  NAP1470     0.3377
     15  N7A        4.0570  -12.6530   68.5320 N.2   1470  NAP1470    -0.2095
     16  C5A        5.3100  -12.9160   68.0840 C.2   1470  NAP1470     0.2526
     17  C6A        6.4940  -13.2080   68.7610 C.2   1470  NAP1470     0.4393
     18  N6A        6.5030  -13.2700   70.1030 N.pl3 1470  NAP1470     0.2180
     19  N1A        7.6440  -13.4260   68.0190 N.2   1470  NAP1470     0.0021
     20  C2A        7.6150  -13.3580   66.6390 C.3   1470  NAP1470     0.5254
     21  N3A        6.4340  -13.0650   65.9900 N.2   1470  NAP1470    -0.0055
     22  C4A        5.2950  -12.8440   66.6920 C.2   1470  NAP1470     0.3518
     23  O3        -1.7570   -8.7580   64.3430 O.3   1470  NAP1470    -0.2703
     24  PN        -2.3990   -7.5770   63.4370 P.3   1470  NAP1470     0.2189
     25  O1N       -3.6470   -7.0840   64.0670 O.3   1470  NAP1470    -0.4371
     26  O2N       -2.4610   -8.0790   62.0440 O.2   1470  NAP1470    -0.5170
     27  O5D       -1.3160   -6.3960   63.4950 O.3   1470  NAP1470    -0.3112
     28  C5D        0.0400   -6.4960   63.1190 C.3   1470  NAP1470     0.1813
     29  C4D        0.6740   -5.1290   63.3780 C.3   1470  NAP1470     0.1799
     30  O4D       -0.0970   -4.1220   62.7330 O.3   1470  NAP1470    -0.3327
     31  C3D        0.6990   -4.7780   64.8650 C.3   1470  NAP1470     0.2158
     32  O3D        1.9050   -4.1310   65.2320 O.3   1470  NAP1470    -0.2175
     33  C2D       -0.5150   -3.8720   65.0370 C.3   1470  NAP1470     0.2309
     34  O2D       -0.3710   -2.9630   66.0990 O.3   1470  NAP1470    -0.2158
     35  C1D       -0.6100   -3.1820   63.6790 C.3   1470  NAP1470     0.2263
     36  N1N       -1.9600   -2.7400   63.2630 N.pl3 1470  NAP1470    -0.2787
     37  C2N       -3.0790   -3.4950   63.5190 C.3   1470  NAP1470     0.1244
     38  C3N       -4.3340   -3.0550   63.0850 C.2   1470  NAP1470     0.0544
     39  C7N       -5.5690   -3.8670   63.3570 C.2   1470  NAP1470     0.2818
     40  O7N       -6.8110   -3.2170   63.2290 O.2   1470  NAP1470    -0.2670
     41  N7N       -5.4630   -5.1580   63.6820 N.am  1470  NAP1470    -0.0839
     42  C4N       -4.4540   -1.8620   62.3750 C.2   1470  NAP1470     0.0033
     43  C5N       -3.3090   -1.1120   62.1150 C.2   1470  NAP1470     0.0157
     44  C6N       -2.0670   -1.5650   62.5560 C.2   1470  NAP1470     0.0633
     45  P2B        2.1130  -15.9790   64.5830 P.3   1470  NAP1470     0.5328
     46  O1X        0.8790  -16.0850   63.7070 O.2   1470  NAP1470    -0.2224
     47  O2X        2.9770  -17.1870   64.3350 O.3   1470  NAP1470    -0.1145
     48  O3X        1.6890  -15.8690   66.0260 O.3   1470  NAP1470    -0.1145
@<TRIPOS>BOND
     1    26    24    2
     2    43    42    1
     3    43    44    2
     4     9     8    1
     5    42    38    2
     6    44    36    1
     7    30    29    1
     8    30    35    1
     9    38    39    1
    10    38    37    1
    11    28    29    1
    12    28    27    1
    13    40    39    2
    14    36    37    1
    15    36    35    1
    16    39    41   am
    17    29    31    1
    18    24    27    1
    19    24    25    1
    20    24    23    1
    21     8     6    1
    22     8    10    1
    23    35    33    1
    24    46    45    2
    25     6     7    1
    26     6     5    1
    27    11    45    1
    28    11    10    1
    29    47    45    1
    30    23     1    1
    31    45    48    1
    32    10    12    1
    33     7    12    1
    34    31    33    1
    35    31    32    1
    36    12    13    1
    37     5     4    1
    38    33    34    1
    39     4     1    1
    40     1     2    2
    41     1     3    1
    42    21    20    1
    43    21    22    2
    44    13    22    1
    45    13    14    1
    46    20    19    1
    47    22    16    1
    48    14    15    1
    49    19    17    2
    50    16    15    2
    51    16    17    1
    52    17    18    1
