@<TRIPOS>MOLECULE
2iz0_RES_A_1.pdb
 14 13 0 0 0
SMALL
GASTEIGER

@<TRIPOS>ATOM
      1  O7        -5.2960    0.0710   71.3080 O.3   1471  RES1471    -0.1145
      2  P         -6.3470   -0.3230   70.2990 P.3   1471  RES1471     0.5327
      3  O5        -6.2650   -1.7490   69.8110 O.2   1471  RES1471    -0.2224
      4  O6        -7.7520    0.0600   70.6690 O.3   1471  RES1471    -0.1145
      5  O4        -6.0440    0.5880   69.0090 O.3   1471  RES1471    -0.2674
      6  C4        -6.4170    0.1590   67.7040 C.3   1471  RES1471     0.1895
      7  C3        -5.2030   -0.4950   67.0570 C.3   1471  RES1471     0.2182
      8  O3        -4.9070   -1.7370   67.6840 O.3   1471  RES1471    -0.2172
      9  C2        -5.4010   -0.7730   65.5740 C.3   1471  RES1471     0.2291
     10  O2        -6.6580   -1.4390   65.4150 O.3   1471  RES1471    -0.2134
     11  C1        -5.3030    0.5200   64.7980 C.2   1471  RES1471     0.1201
     12  O1        -4.2190    1.0870   64.6530 O.2   1471  RES1471    -0.5373
     13  N         -6.4360    1.0210   64.3080 N.am  1471  RES1471    -0.2003
     14  ON        -6.3120    2.4090   64.2140 O.3   1471  RES1471    -0.4026
@<TRIPOS>BOND
     1    14    13    1
     2    13    11   am
     3    12    11    2
     4    11     9    1
     5    10     9    1
     6     9     7    1
     7     7     8    1
     8     7     6    1
     9     6     5    1
    10     5     2    1
    11     3     2    2
    12     2     4    1
    13     2     1    1
