@<TRIPOS>MOLECULE
2iz0_ATR_B_1.pdb
 31 33 0 0 0
SMALL
GASTEIGER

@<TRIPOS>ATOM
      1  O4'       23.9290   18.4840   94.4920 O.3   1470  ATR1470    -0.3136
      2  C3'       24.8170   20.3210   95.6490 C.3   1470  ATR1470     0.2157
      3  O3'       25.3850   19.9740   96.9160 O.3   1470  ATR1470    -0.2175
      4  C2'       25.7710   19.9190   94.5580 C.3   1470  ATR1470     0.2314
      5  O2'       27.1330   20.0410   94.9420 O.3   1470  ATR1470    -0.2630
      6  P2'       27.8960   21.4430   94.7260 P.3   1470  ATR1470     0.5328
      7  O1P       27.2890   22.0610   93.4950 O.2   1470  ATR1470    -0.2224
      8  O2P       27.5650   22.2150   95.9780 O.3   1470  ATR1470    -0.1145
      9  O3P       29.3370   21.0520   94.5860 O.3   1470  ATR1470    -0.1145
     10  C1'       25.3550   18.4870   94.2860 C.3   1470  ATR1470     0.3158
     11  N9        25.7150   18.0980   92.9010 N.pl3 1470  ATR1470    -0.1439
     12  C8        25.1760   18.6440   91.8010 C.3   1470  ATR1470     0.3377
     13  N7        25.7300   18.0690   90.7130 N.2   1470  ATR1470    -0.2095
     14  C5        26.6230   17.1520   91.1350 C.2   1470  ATR1470     0.2526
     15  C6        27.4620   16.2660   90.4700 C.2   1470  ATR1470     0.4393
     16  N6        27.5000   16.2130   89.1140 N.pl3 1470  ATR1470     0.2180
     17  N1        28.2580   15.4450   91.1780 N.2   1470  ATR1470     0.0021
     18  C2        28.2470   15.4790   92.5160 C.3   1470  ATR1470     0.5254
     19  N3        27.4400   16.3320   93.1850 N.2   1470  ATR1470    -0.0055
     20  C4        26.6120   17.1760   92.5200 C.2   1470  ATR1470     0.3518
     21  PB        18.9850   22.6600   95.2240 P.3   1470  ATR1470     0.5373
     22  O1B       19.7770   23.5570   96.1550 O.3   1470  ATR1470    -0.1143
     23  O2B       18.0360   21.7080   95.9160 O.3   1470  ATR1470    -0.1143
     24  O3B       18.4270   23.3470   93.9950 O.2   1470  ATR1470    -0.2221
     25  PA        19.9380   20.3130   93.7610 P.3   1470  ATR1470     0.2231
     26  O1A       19.7930   20.6900   92.3060 O.2   1470  ATR1470    -0.5169
     27  O2A       18.9040   19.4260   94.4150 O.3   1470  ATR1470    -0.4370
     28  O3A       20.0770   21.6790   94.5900 O.3   1470  ATR1470    -0.2261
     29  O5'       21.4120   19.6970   94.0680 O.3   1470  ATR1470    -0.3111
     30  C5'       22.4820   20.4480   94.6780 C.3   1470  ATR1470     0.1813
     31  C4'       23.5340   19.5570   95.3470 C.3   1470  ATR1470     0.1820
@<TRIPOS>BOND
     1    16    15    1
     2    15    14    1
     3    15    17    2
     4    13    14    2
     5    13    12    1
     6    14    20    1
     7    17    18    1
     8    12    11    1
     9    26    25    2
    10    18    19    1
    11    20    11    1
    12    20    19    2
    13    11    10    1
    14     7     6    2
    15    25    29    1
    16    25    27    1
    17    25    28    1
    18    24    21    2
    19    29    30    1
    20    10     1    1
    21    10     4    1
    22     1    31    1
    23     4     5    1
    24     4     2    1
    25     9     6    1
    26    28    21    1
    27    30    31    1
    28     6     5    1
    29     6     8    1
    30    21    23    1
    31    21    22    1
    32    31     2    1
    33     2     3    1
