@<TRIPOS>MOLECULE
2iz1_RES_A_1.pdb
 14 13 0 0 0
SMALL
GASTEIGER

@<TRIPOS>ATOM
      1  O7        -5.4230    0.1580   71.1260 O.3   1471  RES1471    -0.1145
      2  P         -6.4380   -0.3420   70.1360 P.3   1471  RES1471     0.5327
      3  O5        -6.3340   -1.8160   69.7770 O.2   1471  RES1471    -0.2224
      4  O6        -7.8600    0.0470   70.4720 O.3   1471  RES1471    -0.1145
      5  O4        -6.0780    0.5130   68.8180 O.3   1471  RES1471    -0.2674
      6  C4        -6.4160    0.0660   67.5130 C.3   1471  RES1471     0.1895
      7  C3        -5.2230   -0.6870   66.9370 C.3   1471  RES1471     0.2182
      8  O3        -5.0900   -1.9410   67.6030 O.3   1471  RES1471    -0.2172
      9  C2        -5.4130   -0.9750   65.4550 C.3   1471  RES1471     0.2291
     10  O2        -6.6700   -1.6480   65.2750 O.3   1471  RES1471    -0.2134
     11  C1        -5.3180    0.3200   64.6880 C.2   1471  RES1471     0.1201
     12  O1        -4.2990    1.0000   64.7390 O.2   1471  RES1471    -0.5373
     13  N         -6.3850    0.6850   63.9910 N.am  1471  RES1471    -0.2003
     14  ON        -6.4980    1.9920   63.5190 O.3   1471  RES1471    -0.4026
@<TRIPOS>BOND
     1    14    13    1
     2    13    11   am
     3    11    12    2
     4    11     9    1
     5    10     9    1
     6     9     7    1
     7     7     6    1
     8     7     8    1
     9     6     5    1
    10     5     2    1
    11     3     2    2
    12     2     4    1
    13     2     1    1
