@<TRIPOS>MOLECULE
2iz1_ATR_A_1.pdb
 31 33 0 0 0
SMALL
GASTEIGER

@<TRIPOS>ATOM
      1  O4'        2.8390  -11.1890   64.7970 O.3   1470  ATR1470    -0.3136
      2  C3'        1.1840  -12.6980   64.2060 C.3   1470  ATR1470     0.2157
      3  O3'        1.3190  -12.6250   62.7780 O.3   1470  ATR1470    -0.2175
      4  C2'        2.3240  -13.4960   64.7930 C.3   1470  ATR1470     0.2314
      5  O2'        2.6310  -14.6760   64.0670 O.3   1470  ATR1470    -0.2630
      6  P2'        1.9060  -16.0400   64.5410 P.3   1470  ATR1470     0.5328
      7  O1P        3.0190  -17.0390   64.3960 O.3   1470  ATR1470    -0.1145
      8  O2P        1.4580  -15.7470   65.9530 O.3   1470  ATR1470    -0.1145
      9  O3P        0.7480  -16.2610   63.5960 O.2   1470  ATR1470    -0.2224
     10  C1'        3.4660  -12.4860   64.9560 C.3   1470  ATR1470     0.3158
     11  N9         4.0130  -12.6320   66.3340 N.pl3 1470  ATR1470    -0.1439
     12  C8         3.2870  -12.4940   67.4550 C.3   1470  ATR1470     0.3377
     13  N7         4.0740  -12.6920   68.5290 N.2   1470  ATR1470    -0.2095
     14  C5         5.3160  -12.9620   68.0820 C.2   1470  ATR1470     0.2526
     15  C6         6.5200  -13.2350   68.7330 C.2   1470  ATR1470     0.4393
     16  N6         6.5650  -13.2730   70.0940 N.pl3 1470  ATR1470     0.2180
     17  N1         7.6340  -13.4640   67.9900 N.2   1470  ATR1470     0.0021
     18  C2         7.5810  -13.4260   66.6470 C.3   1470  ATR1470     0.5254
     19  N3         6.4270  -13.1590   66.0090 N.2   1470  ATR1470    -0.0055
     20  C4         5.2770  -12.9220   66.6960 C.2   1470  ATR1470     0.3518
     21  PB        -3.5000  -12.2270   65.9120 P.3   1470  ATR1470     0.5373
     22  O1B       -4.6890  -12.2320   64.9810 O.2   1470  ATR1470    -0.2221
     23  O2B       -2.3580  -13.1050   65.4560 O.3   1470  ATR1470    -0.1143
     24  O3B       -3.8460  -12.3700   67.3810 O.3   1470  ATR1470    -0.1143
     25  PA        -1.4420  -10.1480   66.0170 P.3   1470  ATR1470     0.2231
     26  O1A       -0.7830  -11.0000   67.0810 O.3   1470  ATR1470    -0.4370
     27  O2A       -1.5430   -8.6470   66.1760 O.2   1470  ATR1470    -0.5169
     28  O3A       -2.9320  -10.7240   65.8020 O.3   1470  ATR1470    -0.2261
     29  O5'       -0.7580  -10.4480   64.5820 O.3   1470  ATR1470    -0.3111
     30  C5'        0.6190  -10.2020   64.2920 C.3   1470  ATR1470     0.1813
     31  C4'        1.4230  -11.3550   64.8680 C.3   1470  ATR1470     0.1820
@<TRIPOS>BOND
     1     3     2    1
     2     9     6    2
     3     5     6    1
     4     5     4    1
     5     2     4    1
     6     2    31    1
     7    30    29    1
     8    30    31    1
     9     7     6    1
    10     6     8    1
    11    29    25    1
    12     4    10    1
    13     1    31    1
    14     1    10    1
    15    10    11    1
    16    22    21    2
    17    23    21    1
    18    28    21    1
    19    28    25    1
    20    21    24    1
    21    19    18    1
    22    19    20    2
    23    25    27    2
    24    25    26    1
    25    11    20    1
    26    11    12    1
    27    18    17    1
    28    20    14    1
    29    12    13    1
    30    17    15    2
    31    14    13    2
    32    14    15    1
    33    15    16    1
