@<TRIPOS>MOLECULE
2izf_BTN_B_1.pdb
 18 19 0 0 0
SMALL
GASTEIGER

@<TRIPOS>ATOM
      1  C11       29.2040   14.1870   -9.6350 C.2   300  BTN300      0.3649
      2  O11       27.9790   13.9920   -9.5840 O.co2 300  BTN300     -0.2457
      3  O12       29.9090   13.7300  -10.5630 O.co2 300  BTN300     -0.2457
      4  C10       29.8680   15.0550   -8.5650 C.3   300  BTN300      0.1141
      5  C9        31.3130   14.7040   -8.2430 C.3   300  BTN300      0.0118
      6  C8        31.3350   13.4210   -7.4260 C.3   300  BTN300      0.0015
      7  C7        32.7230   13.0720   -6.9350 C.3   300  BTN300      0.0125
      8  C2        32.7430   11.7170   -6.1560 C.3   300  BTN300      0.0673
      9  S1        32.0700   11.8960   -4.4530 S.3   300  BTN300     -0.1376
     10  C6        32.7560   10.2380   -4.0610 C.3   300  BTN300      0.0788
     11  C5        34.0840   10.1200   -4.7960 C.3   300  BTN300      0.1025
     12  N1        35.0730   10.6750   -3.9270 N.am  300  BTN300     -0.2881
     13  C3        35.6760   11.7350   -4.4470 C.2   300  BTN300      0.3008
     14  O3        36.6260   12.3280   -3.9050 O.2   300  BTN300     -0.2528
     15  N2        35.1340   12.0740   -5.6020 N.am  300  BTN300     -0.2881
     16  C4        34.1440   11.0820   -5.9970 C.3   300  BTN300      0.1017
     17  HN1       35.2400   10.2880   -3.0630 H     300  BTN300      0.1510
     18  HN2       35.3370   12.8770   -6.1310 H     300  BTN300      0.1510
@<TRIPOS>BOND
     1     3     1   ar
     2     1     2   ar
     3     1     4    1
     4     4     5    1
     5     5     6    1
     6     6     7    1
     7     7     8    1
     8     8    16    1
     9     8     9    1
    10    18    15    1
    11    16    15    1
    12    16    11    1
    13    15    13   am
    14    11    10    1
    15    11    12    1
    16     9    10    1
    17    13    12   am
    18    13    14    2
    19    12    17    1
