@<TRIPOS>MOLECULE
2izg_BTN_B_1.pdb
 31 32 0 0 0
SMALL
GASTEIGER

@<TRIPOS>ATOM
      1  C11       29.3870   14.2790   -9.6520 C.2   300  BTN300      0.3560
      2  O11       28.1860   14.0990   -9.5510 O.co2 300  BTN300     -0.2464
      3  O12       30.1080   13.8150  -10.5440 O.co2 300  BTN300     -0.2464
      4  C10       29.9990   15.1850   -8.5590 C.3   300  BTN300      0.0492
      5  C9        31.4470   14.7850   -8.2100 C.3   300  BTN300     -0.0428
      6  C8        31.4500   13.4630   -7.4490 C.3   300  BTN300     -0.0515
      7  C7        32.8890   13.1320   -6.9860 C.3   300  BTN300     -0.0394
      8  C2        32.8590   11.8140   -6.0810 C.3   300  BTN300      0.0255
      9  S1        32.1300   11.9740   -4.4570 S.3   300  BTN300     -0.1536
     10  C6        32.9040   10.3850   -3.9970 C.3   300  BTN300      0.0143
     11  C5        34.2310   10.2170   -4.7030 C.3   300  BTN300      0.0529
     12  N1        35.2650   10.7780   -3.8700 N.am  300  BTN300     -0.2940
     13  C3        35.8570   11.8430   -4.4080 C.2   300  BTN300      0.3002
     14  O3        36.8000   12.4380   -3.8950 O.2   300  BTN300     -0.2528
     15  N2        35.2830   12.1580   -5.5630 N.am  300  BTN300     -0.2937
     16  C4        34.2680   11.1750   -5.9430 C.3   300  BTN300      0.0555
     17 H101       29.9610   16.2120   -8.8940 H     300  BTN300      0.0379
     18 H102       29.3960   15.1040   -7.6660 H     300  BTN300      0.0379
     19  H91       32.0340   14.7010   -9.1120 H     300  BTN300      0.0270
     20  H92       31.8760   15.5610   -7.5930 H     300  BTN300      0.0270
     21  H81       30.7830   13.5220   -6.5990 H     300  BTN300      0.0266
     22  H82       31.1070   12.6860   -8.1130 H     300  BTN300      0.0266
     23  H71       33.5240   12.9820   -7.8480 H     300  BTN300      0.0276
     24  H72       33.2900   13.9560   -6.4060 H     300  BTN300      0.0276
     25  H2        32.2460   11.0860   -6.5920 H     300  BTN300      0.0431
     26  H61       32.2220    9.6150   -4.3030 H     300  BTN300      0.0395
     27  H62       33.0110   10.3510   -2.9250 H     300  BTN300      0.0395
     28  H5        34.4550    9.1980   -4.9530 H     300  BTN300      0.0525
     29  HN1       35.4830   10.3900   -3.0090 H     300  BTN300      0.1506
     30  HN2       35.5000   12.9500   -6.1130 H     300  BTN300      0.1506
     31  H4        34.5710   10.6540   -6.8380 H     300  BTN300      0.0528
@<TRIPOS>BOND
     1     3     1   ar
     2     1     2   ar
     3     1     4    1
     4    19     5    1
     5    17     4    1
     6     4     5    1
     7     4    18    1
     8     5    20    1
     9     5     6    1
    10    22     6    1
    11    23     7    1
    12     6     7    1
    13     6    21    1
    14     7    24    1
    15     7     8    1
    16    31    16    1
    17    25     8    1
    18    30    15    1
    19     8    16    1
    20     8     9    1
    21    16    15    1
    22    16    11    1
    23    15    13   am
    24    28    11    1
    25    11    10    1
    26    11    12    1
    27     9    10    1
    28    13    14    2
    29    13    12   am
    30    26    10    1
    31    10    27    1
    32    12    29    1
