@<TRIPOS>MOLECULE
2izh_BTN_B_1.pdb
 31 32 0 0 0
SMALL
GASTEIGER

@<TRIPOS>ATOM
      1  C11       29.2900   14.1620   -9.5960 C.2   300  BTN300      0.3560
      2  O11       28.1070   13.8790   -9.5060 O.co2 300  BTN300     -0.2464
      3  O12       30.0650   13.8080  -10.4800 O.co2 300  BTN300     -0.2464
      4  C10       29.8630   15.0870   -8.4960 C.3   300  BTN300      0.0492
      5  C9        31.2880   14.7070   -8.0870 C.3   300  BTN300     -0.0428
      6  C8        31.3430   13.3490   -7.3810 C.3   300  BTN300     -0.0515
      7  C7        32.7770   13.1050   -6.8890 C.3   300  BTN300     -0.0394
      8  C2        32.8210   11.8000   -6.0630 C.3   300  BTN300      0.0255
      9  S1        32.1620   11.9420   -4.3640 S.3   300  BTN300     -0.1536
     10  C6        32.8860   10.3420   -3.9780 C.3   300  BTN300      0.0143
     11  C5        34.2090   10.1460   -4.7160 C.3   300  BTN300      0.0529
     12  N1        35.2710   10.6560   -3.8770 N.am  300  BTN300     -0.2940
     13  C3        35.8000   11.7760   -4.3530 C.2   300  BTN300      0.3002
     14  O3        36.7240   12.3710   -3.8220 O.2   300  BTN300     -0.2528
     15  N2        35.1940   12.1600   -5.4790 N.am  300  BTN300     -0.2937
     16  C4        34.2330   11.1700   -5.9440 C.3   300  BTN300      0.0555
     17 H101       29.8460   16.1020   -8.8620 H     300  BTN300      0.0379
     18 H102       29.2260   15.0300   -7.6270 H     300  BTN300      0.0379
     19  H91       31.9310   14.6940   -8.9520 H     300  BTN300      0.0270
     20  H92       31.6460   15.4690   -7.4090 H     300  BTN300      0.0270
     21  H81       30.6470   13.3420   -6.5510 H     300  BTN300      0.0266
     22  H82       31.0700   12.5770   -8.0810 H     300  BTN300      0.0266
     23  H71       33.4420   13.0170   -7.7370 H     300  BTN300      0.0276
     24  H72       33.1020   13.9370   -6.2760 H     300  BTN300      0.0276
     25  H2        32.1950   11.0780   -6.5560 H     300  BTN300      0.0431
     26  H61       32.1830    9.5800   -4.2750 H     300  BTN300      0.0395
     27  H62       33.0350   10.2770   -2.9100 H     300  BTN300      0.0395
     28  H5        34.4050    9.1210   -4.9970 H     300  BTN300      0.0525
     29  HN1       35.5350   10.1970   -3.0670 H     300  BTN300      0.1506
     30  HN2       35.3620   13.0080   -5.9570 H     300  BTN300      0.1506
     31  H4        34.5660   10.7120   -6.8640 H     300  BTN300      0.0528
@<TRIPOS>BOND
     1     3     1   ar
     2     1     2   ar
     3     1     4    1
     4    19     5    1
     5    17     4    1
     6     4     5    1
     7     4    18    1
     8     5    20    1
     9     5     6    1
    10    22     6    1
    11    23     7    1
    12     6     7    1
    13     6    21    1
    14     7    24    1
    15     7     8    1
    16    31    16    1
    17    25     8    1
    18     8    16    1
    19     8     9    1
    20    30    15    1
    21    16    15    1
    22    16    11    1
    23    15    13   am
    24    28    11    1
    25    11    10    1
    26    11    12    1
    27     9    10    1
    28    13    12   am
    29    13    14    2
    30    26    10    1
    31    10    27    1
    32    12    29    1
