@<TRIPOS>MOLECULE
2izi_BTN_A_1.pdb
 31 32 0 0 0
SMALL
GASTEIGER

@<TRIPOS>ATOM
      1  C11        9.1970    4.1170  -14.3550 C.2   300  BTN300      0.3560
      2  O11        8.2690    4.8350  -14.0310 O.co2 300  BTN300     -0.2464
      3  O12        9.1100    3.1370  -15.0860 O.co2 300  BTN300     -0.2464
      4  C10       10.5590    4.5060  -13.8090 C.3   300  BTN300      0.0492
      5  C9        11.2870    3.3670  -13.1330 C.3   300  BTN300     -0.0428
      6  C8        10.5690    2.8390  -11.9220 C.3   300  BTN300     -0.0515
      7  C7        11.4460    1.7030  -11.4010 C.3   300  BTN300     -0.0394
      8  C2        10.8830    1.1040  -10.0950 C.3   300  BTN300      0.0255
      9  S1        10.8490    2.0630   -8.5620 S.3   300  BTN300     -0.1536
     10  C6        10.5540    0.5380   -7.6890 C.3   300  BTN300      0.0143
     11  C5        11.2090   -0.6930   -8.3420 C.3   300  BTN300      0.0529
     12  N1        12.5140   -0.8410   -7.7460 N.am  300  BTN300     -0.2940
     13  C3        13.4920   -0.5160   -8.5930 C.2   300  BTN300      0.3002
     14  O3        14.6950   -0.5040   -8.3060 O.2   300  BTN300     -0.2528
     15  N2        12.9890   -0.2010   -9.7890 N.am  300  BTN300     -0.2937
     16  C4        11.5450   -0.3160   -9.8360 C.3   300  BTN300      0.0555
     17 H101       11.1580    4.8820  -14.6260 H     300  BTN300      0.0379
     18 H102       10.4210    5.3020  -13.1020 H     300  BTN300      0.0379
     19  H91       11.4250    2.5710  -13.8460 H     300  BTN300      0.0270
     20  H92       12.2640    3.7170  -12.8420 H     300  BTN300      0.0270
     21  H81       10.4220    3.6080  -11.1830 H     300  BTN300      0.0266
     22  H82        9.6150    2.4420  -12.2270 H     300  BTN300      0.0266
     23  H71       11.4970    0.9330  -12.1610 H     300  BTN300      0.0276
     24  H72       12.4420    2.0780  -11.2280 H     300  BTN300      0.0276
     25  H2         9.8490    0.8820  -10.3070 H     300  BTN300      0.0431
     26  H61        9.4920    0.4070   -7.6470 H     300  BTN300      0.0395
     27  H62       10.9310    0.6560   -6.6920 H     300  BTN300      0.0395
     28  H5        10.6450   -1.6090   -8.2680 H     300  BTN300      0.0525
     29  HN1       12.6150   -1.1460   -6.8310 H     300  BTN300      0.1506
     30  HN2       13.5210    0.0840  -10.5670 H     300  BTN300      0.1506
     31  H4        11.2350   -1.0880  -10.5180 H     300  BTN300      0.0528
@<TRIPOS>BOND
     1     3     1   ar
     2    17     4    1
     3     1     2   ar
     4     1     4    1
     5    19     5    1
     6     4     5    1
     7     4    18    1
     8     5    20    1
     9     5     6    1
    10    22     6    1
    11    23     7    1
    12     6     7    1
    13     6    21    1
    14     7    24    1
    15     7     8    1
    16    30    15    1
    17    31    16    1
    18    25     8    1
    19     8    16    1
    20     8     9    1
    21    16    15    1
    22    16    11    1
    23    15    13   am
    24    13    14    2
    25    13    12   am
    26     9    10    1
    27    11    28    1
    28    11    12    1
    29    11    10    1
    30    12    29    1
    31    10    26    1
    32    10    27    1
