@<TRIPOS>MOLECULE
2izj_BTN_A_1.pdb
 31 32 0 0 0
SMALL
GASTEIGER

@<TRIPOS>ATOM
      1  C11        9.3260    4.1470  -14.1770 C.2   300  BTN300      0.3560
      2  O11        8.4870    4.9740  -13.8460 O.co2 300  BTN300     -0.2464
      3  O12        9.1240    3.1110  -14.8010 O.co2 300  BTN300     -0.2464
      4  C10       10.8210    4.4180  -13.7970 C.3   300  BTN300      0.0492
      5  C9        11.4970    3.1780  -13.1850 C.3   300  BTN300     -0.0428
      6  C8        10.7450    2.7200  -12.0100 C.3   300  BTN300     -0.0515
      7  C7        11.6410    1.6400  -11.3890 C.3   300  BTN300     -0.0394
      8  C2        10.9530    1.0330  -10.0980 C.3   300  BTN300      0.0255
      9  S1        10.4370    2.0390   -8.7000 S.3   300  BTN300     -0.1536
     10  C6        10.5210    0.5820   -7.6500 C.3   300  BTN300      0.0143
     11  C5        11.2490   -0.6160   -8.2520 C.3   300  BTN300      0.0529
     12  N1        12.5550   -0.7650   -7.6540 N.am  300  BTN300     -0.2940
     13  C3        13.5350   -0.4730   -8.5110 C.2   300  BTN300      0.3002
     14  O3        14.7370   -0.4920   -8.2460 O.2   300  BTN300     -0.2528
     15  N2        13.0100   -0.1580   -9.7010 N.am  300  BTN300     -0.2937
     16  C4        11.5930   -0.2930   -9.7240 C.3   300  BTN300      0.0555
     17 H101       11.3370    4.6500  -14.7120 H     300  BTN300      0.0379
     18 H102       10.8570    5.2660  -13.1350 H     300  BTN300      0.0379
     19  H91       11.5720    2.3670  -13.8900 H     300  BTN300      0.0270
     20  H92       12.5000    3.4510  -12.8890 H     300  BTN300      0.0270
     21  H81       10.6210    3.5480  -11.3270 H     300  BTN300      0.0266
     22  H82        9.7790    2.3220  -12.2890 H     300  BTN300      0.0266
     23  H71       11.8210    0.8630  -12.1310 H     300  BTN300      0.0276
     24  H72       12.5870    2.0790  -11.0890 H     300  BTN300      0.0276
     25  H2        10.0070    0.7100  -10.4760 H     300  BTN300      0.0431
     26  H61        9.4980    0.3260   -7.4610 H     300  BTN300      0.0395
     27  H62       10.9830    0.8450   -6.7100 H     300  BTN300      0.0395
     28  H5        10.6710   -1.5300   -8.1730 H     300  BTN300      0.0525
     29  HN1       12.6580   -1.0480   -6.7330 H     300  BTN300      0.1506
     30  HN2       13.5310    0.1360  -10.4890 H     300  BTN300      0.1506
     31  H4        11.2910   -1.1200  -10.3730 H     300  BTN300      0.0528
@<TRIPOS>BOND
     1     3     1   ar
     2    17     4    1
     3     1     2   ar
     4     1     4    1
     5    19     5    1
     6     4     5    1
     7     4    18    1
     8     5    20    1
     9     5     6    1
    10    22     6    1
    11    23     7    1
    12     6     7    1
    13     6    21    1
    14     7    24    1
    15     7     8    1
    16    30    15    1
    17    25     8    1
    18    31    16    1
    19     8    16    1
    20     8     9    1
    21    16    15    1
    22    16    11    1
    23    15    13   am
    24     9    10    1
    25    13    14    2
    26    13    12   am
    27    11    28    1
    28    11    12    1
    29    11    10    1
    30    12    29    1
    31    10    26    1
    32    10    27    1
