@<TRIPOS>MOLECULE
2izk_GLL_A_1.pdb
 16 17 0 0 0
SMALL
GASTEIGER

@<TRIPOS>ATOM
      1  C1        13.6870   -0.6260   -8.2510 C.2   300  GLL300      0.3025
      2  O1        14.8390   -0.7430   -7.8820 O.2   300  GLL300     -0.2528
      3  N1        13.2580   -0.3000   -9.4410 N.am  300  GLL300     -0.2778
      4  N2        12.6950   -0.8300   -7.4330 N.am  300  GLL300     -0.2778
      5  C2        11.7770   -0.3420   -9.5410 C.3   300  GLL300      0.1272
      6  C3        11.3570   -0.6750   -8.1060 C.3   300  GLL300      0.1272
      7  N1'       11.1710    1.0140   -9.7490 N.am  300  GLL300     -0.2778
      8  N2'       10.4880    0.5080   -7.7770 N.am  300  GLL300     -0.2778
      9  C1'       10.5150    1.4310   -8.7060 C.2   300  GLL300      0.3025
     10  O1'        9.9760    2.5030   -8.5440 O.2   300  GLL300     -0.2528
     11  HN1       13.7920   -0.0270  -10.2460 H     300  GLL300      0.1521
     12  HN2       12.8220   -1.0570   -6.5010 H     300  GLL300      0.1521
     13  H2        11.4420   -1.0530  -10.2790 H     300  GLL300      0.0744
     14  H3        10.7890   -1.5940   -8.0510 H     300  GLL300      0.0744
     15 HN1'       11.2760    1.5370  -10.6440 H     300  GLL300      0.1521
     16 HN2'        9.9310    0.6120   -6.9710 H     300  GLL300      0.1521
@<TRIPOS>BOND
     1    15     7    1
     2    13     5    1
     3    11     3    1
     4     7     5    1
     5     7     9   am
     6     5     3    1
     7     5     6    1
     8     3     1   am
     9     9    10    2
    10     9     8   am
    11     1     2    2
    12     1     4   am
    13     6    14    1
    14     6     8    1
    15     6     4    1
    16     8    16    1
    17     4    12    1
