@<TRIPOS>MOLECULE
2izl_IMI_B_1.pdb
 33 34 0 0 0
SMALL
GASTEIGER

@<TRIPOS>ATOM
      1  C11       29.2980   14.3270   -9.8890 C.2   300  IMI300      0.3560
      2  O11       28.0900   14.1070   -9.8120 O.co2 300  IMI300     -0.2464
      3  O12       30.0100   13.9020  -10.7890 O.co2 300  IMI300     -0.2464
      4  C10       29.9750   15.2140   -8.8110 C.3   300  IMI300      0.0492
      5  C9        31.4330   14.8050   -8.4620 C.3   300  IMI300     -0.0428
      6  C8        31.4760   13.4260   -7.7710 C.3   300  IMI300     -0.0515
      7  C7        32.8560   13.2180   -7.1340 C.3   300  IMI300     -0.0396
      8  C2        32.8280   11.9210   -6.2780 C.3   300  IMI300      0.0222
      9  S1        32.0850   12.0150   -4.6360 S.3   300  IMI300     -0.1542
     10  C6        32.8850   10.4480   -4.1980 C.3   300  IMI300      0.0110
     11  C5        34.2070   10.2490   -4.9770 C.3   300  IMI300      0.0360
     12  N1        35.3210   10.7870   -4.1460 N.3   300  IMI300     -0.2778
     13  C3        35.8070   11.8830   -4.6390 C.3   300  IMI300      0.1701
     14  N3        36.7610   12.5430   -4.0600 N.3   300  IMI300     -0.2969
     15  N2        35.2340   12.2360   -5.7600 N.3   300  IMI300     -0.2775
     16  C4        34.2240   11.2500   -6.2010 C.3   300  IMI300      0.0385
     17 H101       29.9870   16.2350   -9.1620 H     300  IMI300      0.0379
     18 H102       29.3790   15.1750   -7.9140 H     300  IMI300      0.0379
     19  H91       32.0340   14.7830   -9.3550 H     300  IMI300      0.0270
     20  H92       31.8530   15.5550   -7.8050 H     300  IMI300      0.0270
     21  H81       30.7020   13.3740   -7.0180 H     300  IMI300      0.0266
     22  H82       31.3030   12.6590   -8.5130 H     300  IMI300      0.0266
     23  H71       33.6110   13.1550   -7.9050 H     300  IMI300      0.0276
     24  H72       33.0920   14.0510   -6.4880 H     300  IMI300      0.0276
     25  H2        32.2290   11.2150   -6.8280 H     300  IMI300      0.0428
     26  H61       32.1970    9.6470   -4.4180 H     300  IMI300      0.0392
     27  H62       33.0800   10.4510   -3.1360 H     300  IMI300      0.0392
     28  H5        34.3970    9.2200   -5.2560 H     300  IMI300      0.0485
     29  HN1       35.6460   10.3610   -3.3270 H     300  IMI300      0.1254
     30  HN3       37.1450   13.3710   -4.4110 H     300  IMI300      0.1213
     31  HN2       35.4430   13.0560   -6.2520 H     300  IMI300      0.1254
     32  H4        34.5320   10.7860   -7.1270 H     300  IMI300      0.0488
     33 HN32       37.1800   12.2650   -3.2200 H     300  IMI300      0.1213
@<TRIPOS>BOND
     1     3     1   ar
     2     1     2   ar
     3     1     4    1
     4    19     5    1
     5    17     4    1
     6     4     5    1
     7     4    18    1
     8    22     6    1
     9     5    20    1
    10     5     6    1
    11    23     7    1
    12     6     7    1
    13     6    21    1
    14     7    24    1
    15     7     8    1
    16    32    16    1
    17    25     8    1
    18     8    16    1
    19     8     9    1
    20    31    15    1
    21    16    15    1
    22    16    11    1
    23    15    13    1
    24    28    11    1
    25    11    10    1
    26    11    12    1
    27    13    12    1
    28    13    14    1
    29     9    10    1
    30    26    10    1
    31    30    14    1
    32    10    27    1
    33    12    29    1
    34    14    33    1
