@<TRIPOS>MOLECULE
2izr_BRK_A_1.pdb
 25 27 0 0 0
SMALL
GASTEIGER

@<TRIPOS>ATOM
      1  CAB        9.7990   31.9630   20.1550 C.3   1335  BRK1335     0.2525
      2  OAP       10.8950   32.4850   20.9280 O.3   1335  BRK1335    -0.4714
      3  CAU       10.5650   33.0970   22.1260 C.ar  1335  BRK1335     0.1387
      4  CAJ       11.5740   33.7680   22.8040 C.ar  1335  BRK1335     0.0370
      5  CAL       11.3390   34.4120   24.0150 C.ar  1335  BRK1335     0.0060
      6  CAI        9.2880   33.0520   22.6800 C.ar  1335  BRK1335     0.0370
      7  CAK        9.0260   33.6850   23.9020 C.ar  1335  BRK1335     0.0060
      8  CAW       10.0580   34.3570   24.5680 C.ar  1335  BRK1335     0.0362
      9  CAR        9.8310   35.0770   25.8870 C.2   1335  BRK1335     0.1913
     10  OAD       10.3520   36.1730   26.1200 O.2   1335  BRK1335    -0.2899
     11  CAY        9.0650   34.3580   26.9580 C.3   1335  BRK1335     0.1864
     12  SAQ        8.5260   32.7350   26.8480 S.3   1335  BRK1335    -0.0494
     13  CAV        8.7590   34.8890   28.2150 C.2   1335  BRK1335     0.2162
     14  NAC        9.0490   36.1400   28.6110 N.pl3 1335  BRK1335    -0.0965
     15  NAM        8.1400   34.0210   29.0440 N.2   1335  BRK1335    -0.3642
     16  CAX        7.9310   32.7940   28.4930 C.2   1335  BRK1335     0.2328
     17  NAN        7.2990   31.8370   29.1030 N.pl3 1335  BRK1335    -0.1781
     18  CAS        7.0670   30.6000   28.5890 C.ar  1335  BRK1335     0.0738
     19  CAE        5.7980   30.0310   28.7270 C.ar  1335  BRK1335     0.0197
     20  CAG        5.5140   28.7560   28.2380 C.ar  1335  BRK1335     0.0382
     21  CAT        6.5270   28.0180   27.6230 C.ar  1335  BRK1335     0.1388
     22  OAO        6.3030   26.7520   27.1280 O.3   1335  BRK1335    -0.4714
     23  CAA        5.0210   26.5870   26.4970 C.3   1335  BRK1335     0.2525
     24  CAH        7.7960   28.5690   27.5070 C.ar  1335  BRK1335     0.0382
     25  CAF        8.0650   29.8460   28.0020 C.ar  1335  BRK1335     0.0197
@<TRIPOS>BOND
     1     1     2    1
     2     2     3    1
     3     3     6   ar
     4     3     4   ar
     5     6     7   ar
     6     4     5   ar
     7     7     8   ar
     8     5     8   ar
     9     8     9    1
    10     9    10    2
    11     9    11    1
    12    23    22    1
    13    12    11    1
    14    12    16    1
    15    11    13    1
    16    22    21    1
    17    24    21   ar
    18    24    25   ar
    19    21    20   ar
    20    25    18   ar
    21    13    14    1
    22    13    15    2
    23    20    19   ar
    24    16    15    2
    25    16    17    1
    26    18    19   ar
    27    18    17    1
