@<TRIPOS>MOLECULE
2izs_BRQ_A_1.pdb
 23 25 0 0 0
SMALL
GASTEIGER

@<TRIPOS>ATOM
      1  CAL       33.9120  -18.9520   28.4720 C.ar  1334  BRQ1334     0.0280
      2  CAS       33.6520  -20.2220   27.9990 C.ar  1334  BRQ1334     0.0590
      3 CL         32.1270  -20.9810   28.3560 Cl    1334  BRQ1334    -0.0822
      4  CAF       34.6080  -20.8600   27.2320 C.ar  1334  BRQ1334     0.0115
      5  CAE       35.8330  -20.2740   26.9370 C.ar  1334  BRQ1334     0.0022
      6  CAI       36.0970  -19.0050   27.4270 C.ar  1334  BRQ1334     0.0167
      7  CAT       35.1240  -18.3530   28.1770 C.ar  1334  BRQ1334     0.0744
      8  NAN       35.3210  -17.1590   28.6640 N.pl3 1334  BRQ1334    -0.1781
      9  CAV       35.8660  -16.1630   27.9990 C.2   1334  BRQ1334     0.2328
     10  SAO       36.4640  -16.1760   26.3380 S.3   1334  BRQ1334    -0.0494
     11  NAM       36.0470  -14.9840   28.6120 N.2   1334  BRQ1334    -0.3642
     12  CAR       36.6090  -14.0930   27.7960 C.2   1334  BRQ1334     0.2162
     13  NAA       36.8330  -12.8850   28.2410 N.pl3 1334  BRQ1334    -0.0965
     14  CAW       36.9030  -14.5610   26.4860 C.3   1334  BRQ1334     0.1864
     15  CAP       37.6230  -13.7680   25.3890 C.2   1334  BRQ1334     0.1913
     16  OAB       38.0200  -12.6220   25.5850 O.2   1334  BRQ1334    -0.2899
     17  CAU       37.9370  -14.4680   24.0830 C.ar  1334  BRQ1334     0.0362
     18  CAJ       36.9220  -15.1360   23.3780 C.ar  1334  BRQ1334     0.0052
     19  CAG       37.2300  -15.7810   22.1900 C.ar  1334  BRQ1334     0.0297
     20  CAQ       38.5360  -15.7230   21.6990 C.ar  1334  BRQ1334     0.1401
     21  F         38.8150  -16.3350   20.5360 F     1334  BRQ1334    -0.2042
     22  CAH       39.5390  -15.0420   22.3890 C.ar  1334  BRQ1334     0.0297
     23  CAK       39.2480  -14.4220   23.5910 C.ar  1334  BRQ1334     0.0052
@<TRIPOS>BOND
     1    21    20    1
     2    20    19   ar
     3    20    22   ar
     4    19    18   ar
     5    22    23   ar
     6    18    17   ar
     7    23    17   ar
     8    17    15    1
     9    15    16    2
    10    15    14    1
    11    10    14    1
    12    10     9    1
    13    14    12    1
    14     5     4   ar
    15     5     6   ar
    16     4     2   ar
    17     6     7   ar
    18    12    13    1
    19    12    11    2
    20     9    11    2
    21     9     8    1
    22     2     3    1
    23     2     1   ar
    24     7     1   ar
    25     7     8    1
