@<TRIPOS>MOLECULE
2izt_23D_A_1.pdb
 21 23 0 0 0
SMALL
GASTEIGER

@<TRIPOS>ATOM
      1  CAS       34.1600  -19.1470   28.6320 C.ar  1335  23D1335     0.0280
      2  CAQ       33.7200  -20.4280   28.3420 C.ar  1335  23D1335     0.0590
      3 CL1        32.2530  -20.9790   29.1700 Cl    1335  23D1335    -0.0822
      4  CAP       34.4190  -21.2460   27.4680 C.ar  1335  23D1335     0.0115
      5  CAO       35.5490  -20.7690   26.8520 C.ar  1335  23D1335     0.0022
      6  CAN       35.9960  -19.4850   27.1270 C.ar  1335  23D1335     0.0166
      7  CAM       35.3130  -18.6740   28.0520 C.ar  1335  23D1335     0.0740
      8  N6        35.6050  -17.3770   28.1990 N.pl3 1335  23D1335    -0.1814
      9  C6        35.8990  -16.6190   27.1220 C.2   1335  23D1335     0.2383
     10  N1        35.9050  -17.0510   25.8360 N.2   1335  23D1335    -0.3081
     11  C5        36.2760  -15.3060   27.3880 C.2   1335  23D1335     0.1693
     12  N7        36.3890  -14.5600   28.5000 N.2   1335  23D1335    -0.2402
     13  C8        36.8190  -13.3270   28.1310 C.3   1335  23D1335     0.2221
     14  N9        36.9970  -13.2770   26.7970 N.pl3 1335  23D1335    -0.2608
     15  CAZ       37.4300  -12.0870   26.0550 C.3   1335  23D1335     0.0951
     16  CBA       38.9350  -11.9430   26.0760 C.3   1335  23D1335     0.0233
     17  C4        36.6740  -14.4600   26.2560 C.2   1335  23D1335     0.2198
     18  N3        36.6300  -14.9730   24.9930 N.2   1335  23D1335    -0.3099
     19  C2        36.2660  -16.2520   24.7920 C.1   1335  23D1335     0.2228
     20  N2        36.2430  -16.7410   23.5360 N.pl3 1335  23D1335    -0.1498
     21  CAG       36.5220  -15.8640   22.4050 C.3   1335  23D1335     0.1504
@<TRIPOS>BOND
     1    21    20    1
     2    20    19    1
     3    19    18    2
     4    19    10    2
     5    18    17    2
     6    10     9    2
     7    15    16    1
     8    15    14    1
     9    17    14    1
    10    17    11    1
    11    14    13    1
    12     5     6   ar
    13     5     4   ar
    14     9    11    1
    15     9     8    1
    16     6     7   ar
    17    11    12    2
    18     4     2   ar
    19     7     8    1
    20     7     1   ar
    21    13    12    1
    22     2     1   ar
    23     2     3    1
