@<TRIPOS>MOLECULE
2izu_P01_A_1.pdb
 27 29 0 0 0
SMALL
GASTEIGER

@<TRIPOS>ATOM
      1 CL1       -35.0920   17.7450  -28.8850 Cl    1335  P011335    -0.0822
      2  C5A      -35.1900   19.2900  -28.1090 C.ar  1335  P011335     0.0590
      3  C6A      -34.2100   20.2580  -28.3590 C.ar  1335  P011335     0.0280
      4  C1A      -34.2600   21.5140  -27.7380 C.ar  1335  P011335     0.0740
      5  C2A      -35.3260   21.7810  -26.8640 C.ar  1335  P011335     0.0166
      6  C3A      -36.3010   20.8120  -26.6160 C.ar  1335  P011335     0.0022
      7  C4A      -36.2370   19.5660  -27.2390 C.ar  1335  P011335     0.0115
      8  N6       -33.2950   22.4220  -28.0180 N.pl3 1335  P011335    -0.1814
      9  C6       -32.6790   23.2100  -27.1190 C.2   1335  P011335     0.2383
     10  C5       -31.8500   24.2660  -27.5280 C.2   1335  P011335     0.1693
     11  N7       -31.4770   24.7150  -28.7210 N.2   1335  P011335    -0.2402
     12  C4       -31.2440   25.0690  -26.5710 C.2   1335  P011335     0.2197
     13  N9       -30.5200   25.9480  -27.2250 N.pl3 1335  P011335    -0.2624
     14  C10      -29.7110   27.0210  -26.6040 C.3   1335  P011335     0.0770
     15  C11      -28.4450   27.3000  -27.4180 C.3   1335  P011335     0.0216
     16  C12      -30.5900   28.2770  -26.4690 C.3   1335  P011335     0.0216
     17  C8       -30.6510   25.7410  -28.5390 C.3   1335  P011335     0.2220
     18  N3       -31.4570   24.8520  -25.2720 N.2   1335  P011335    -0.3099
     19  C2       -32.2550   23.8330  -24.9060 C.1   1335  P011335     0.2227
     20  N1       -32.8430   23.0350  -25.8190 N.2   1335  P011335    -0.3081
     21  N21      -32.4350   23.6000  -23.6060 N.pl3 1335  P011335    -0.1508
     22  C22      -33.0370   22.3500  -23.1010 C.3   1335  P011335     0.1384
     23  C25      -34.0890   22.6940  -22.0400 C.3   1335  P011335     0.0234
     24  C26      -35.0410   23.8060  -22.5480 C.3   1335  P011335     0.0019
     25  C27      -34.8340   21.4100  -21.6350 C.3   1335  P011335     0.0019
     26  C23      -31.9930   21.3630  -22.5110 C.3   1335  P011335     0.2044
     27  O24      -31.2790   21.9870  -21.4400 O.3   1335  P011335    -0.2185
@<TRIPOS>BOND
     1     1     2    1
     2    11    17    1
     3    11    10    2
     4    17    13    1
     5     3     2   ar
     6     3     4   ar
     7     2     7   ar
     8     8     4    1
     9     8     9    1
    10     4     5   ar
    11    10     9    1
    12    10    12    1
    13    15    14    1
    14     7     6   ar
    15    13    14    1
    16    13    12    1
    17     9    20    2
    18     5     6   ar
    19    14    16    1
    20    12    18    2
    21    20    19    2
    22    18    19    2
    23    19    21    1
    24    21    22    1
    25    22    26    1
    26    22    23    1
    27    24    23    1
    28    26    27    1
    29    23    25    1
