@<TRIPOS>MOLECULE
2izz_NAD_A_1.pdb
 44 48 0 0 0
SMALL
GASTEIGER

@<TRIPOS>ATOM
      1  PA        25.1500  161.7530   26.3830 P.3   350  NAD350      0.2189
      2  O1A       26.4090  161.6520   25.5830 O.2   350  NAD350     -0.5170
      3  O2A       24.4100  160.6170   26.9500 O.3   350  NAD350     -0.4371
      4  O5B       26.0430  161.6740   27.7280 O.3   350  NAD350     -0.3112
      5  C5B       25.5080  161.7240   29.0890 C.3   350  NAD350      0.1813
      6  C4B       26.5200  161.1630   30.1020 C.3   350  NAD350      0.1821
      7  O4B       25.8950  161.1630   31.4310 O.3   350  NAD350     -0.3135
      8  C3B       26.9500  159.7000   29.8330 C.3   350  NAD350      0.2184
      9  O3B       28.3650  159.5740   30.0670 O.3   350  NAD350     -0.2174
     10  C2B       26.1890  158.9490   30.9230 C.3   350  NAD350      0.2570
     11  O2B       26.8150  157.6990   31.2370 O.3   350  NAD350     -0.2130
     12  C1B       26.3420  159.9540   32.0660 C.3   350  NAD350      0.3186
     13  N9A       25.5280  159.6350   33.2810 N.pl3 350  NAD350     -0.1439
     14  C8A       24.3200  159.0410   33.3230 C.3   350  NAD350      0.3377
     15  N7A       23.9200  158.9140   34.5970 N.2   350  NAD350     -0.2095
     16  C5A       24.8840  159.4310   35.3680 C.2   350  NAD350      0.2526
     17  C6A       25.0350  159.5870   36.7450 C.2   350  NAD350      0.4393
     18  N6A       24.0820  159.1600   37.5670 N.pl3 350  NAD350      0.2180
     19  N1A       26.1520  160.1640   37.2210 N.2   350  NAD350      0.0021
     20  C2A       27.1110  160.5800   36.3890 C.3   350  NAD350      0.5254
     21  N3A       26.9970  160.4580   35.0680 N.2   350  NAD350     -0.0055
     22  C4A       25.9000  159.8940   34.5320 C.2   350  NAD350      0.3518
     23  O3        24.6630  163.2190   26.8460 O.3   350  NAD350     -0.2703
     24  PN        25.1730  164.6000   26.1690 P.3   350  NAD350      0.2189
     25  O1N       24.7710  164.7420   24.7470 O.2   350  NAD350     -0.5170
     26  O2N       26.5600  164.8660   26.5840 O.3   350  NAD350     -0.4371
     27  O5D       24.1190  165.5650   26.9440 O.3   350  NAD350     -0.3112
     28  C5D       24.1750  165.7540   28.3540 C.3   350  NAD350      0.1813
     29  C4D       23.4510  167.0560   28.7610 C.3   350  NAD350      0.1799
     30  O4D       24.1060  168.1150   28.0650 O.3   350  NAD350     -0.3327
     31  C3D       21.9700  167.0720   28.3150 C.3   350  NAD350      0.2158
     32  O3D       21.2060  167.6260   29.3760 O.3   350  NAD350     -0.2175
     33  C2D       21.9130  168.0160   27.1210 C.3   350  NAD350      0.2309
     34  O2D       20.6790  168.7730   27.1270 O.3   350  NAD350     -0.2158
     35  C1D       23.1000  168.9310   27.3910 C.3   350  NAD350      0.2263
     36  N1N       23.6270  169.5370   26.1350 N.pl3 350  NAD350     -0.2787
     37  C2N       23.9470  168.7380   25.0220 C.3   350  NAD350      0.1244
     38  C3N       24.4520  169.3200   23.8600 C.2   350  NAD350      0.0544
     39  C7N       24.7760  168.4580   22.6180 C.2   350  NAD350      0.2818
     40  O7N       24.7410  168.9500   21.4940 O.2   350  NAD350     -0.2670
     41  N7N       25.0570  167.1750   22.8330 N.am  350  NAD350     -0.0839
     42  C4N       24.6260  170.7060   23.8070 C.2   350  NAD350      0.0033
     43  C5N       24.3220  171.4990   24.9070 C.2   350  NAD350      0.0157
     44  C6N       23.8240  170.9200   26.0740 C.2   350  NAD350      0.0633
@<TRIPOS>BOND
     1    40    39    2
     2    39    41   am
     3    39    38    1
     4    42    38    2
     5    42    43    1
     6    38    37    1
     7    25    24    2
     8    43    44    2
     9    37    36    1
    10     2     1    2
    11    44    36    1
    12    36    35    1
    13    24    26    1
    14    24    23    1
    15    24    27    1
    16     1    23    1
    17     1     3    1
    18     1     4    1
    19    27    28    1
    20    33    34    1
    21    33    35    1
    22    33    31    1
    23    35    30    1
    24     4     5    1
    25    30    29    1
    26    31    29    1
    27    31    32    1
    28    28    29    1
    29     5     6    1
    30     8     9    1
    31     8     6    1
    32     8    10    1
    33     6     7    1
    34    10    11    1
    35    10    12    1
    36     7    12    1
    37    12    13    1
    38    13    14    1
    39    13    22    1
    40    14    15    1
    41    22    21    2
    42    22    16    1
    43    15    16    2
    44    21    20    1
    45    16    17    1
    46    20    19    1
    47    17    19    2
    48    17    18    1
