@<TRIPOS>MOLECULE
2j07_HDF_A_1.pdb
 26 28 0 0 0
SMALL
GASTEIGER

@<TRIPOS>ATOM
      1  N1        45.6340   11.5660   30.3170 N.2   1422  HDF1422    -0.2915
      2  C2        46.5910   11.1350   29.4450 C.1   1422  HDF1422     0.3667
      3  O2        46.9120   11.8810   28.4760 O.2   1422  HDF1422    -0.1744
      4  N3        47.2000    9.9400   29.5900 N.2   1422  HDF1422    -0.2326
      5  C4        46.9110    9.1310   30.6280 C.1   1422  HDF1422     0.2212
      6  O4        47.5440    8.0840   30.7720 O.2   1422  HDF1422    -0.2084
      7  C4A       45.8420    9.5210   31.6110 C.2   1422  HDF1422     0.1406
      8  C5        45.3830    8.6920   32.6370 C.2   1422  HDF1422     0.0179
      9  C5A       44.3600    9.1220   33.4990 C.ar  1422  HDF1422     0.0148
     10  C6        43.8530    8.2800   34.4900 C.ar  1422  HDF1422     0.0045
     11  C7        42.8660    8.7400   35.3780 C.ar  1422  HDF1422     0.0421
     12  C8        42.2850    9.9770   35.1650 C.ar  1422  HDF1422     0.1970
     13  O8        41.2350   10.3350   35.9500 O.3   1422  HDF1422    -0.2865
     14  C9        42.7090   10.8540   34.1370 C.ar  1422  HDF1422     0.0569
     15  C9A       43.7310   10.4360   33.2730 C.ar  1422  HDF1422     0.0569
     16  N10       44.2750   11.3030   32.2900 N.pl3 1422  HDF1422    -0.2585
     17  C10       45.2230   10.8090   31.3700 C.2   1422  HDF1422     0.2146
     18  C1'       43.5160   12.4410   31.7970 C.3   1422  HDF1422     0.1335
     19  C2'       44.2890   13.6880   32.1610 C.3   1422  HDF1422     0.2048
     20  O2'       44.8280   13.6470   33.4920 O.3   1422  HDF1422    -0.2185
     21  C3'       44.9650   14.4520   30.9860 C.3   1422  HDF1422     0.2166
     22  O3'       46.3800   14.4870   30.8100 O.3   1422  HDF1422    -0.2175
     23  C4'       44.4620   15.8220   31.1920 C.3   1422  HDF1422     0.2175
     24  O4'       43.7970   15.6420   32.4930 O.3   1422  HDF1422    -0.2175
     25  C5'       45.6020   16.8320   30.9850 C.3   1422  HDF1422     0.2175
     26  O5'       45.7240   17.2090   29.5780 O.3   1422  HDF1422    -0.2175
@<TRIPOS>BOND
     1     3     2    2
     2     2     4    2
     3     2     1    2
     4    26    25    1
     5     4     5    2
     6     1    17    2
     7     5     6    2
     8     5     7    1
     9    22    21    1
    10    25    23    1
    11    21    23    1
    12    21    19    1
    13    23    24    1
    14    17     7    1
    15    17    16    1
    16     7     8    2
    17    18    19    1
    18    18    16    1
    19    19    20    1
    20    16    15    1
    21     8     9    1
    22    15     9   ar
    23    15    14   ar
    24     9    10   ar
    25    14    12   ar
    26    10    11   ar
    27    12    11   ar
    28    12    13    1
