@<TRIPOS>MOLECULE
2j08_IRF_A_1.pdb
 27 29 0 0 0
SMALL
GASTEIGER

@<TRIPOS>ATOM
      1  N1        45.7630   11.8210   29.7240 N.2   1422  IRF1422    -0.2890
      2  C2        46.7480   11.1920   28.9810 C.1   1422  IRF1422     0.3669
      3  O2        47.1410   11.7770   27.9410 O.2   1422  IRF1422    -0.1744
      4  N3        47.2780    9.9780   29.3010 N.2   1422  IRF1422    -0.2300
      5  C4        46.8460    9.3280   30.3860 C.1   1422  IRF1422     0.2513
      6  O4        47.2980    8.1830   30.6790 O.2   1422  IRF1422    -0.2057
      7  C4A       45.7950    9.9810   31.2230 C.2   1422  IRF1422     0.2700
      8  N5        45.2560    9.3600   32.2580 N.2   1422  IRF1422    -0.3878
      9  C5A       44.2920    9.9060   33.0440 C.2   1422  IRF1422     0.1320
     10  C6        43.8270    9.2030   34.1300 C.2   1422  IRF1422     0.0258
     11  C7        42.8700    9.7480   34.9460 C.2   1422  IRF1422    -0.0145
     12  C7M       42.3330    8.9470   36.1290 C.3   1422  IRF1422     0.0315
     13  C8        42.3940   11.1360   34.6450 C.2   1422  IRF1422     0.0239
     14  C9        42.8850   11.8680   33.5850 C.2   1422  IRF1422     0.0059
     15  C9A       43.8590   11.2880   32.8130 C.3   1422  IRF1422     0.1504
     16  N10       44.2940   11.9230   31.6260 N.pl3 1422  IRF1422    -0.2691
     17  C10       45.3280   11.3260   30.8870 C.2   1422  IRF1422     0.2416
     18  C1'       44.0080   13.3490   31.5780 C.3   1422  IRF1422     0.1294
     19  C2'       45.1620   14.1240   32.1030 C.3   1422  IRF1422     0.2044
     20  O2'       44.7960   14.5800   33.4320 O.3   1422  IRF1422    -0.2185
     21  C3'       45.5010   15.1820   31.0390 C.3   1422  IRF1422     0.2166
     22  O3'       46.8590   15.6240   31.0400 O.3   1422  IRF1422    -0.2175
     23  C4'       44.6910   16.4380   31.1310 C.3   1422  IRF1422     0.2175
     24  O4'       43.6460   16.1940   30.1710 O.3   1422  IRF1422    -0.2175
     25  C5'       45.5540   17.5370   30.5310 C.3   1422  IRF1422     0.2175
     26  I8        40.9610   12.0130   35.9520 I     1422  IRF1422    -0.0431
     27  O5'       45.1540   17.5620   29.1310 O.3   1422  IRF1422    -0.2175
@<TRIPOS>BOND
     1     3     2    2
     2     2     4    2
     3     2     1    2
     4    27    25    1
     5     4     5    2
     6     1    17    2
     7    24    23    1
     8     5     6    2
     9     5     7    1
    10    25    23    1
    11    17     7    1
    12    17    16    1
    13    21    22    1
    14    21    23    1
    15    21    19    1
    16     7     8    2
    17    18    16    1
    18    18    19    1
    19    16    15    1
    20    19    20    1
    21     8     9    2
    22    15     9    1
    23    15    14    1
    24     9    10    1
    25    14    13    2
    26    10    11    2
    27    13    11    1
    28    13    26    1
    29    11    12    1
