@<TRIPOS>MOLECULE
2j09_FMN_A_1.pdb
 31 33 0 0 0
SMALL
GASTEIGER

@<TRIPOS>ATOM
      1  N1        45.7100   11.8930   29.8240 N.2   1422  FMN1422    -0.2887
      2  C2        46.6920   11.3230   29.0350 C.1   1422  FMN1422     0.3669
      3  O2        47.0360   11.9060   28.0040 O.2   1422  FMN1422    -0.1744
      4  N3        47.1600   10.0380   29.2870 N.2   1422  FMN1422    -0.2300
      5  C4        46.7980    9.3590   30.4040 C.1   1422  FMN1422     0.2513
      6  O4        47.4460    8.3210   30.7100 O.2   1422  FMN1422    -0.2057
      7  C4A       45.8070    9.9530   31.2100 C.2   1422  FMN1422     0.2703
      8  N5        45.3200    9.2820   32.3110 N.2   1422  FMN1422    -0.3882
      9  C5A       44.3670    9.8490   33.1230 C.2   1422  FMN1422     0.1277
     10  C6        43.8620    9.1130   34.2040 C.3   1422  FMN1422     0.0820
     11  C7        42.9300    9.7060   35.0780 C.2   1422  FMN1422    -0.0408
     12  C7M       42.4830    8.8650   36.2540 C.3   1422  FMN1422     0.0265
     13  C8        42.4830   11.0080   34.8150 C.2   1422  FMN1422    -0.0280
     14  C8M       41.4150   11.6970   35.6310 C.3   1422  FMN1422     0.0304
     15  C9        42.9250   11.6980   33.6880 C.2   1422  FMN1422     0.0123
     16  C9A       43.8980   11.1310   32.8610 C.2   1422  FMN1422     0.0793
     17  N10       44.3470   11.7970   31.7350 N.pl3 1422  FMN1422    -0.2545
     18  C10       45.3380   11.2390   30.9580 C.2   1422  FMN1422     0.2449
     19  C1'       43.7580   13.0980   31.3330 C.3   1422  FMN1422     0.1336
     20  C2'       44.8560   14.0060   31.8150 C.3   1422  FMN1422     0.2048
     21  O2'       44.8060   14.2040   33.2230 O.3   1422  FMN1422    -0.2185
     22  C3'       45.2410   15.1070   30.8350 C.3   1422  FMN1422     0.2165
     23  O3'       46.5060   14.6980   30.4330 O.3   1422  FMN1422    -0.2175
     24  C4'       45.2780   16.5830   31.2260 C.3   1422  FMN1422     0.2147
     25  O4'       45.2520   17.3750   30.0180 O.3   1422  FMN1422    -0.2176
     26  C5'       46.5570   16.9350   31.9870 C.3   1422  FMN1422     0.1892
     27  O5'       46.8420   16.0840   33.0780 O.3   1422  FMN1422    -0.2674
     28  P         46.5750   16.6630   34.5700 P.3   1422  FMN1422     0.5327
     29  O1P       47.4040   15.9530   35.6240 O.3   1422  FMN1422    -0.1145
     30  O2P       46.9080   18.1380   34.6010 O.2   1422  FMN1422    -0.2224
     31  O3P       45.1070   16.4580   34.9050 O.3   1422  FMN1422    -0.1145
@<TRIPOS>BOND
     1     3     2    2
     2     2     4    2
     3     2     1    2
     4     4     5    2
     5     1    18    2
     6    25    24    1
     7     5     6    2
     8     5     7    1
     9    23    22    1
    10    22    24    1
    11    22    20    1
    12    18     7    1
    13    18    17    1
    14     7     8    2
    15    24    26    1
    16    19    17    1
    17    19    20    1
    18    17    16    1
    19    20    21    1
    20    26    27    1
    21     8     9    2
    22    16     9    1
    23    16    15    2
    24    27    28    1
    25     9    10    1
    26    15    13    1
    27    10    11    1
    28    28    30    2
    29    28    31    1
    30    28    29    1
    31    13    11    2
    32    13    14    1
    33    11    12    1
