@<TRIPOS>MOLECULE
2j0b_UDP_A_1.pdb
 25 26 0 0 0
SMALL
GASTEIGER

@<TRIPOS>ATOM
      1  N1        24.6460   -7.5970   43.9200 N.am  1322  UDP1322    -0.1766
      2  C2        23.6950   -7.2590   44.8870 C.1   1322  UDP1322     0.2845
      3  N3        23.6440   -7.9860   46.0580 N.2   1322  UDP1322    -0.2452
      4  C4        24.5150   -9.0480   46.2510 C.1   1322  UDP1322     0.2182
      5  C5        25.4640   -9.3950   45.2770 C.2   1322  UDP1322     0.1242
      6  C6        25.4690   -8.6990   44.0770 C.2   1322  UDP1322     0.0929
      7  O2        22.9100   -6.3200   44.7040 O.2   1322  UDP1322    -0.1918
      8  O4        24.4600   -9.6680   47.3130 O.2   1322  UDP1322    -0.2085
      9  C1'       24.6470   -6.8110   42.6800 C.3   1322  UDP1322     0.2401
     10  C2'       25.9960   -6.2330   42.2540 C.3   1322  UDP1322     0.2319
     11  O2'       26.2340   -4.9930   42.8380 O.3   1322  UDP1322    -0.2157
     12  C3'       25.8610   -6.1600   40.7340 C.3   1322  UDP1322     0.2158
     13  C4'       24.9760   -7.3680   40.4440 C.3   1322  UDP1322     0.1799
     14  O4'       24.2600   -7.6870   41.6550 O.3   1322  UDP1322    -0.3320
     15  O3'       25.2230   -4.9930   40.2740 O.3   1322  UDP1322    -0.2175
     16  C5'       25.8240   -8.5600   39.9700 C.3   1322  UDP1322     0.1813
     17  O5'       26.7400   -8.8590   41.0020 O.3   1322  UDP1322    -0.3111
     18  PA        28.0700   -9.6990   40.6600 P.3   1322  UDP1322     0.2231
     19  O1A       28.7200   -9.0800   39.5060 O.2   1322  UDP1322    -0.5169
     20  O2A       28.9800   -9.9620   41.8090 O.3   1322  UDP1322    -0.4370
     21  O3A       27.3450  -11.1160   40.2920 O.3   1322  UDP1322    -0.2261
     22  PB        27.4840  -11.9770   38.9330 P.3   1322  UDP1322     0.5373
     23  O1B       26.1460  -12.5490   38.6590 O.3   1322  UDP1322    -0.1143
     24  O2B       28.4540  -13.0440   39.2820 O.3   1322  UDP1322    -0.1143
     25  O3B       27.8800  -11.1530   37.7820 O.2   1322  UDP1322    -0.2221
@<TRIPOS>BOND
     1    25    22    2
     2    23    22    1
     3    22    24    1
     4    22    21    1
     5    19    18    2
     6    16    13    1
     7    16    17    1
     8    15    12    1
     9    21    18    1
    10    13    12    1
    11    13    14    1
    12    18    17    1
    13    18    20    1
    14    12    10    1
    15    14     9    1
    16    10     9    1
    17    10    11    1
    18     9     1    1
    19     1     6    1
    20     1     2   am
    21     6     5    2
    22     7     2    2
    23     2     3    2
    24     5     4    1
    25     3     4    2
    26     4     8    2
