@<TRIPOS>MOLECULE
2j0d_HEM_A_1.pdb
 43 50 0 0 0
SMALL
GASTEIGER

@<TRIPOS>ATOM
      1 FE        -14.9230  -17.1080   17.4350 Fe    1497  HEM1497     0.0000
      2  CHA      -13.8230  -13.7440   17.1330 C.2   1497  HEM1497     0.0000
      3  CHB      -18.0010  -15.9440   18.1200 C.2   1497  HEM1497     0.0000
      4  CHC      -16.1100  -20.3700   17.8840 C.2   1497  HEM1497     0.0000
      5  CHD      -11.8060  -18.2050   16.8780 C.2   1497  HEM1497     0.0000
      6  NA       -15.7300  -15.1900   17.6090 N.2   1497  HEM1497     0.0000
      7  C1A      -15.1510  -13.9230   17.4030 C.2   1497  HEM1497     0.0000
      8  C2A      -16.1420  -12.9450   17.5380 C.2   1497  HEM1497     0.0000
      9  C3A      -17.3130  -13.5830   17.8050 C.2   1497  HEM1497     0.0000
     10  C4A      -17.0580  -14.9770   17.8560 C.2   1497  HEM1497     0.0000
     11  CMA      -18.6820  -12.8960   18.0090 C.3   1497  HEM1497     0.0000
     12  CAA      -16.0690  -11.3490   17.4200 C.3   1497  HEM1497     0.0000
     13  CBA      -16.4890  -10.8880   16.0020 C.3   1497  HEM1497     0.0000
     14  CGA      -16.4330   -9.3880   15.8690 C.2   1497  HEM1497     0.0000
     15  O1A      -16.0050   -8.7730   16.8810 O.co2 1497  HEM1497     0.0000
     16  O2A      -16.7930   -8.7970   14.7960 O.co2 1497  HEM1497     0.0000
     17  NB       -16.7110  -17.9960   17.9270 N.ar  1497  HEM1497     0.0000
     18  C1B      -17.8850  -17.3100   18.1130 C.ar  1497  HEM1497     0.0000
     19  C2B      -18.9630  -18.2290   18.3240 C.ar  1497  HEM1497     0.0000
     20  C3B      -18.3960  -19.4450   18.2730 C.ar  1497  HEM1497     0.0000
     21  C4B      -17.0010  -19.3680   18.0260 C.ar  1497  HEM1497     0.0000
     22  CMB      -20.4640  -17.7890   18.5600 C.3   1497  HEM1497     0.0000
     23  CAB      -19.0790  -20.6850   18.4810 C.3   1497  HEM1497     0.0000
     24  CBB      -20.4430  -20.5030   18.6730 C.3   1497  HEM1497     0.0000
     25  NC       -14.1550  -19.0040   17.3940 N.2   1497  HEM1497     0.0000
     26  C1C      -14.7830  -20.1820   17.5420 C.2   1497  HEM1497     0.0000
     27  C2C      -13.7520  -21.2730   17.3210 C.2   1497  HEM1497     0.0000
     28  C3C      -12.6030  -20.6530   17.0350 C.2   1497  HEM1497     0.0000
     29  C4C      -12.8140  -19.2380   17.0760 C.2   1497  HEM1497     0.0000
     30  CMC      -14.1800  -22.7660   17.4500 C.3   1497  HEM1497     0.0000
     31  CAC      -11.2070  -21.2810   16.6710 C.3   1497  HEM1497     0.0000
     32  CBC      -11.2530  -22.3310   15.7480 C.3   1497  HEM1497     0.0000
     33  ND       -13.1120  -16.1060   17.0480 N.ar  1497  HEM1497     0.0000
     34  C1D      -11.9350  -16.8240   16.9310 C.ar  1497  HEM1497     0.0000
     35  C2D      -10.8310  -15.8510   16.8310 C.ar  1497  HEM1497     0.0000
     36  C3D      -11.4130  -14.4570   16.9170 C.ar  1497  HEM1497     0.0000
     37  C4D      -12.8510  -14.7590   17.0430 C.ar  1497  HEM1497     0.0000
     38  CMD       -9.3430  -16.1410   16.6890 C.3   1497  HEM1497     0.0000
     39  CAD      -10.7450  -12.9440   16.8480 C.3   1497  HEM1497     0.0000
     40  CBD      -10.6020  -12.5810   15.3380 C.3   1497  HEM1497     0.0000
     41  CGD       -9.7980  -11.3310   15.1220 C.2   1497  HEM1497     0.0000
     42  O1D       -9.6310  -10.5390   16.0840 O.co2 1497  HEM1497     0.0000
     43  O2D       -9.3200  -11.1190   13.9710 O.co2 1497  HEM1497     0.0000
@<TRIPOS>BOND
     1    43    41   ar
     2    16    14   ar
     3    41    40    1
     4    41    42   ar
     5    40    39    1
     6    32    31    1
     7    14    13    1
     8    14    15   ar
     9    13    12    1
    10    31    28    1
    11    38    35    1
    12    35    36   ar
    13    35    34   ar
    14    39    36    1
    15     5    34    2
    16     5    29    1
    17    36    37   ar
    18    34    33   ar
    19    28    29    1
    20    28    27    2
    21    37    33   ar
    22    37     2    2
    23    33     1    1
    24    29    25    2
    25     2     7    1
    26    27    30    1
    27    27    26    1
    28    25     1    1
    29    25    26    1
    30     7     8    1
    31     7     6    2
    32    12     8    1
    33     1     6    1
    34     1    17    1
    35     8     9    2
    36    26     4    2
    37     6    10    1
    38     9    10    1
    39     9    11    1
    40    10     3    2
    41     4    21    1
    42    17    21   ar
    43    17    18   ar
    44    21    20   ar
    45    18     3    1
    46    18    19   ar
    47    20    19   ar
    48    20    23    1
    49    19    22    1
    50    23    24    1
