@<TRIPOS>MOLECULE
2j0g_BM3_B_1.pdb
 15 15 0 0 0
SMALL
GASTEIGER

@<TRIPOS>ATOM
      1  C1        71.5660   23.4050   -2.2980 C.2   400  BM3400      0.3397
      2  O1        72.3090   24.3870   -3.0470 O.2   400  BM3400     -0.2481
      3  C2        71.8950   22.9860   -0.9510 C.3   400  BM3400      0.2261
      4  N2        71.1110   22.1520   -0.1450 N.am  400  BM3400     -0.1930
      5  C7        70.4730   22.4830    1.0130 C.2   400  BM3400      0.2424
      6  O7        70.9780   22.3980    2.1320 O.2   400  BM3400     -0.2733
      7  C8        69.0500   22.9250    0.9400 C.3   400  BM3400      0.0964
      8  C3        73.3800   22.6850   -1.1080 C.3   400  BM3400      0.2164
      9  O3        74.0390   22.1530    0.0750 O.3   400  BM3400     -0.2178
     10  C4        73.3890   21.5410   -2.2440 C.3   400  BM3400      0.2267
     11  O4        74.7020   21.0140   -2.5420 O.3   400  BM3400     -0.2163
     12  C5        72.5480   21.8340   -3.5500 C.3   400  BM3400      0.2343
     13  C6        72.3850   20.4710   -4.2960 C.3   400  BM3400      0.2281
     14  O6        73.3270   20.6720   -5.7580 O.3   400  BM3400     -0.2163
     15  O5        71.1990   22.3100   -3.0930 O.3   400  BM3400     -0.4455
@<TRIPOS>BOND
     1    14    13    1
     2    13    12    1
     3    12    15    1
     4    12    10    1
     5    15     1    1
     6     2     1    2
     7    11    10    1
     8     1     3    1
     9    10     8    1
    10     8     3    1
    11     8     9    1
    12     3     4    1
    13     4     5   am
    14     7     5    1
    15     5     6    2
