@<TRIPOS>MOLECULE
2j0g_MAN_F_1.pdb
 11 11 0 0 0
SMALL
GASTEIGER

@<TRIPOS>ATOM
      1  C1         6.4760   39.0600   43.7640 C.3   402  MAN402      0.1777
      2  C2         5.2660   38.3810   44.2760 C.3   402  MAN402      0.2141
      3  C3         5.6110   37.4120   45.4640 C.3   402  MAN402      0.2173
      4  C4         6.7160   36.4380   45.0320 C.3   402  MAN402      0.2142
      5  C5         7.8700   37.1920   44.4600 C.3   402  MAN402      0.1810
      6  C6         8.9820   36.3570   43.8430 C.3   402  MAN402      0.2141
      7  O2         4.6170   37.6700   43.2140 O.3   402  MAN402     -0.2176
      8  O3         4.4800   36.6750   45.9110 O.3   402  MAN402     -0.2175
      9  O4         7.1910   35.6630   46.1220 O.3   402  MAN402     -0.2176
     10  O5         7.4860   38.0930   43.3780 O.3   402  MAN402     -0.3481
     11  O6         8.5900   35.4190   42.8480 O.3   402  MAN402     -0.2176
@<TRIPOS>BOND
     1    11     6    1
     2     7     2    1
     3    10     1    1
     4    10     5    1
     5     1     2    1
     6     6     5    1
     7     2     3    1
     8     5     4    1
     9     4     3    1
    10     4     9    1
    11     3     8    1
