@<TRIPOS>MOLECULE
2j0h_ACH_A_1.pdb
 10 9 0 0 0
SMALL
GASTEIGER

@<TRIPOS>ATOM
      1  N1        -1.0080   20.4760   -5.6910 N.4   1290  ACH1290     0.3882
      2  C2        -2.4090   20.8490   -5.4170 C.3   1290  ACH1290    -0.0251
      3  C3        -2.9920   21.7110   -6.5380 C.3   1290  ACH1290     0.1864
      4  O4        -3.6480   22.8510   -5.9750 O.3   1290  ACH1290    -0.4508
      5  C5        -2.8440   24.0260   -5.6550 C.2   1290  ACH1290     0.3175
      6  O7        -2.8270   24.4380   -4.5010 O.2   1290  ACH1290    -0.2501
      7  C6        -2.0500   24.6790   -6.7530 C.3   1290  ACH1290     0.1212
      8  C8        -0.3690   21.4770   -6.5650 C.3   1290  ACH1290    -0.0958
      9  C9        -0.9610   19.1780   -6.3740 C.3   1290  ACH1290    -0.0958
     10  C10       -0.2800   20.3600   -4.4160 C.3   1290  ACH1290    -0.0958
@<TRIPOS>BOND
     1     7     5    1
     2     8     1    1
     3     3     4    1
     4     3     2    1
     5     9     1    1
     6     4     5    1
     7     1     2    1
     8     1    10    1
     9     5     6    2
