@<TRIPOS>MOLECULE
2j0j_4ST_A_1.pdb
 35 42 0 0 0
SMALL
GASTEIGER

@<TRIPOS>ATOM
      1  CAB      -20.1890  -39.4370   10.1010 C.3   1687  4ST1687     0.1743
      2  OAQ      -20.1050  -40.2240    8.8690 O.3   1687  4ST1687    -0.3478
      3  CBF      -19.0220  -41.2220    8.8720 C.3   1687  4ST1687     0.1761
      4  CBD      -18.3800  -41.1410    7.4870 C.3   1687  4ST1687     0.1086
      5  NAO      -17.7190  -39.8450    7.2800 N.3   1687  4ST1687    -0.2152
      6  CAA      -16.3700  -39.8650    7.8780 C.3   1687  4ST1687     0.1075
      7  CAN      -19.4900  -41.2620    6.4700 C.3   1687  4ST1687     0.0739
      8  CBE      -20.3380  -42.5020    6.8090 C.3   1687  4ST1687     0.2076
      9  OAR      -19.8610  -43.3070    7.9020 O.3   1687  4ST1687    -0.3186
     10  CBI      -19.5510  -42.6780    9.1280 C.3   1687  4ST1687     0.1915
     11  CAC      -18.4770  -43.5430    9.7930 C.3   1687  4ST1687     0.0566
     12  NBH      -20.7880  -42.5530    9.9470 N.ar  1687  4ST1687    -0.3054
     13  CAY      -20.8300  -42.5740   11.2870 C.ar  1687  4ST1687     0.0617
     14  CAH      -19.8560  -42.7650   12.2650 C.ar  1687  4ST1687     0.0172
     15  CAF      -20.2200  -42.7610   13.6110 C.ar  1687  4ST1687     0.0015
     16  CAE      -21.5420  -42.5610   13.9910 C.ar  1687  4ST1687     0.0001
     17  CAG      -22.5190  -42.3620   13.0270 C.ar  1687  4ST1687     0.0015
     18  CAX      -22.1580  -42.3680   11.6860 C.ar  1687  4ST1687     0.0171
     19  CBA      -22.8970  -42.2070   10.5370 C.ar  1687  4ST1687     0.0173
     20  CBC      -22.0110  -42.3290    9.4800 C.ar  1687  4ST1687     0.0773
     21  CBB      -22.4550  -42.2020    8.1730 C.ar  1687  4ST1687     0.0777
     22  NBG      -21.7770  -42.2540    7.0270 N.ar  1687  4ST1687    -0.3080
     23  CAV      -22.6290  -42.0840    6.0200 C.ar  1687  4ST1687     0.0352
     24  CAL      -22.2730  -42.0790    4.5250 C.3   1687  4ST1687     0.0435
     25  CAJ      -23.5110  -42.0400    3.6320 C.3   1687  4ST1687     0.0066
     26  CAI      -24.6470  -41.2060    4.2490 C.3   1687  4ST1687     0.0051
     27  CAK      -25.1080  -41.6610    5.6490 C.3   1687  4ST1687     0.0276
     28  CAT      -23.9000  -41.8910    6.5320 C.ar  1687  4ST1687    -0.0083
     29  CAZ      -23.8120  -41.9680    7.9190 C.ar  1687  4ST1687     0.0250
     30  CAW      -24.7170  -41.8680    8.9910 C.ar  1687  4ST1687     0.0819
     31  CAU      -24.2340  -41.9820   10.2840 C.ar  1687  4ST1687     0.0154
     32  CAM      -25.3800  -41.8330   11.2650 C.3   1687  4ST1687     0.1650
     33  NAP      -26.5150  -41.5640   10.3790 N.2   1687  4ST1687    -0.1976
     34  CAS      -26.0850  -41.6170    9.1090 C.1   1687  4ST1687     0.1501
     35  OAD      -26.8380  -41.3920    8.1620 O.2   1687  4ST1687    -0.2222
@<TRIPOS>BOND
     1    25    26    1
     2    25    24    1
     3    26    27    1
     4    24    23    1
     5    27    28    1
     6    23    28   ar
     7    23    22   ar
     8     7     8    1
     9     7     4    1
    10    28    29   ar
    11     8    22    1
    12     8     9    1
    13    22    21   ar
    14     5     4    1
    15     5     6    1
    16     4     3    1
    17     9    10    1
    18    29    21   ar
    19    29    30   ar
    20    35    34    2
    21    21    20   ar
    22     2     3    1
    23     2     1    1
    24     3    10    1
    25    30    34    1
    26    30    31   ar
    27    34    33    2
    28    10    11    1
    29    10    12    1
    30    20    12   ar
    31    20    19   ar
    32    12    13   ar
    33    31    19   ar
    34    31    32    1
    35    33    32    1
    36    19    18   ar
    37    13    18   ar
    38    13    14   ar
    39    18    17   ar
    40    14    15   ar
    41    17    16   ar
    42    15    16   ar
