@<TRIPOS>MOLECULE
2j0k_4ST_A_1.pdb
 35 42 0 0 0
SMALL
GASTEIGER

@<TRIPOS>ATOM
      1  CAB       32.7510   -0.3920   13.3580 C.3   1687  4ST1687     0.1743
      2  OAQ       33.1190    0.1400   12.0170 O.3   1687  4ST1687    -0.3478
      3  CBF       32.1670    1.1960   11.5120 C.3   1687  4ST1687     0.1761
      4  CBD       31.7040    0.8560   10.1110 C.3   1687  4ST1687     0.1086
      5  NAO       30.8700   -0.4240   10.2110 N.3   1687  4ST1687    -0.2152
      6  CAA       29.3720   -0.1880   10.2350 C.3   1687  4ST1687     0.1075
      7  CAN       32.9230    0.7300    9.1320 C.3   1687  4ST1687     0.0739
      8  CBE       33.8370    1.9870    9.1330 C.3   1687  4ST1687     0.2076
      9  OAR       33.2820    2.9620   10.0200 O.3   1687  4ST1687    -0.3186
     10  CBI       32.8830    2.5530   11.3490 C.3   1687  4ST1687     0.1915
     11  CAC       31.8750    3.5610   11.9120 C.3   1687  4ST1687     0.0566
     12  NBH       34.0850    2.4430   12.1710 N.ar  1687  4ST1687    -0.3054
     13  CAY       34.1070    2.6690   13.4850 C.ar  1687  4ST1687     0.0617
     14  CAH       33.0410    3.0310   14.3670 C.ar  1687  4ST1687     0.0172
     15  CAF       33.2050    3.2280   15.7430 C.ar  1687  4ST1687     0.0015
     16  CAE       34.4670    3.0530   16.2600 C.ar  1687  4ST1687     0.0001
     17  CAG       35.5330    2.6880   15.3860 C.ar  1687  4ST1687     0.0015
     18  CAX       35.3750    2.4900   14.0000 C.ar  1687  4ST1687     0.0171
     19  CBA       36.1970    2.1420   12.9310 C.ar  1687  4ST1687     0.0173
     20  CBC       35.3290    2.1150   11.7950 C.ar  1687  4ST1687     0.0773
     21  CBB       35.8900    1.7940   10.5560 C.ar  1687  4ST1687     0.0777
     22  NBG       35.2850    1.7280    9.3850 N.ar  1687  4ST1687    -0.3080
     23  CAV       36.1890    1.3940    8.4610 C.ar  1687  4ST1687     0.0352
     24  CAL       35.9110    1.2170    6.9750 C.3   1687  4ST1687     0.0435
     25  CAJ       37.1570    0.5810    6.2850 C.3   1687  4ST1687     0.0066
     26  CAI       38.4880    1.2830    6.8710 C.3   1687  4ST1687     0.0051
     27  CAK       38.7000    0.8360    8.3380 C.3   1687  4ST1687     0.0276
     28  CAT       37.4380    1.2240    9.0850 C.ar  1687  4ST1687    -0.0083
     29  CAZ       37.2550    1.4920   10.4390 C.ar  1687  4ST1687     0.0250
     30  CAW       38.0630    1.5190   11.5980 C.ar  1687  4ST1687     0.0819
     31  CAU       37.5600    1.8350   12.8240 C.ar  1687  4ST1687     0.0154
     32  CAM       38.5380    1.8220   13.9830 C.3   1687  4ST1687     0.1650
     33  NAP       39.7390    1.4000   13.2490 N.2   1687  4ST1687    -0.1976
     34  CAS       39.4350    1.2650   11.9060 C.1   1687  4ST1687     0.1501
     35  OAD       40.2310    0.9000   11.0540 O.2   1687  4ST1687    -0.2222
@<TRIPOS>BOND
     1    25    26    1
     2    25    24    1
     3    26    27    1
     4    24    23    1
     5    27    28    1
     6    23    28   ar
     7    23    22   ar
     8    28    29   ar
     9     7     8    1
    10     7     4    1
    11     8    22    1
    12     8     9    1
    13    22    21   ar
    14     9    10    1
    15     4     5    1
    16     4     3    1
    17     5     6    1
    18    29    21   ar
    19    29    30   ar
    20    21    20   ar
    21    35    34    2
    22    10     3    1
    23    10    11    1
    24    10    12    1
    25     3     2    1
    26    30    34    1
    27    30    31   ar
    28    20    12   ar
    29    20    19   ar
    30    34    33    2
    31     2     1    1
    32    12    13   ar
    33    31    19   ar
    34    31    32    1
    35    19    18   ar
    36    33    32    1
    37    13    18   ar
    38    13    14   ar
    39    18    17   ar
    40    14    15   ar
    41    17    16   ar
    42    15    16   ar
