@<TRIPOS>MOLECULE
2j0l_ANP_A_1.pdb
 31 33 0 0 0
SMALL
GASTEIGER

@<TRIPOS>ATOM
      1  PG        -4.4720   -5.2830    2.8840 P.3   1689  ANP1689     0.4884
      2  O1G       -3.1940   -4.7350    3.7210 O.3   1689  ANP1689    -0.1240
      3  O2G       -5.5470   -5.7890    3.9540 O.3   1689  ANP1689    -0.1240
      4  O3G       -4.0590   -6.4190    2.0300 O.2   1689  ANP1689    -0.2331
      5  PB        -6.3730   -3.1690    2.2630 P.3   1689  ANP1689     0.4669
      6  O1B       -6.9050   -3.4980    3.7360 O.3   1689  ANP1689    -0.1253
      7  O2B       -7.4990   -3.3360    1.3050 O.2   1689  ANP1689    -0.2351
      8  N3B       -5.0210   -4.0560    1.9150 N.3   1689  ANP1689    -0.0163
      9  PA        -5.0090   -0.7980    3.2680 P.3   1689  ANP1689     0.2220
     10  O1A       -3.9270   -1.7470    3.9670 O.2   1689  ANP1689    -0.5170
     11  O2A       -5.8580   -0.1040    4.2660 O.3   1689  ANP1689    -0.4370
     12  O3A       -5.9110   -1.6440    2.2070 O.3   1689  ANP1689    -0.2360
     13  O5'       -4.2660    0.2050    2.2980 O.3   1689  ANP1689    -0.3111
     14  C5'       -3.6210   -0.2570    1.1250 C.3   1689  ANP1689     0.1813
     15  C4'       -2.6130    0.7680    0.6370 C.3   1689  ANP1689     0.1821
     16  O4'       -3.3620    1.9480    0.2470 O.3   1689  ANP1689    -0.3135
     17  C3'       -1.7090    1.2380    1.7700 C.3   1689  ANP1689     0.2184
     18  O3'       -0.5530    0.4070    1.8370 O.3   1689  ANP1689    -0.2174
     19  C2'       -1.3190    2.6350    1.3090 C.3   1689  ANP1689     0.2570
     20  O2'       -0.3380    2.5640    0.2790 O.3   1689  ANP1689    -0.2130
     21  C1'       -2.6230    3.1380    0.6980 C.3   1689  ANP1689     0.3186
     22  N9        -3.3880    3.9360    1.7140 N.pl3 1689  ANP1689    -0.1439
     23  C8        -4.5000    3.5590    2.3390 C.3   1689  ANP1689     0.3377
     24  N7        -4.9090    4.5310    3.1590 N.2   1689  ANP1689    -0.2095
     25  C5        -4.0490    5.5340    3.0490 C.2   1689  ANP1689     0.2526
     26  C6        -3.9520    6.7830    3.6450 C.2   1689  ANP1689     0.4393
     27  N6        -4.8530    7.1780    4.5310 N.pl3 1689  ANP1689     0.2180
     28  N1        -2.9260    7.5810    3.3120 N.2   1689  ANP1689     0.0021
     29  C2        -2.0200    7.1970    2.4260 C.3   1689  ANP1689     0.5254
     30  N3        -2.0860    6.0120    1.8310 N.2   1689  ANP1689    -0.0055
     31  C4        -3.0810    5.1590    2.1330 C.2   1689  ANP1689     0.3518
@<TRIPOS>BOND
     1    16    15    1
     2    16    21    1
     3    20    19    1
     4    15    14    1
     5    15    17    1
     6    21    19    1
     7    21    22    1
     8    14    13    1
     9     7     5    2
    10    19    17    1
    11    22    31    1
    12    22    23    1
    13    17    18    1
    14    30    31    2
    15    30    29    1
    16     8     5    1
    17     8     1    1
    18     4     1    2
    19    31    25    1
    20    12     5    1
    21    12     9    1
    22     5     6    1
    23    13     9    1
    24    23    24    1
    25    29    28    1
    26     1     2    1
    27     1     3    1
    28    25    24    2
    29    25    26    1
    30     9    10    2
    31     9    11    1
    32    28    26    2
    33    26    27    1
