@<TRIPOS>MOLECULE
2j0m_4ST_B_1.pdb
 35 42 0 0 0
SMALL
GASTEIGER

@<TRIPOS>ATOM
      1  CAB      -19.4950   38.9460   10.3240 C.3   1687  4ST1687     0.1743
      2  OAQ      -19.4690   39.8130    9.1520 O.3   1687  4ST1687    -0.3478
      3  CBF      -20.5630   40.7870    9.1680 C.3   1687  4ST1687     0.1761
      4  CBD      -21.1730   40.7080    7.7640 C.3   1687  4ST1687     0.1086
      5  NAO      -21.8620   39.4050    7.5480 N.3   1687  4ST1687    -0.2152
      6  CAA      -22.3390   39.2900    6.1440 C.3   1687  4ST1687     0.1075
      7  CAN      -20.0570   40.8520    6.7360 C.3   1687  4ST1687     0.0739
      8  CBE      -19.3090   42.1170    7.0630 C.3   1687  4ST1687     0.2076
      9  OAR      -19.7350   42.9170    8.1370 O.3   1687  4ST1687    -0.3186
     10  CBI      -20.0390   42.2760    9.4250 C.3   1687  4ST1687     0.1915
     11  CAC      -21.1490   43.1490   10.0880 C.3   1687  4ST1687     0.0566
     12  NBH      -18.7990   42.1440   10.1840 N.ar  1687  4ST1687    -0.3054
     13  CAY      -18.7410   42.1580   11.5260 C.ar  1687  4ST1687     0.0617
     14  CAH      -19.7090   42.3560   12.4930 C.ar  1687  4ST1687     0.0172
     15  CAF      -19.3300   42.3460   13.8160 C.ar  1687  4ST1687     0.0015
     16  CAE      -18.0020   42.1280   14.1910 C.ar  1687  4ST1687     0.0001
     17  CAG      -17.0150   41.9120   13.2220 C.ar  1687  4ST1687     0.0015
     18  CAX      -17.4030   41.9320   11.9010 C.ar  1687  4ST1687     0.0171
     19  CBA      -16.6800   41.7660   10.7390 C.ar  1687  4ST1687     0.0173
     20  CBC      -17.5970   41.8950    9.7050 C.ar  1687  4ST1687     0.0773
     21  CBB      -17.2000   41.7700    8.3810 C.ar  1687  4ST1687     0.0777
     22  NBG      -17.8760   41.8380    7.2060 N.ar  1687  4ST1687    -0.3080
     23  CAV      -17.0040   41.6500    6.1950 C.ar  1687  4ST1687     0.0352
     24  CAL      -17.2750   41.6280    4.6910 C.3   1687  4ST1687     0.0435
     25  CAJ      -16.0330   41.8040    3.8910 C.3   1687  4ST1687     0.0066
     26  CAI      -14.7450   41.1010    4.3710 C.3   1687  4ST1687     0.0051
     27  CAK      -14.5110   41.2000    5.8750 C.3   1687  4ST1687     0.0276
     28  CAT      -15.7570   41.4510    6.7140 C.ar  1687  4ST1687    -0.0083
     29  CAZ      -15.8500   41.5300    8.1040 C.ar  1687  4ST1687     0.0250
     30  CAW      -14.8950   41.3900    9.2220 C.ar  1687  4ST1687     0.0819
     31  CAU      -15.3270   41.5140   10.5120 C.ar  1687  4ST1687     0.0154
     32  CAM      -14.0610   41.3210   11.4410 C.3   1687  4ST1687     0.1650
     33  NAP      -12.9750   41.0910   10.4530 N.2   1687  4ST1687    -0.1976
     34  CAS      -13.4910   41.1360    9.2250 C.1   1687  4ST1687     0.1501
     35  OAD      -12.7760   40.9700    8.2290 O.2   1687  4ST1687    -0.2222
@<TRIPOS>BOND
     1    25    26    1
     2    25    24    1
     3    26    27    1
     4    24    23    1
     5    27    28    1
     6     6     5    1
     7    23    28   ar
     8    23    22   ar
     9    28    29   ar
    10     7     8    1
    11     7     4    1
    12     8    22    1
    13     8     9    1
    14    22    21   ar
    15     5     4    1
    16     4     3    1
    17    29    21   ar
    18    29    30   ar
    19     9    10    1
    20    35    34    2
    21    21    20   ar
    22     2     3    1
    23     2     1    1
    24     3    10    1
    25    30    34    1
    26    30    31   ar
    27    34    33    2
    28    10    11    1
    29    10    12    1
    30    20    12   ar
    31    20    19   ar
    32    12    13   ar
    33    33    32    1
    34    31    19   ar
    35    31    32    1
    36    19    18   ar
    37    13    18   ar
    38    13    14   ar
    39    18    17   ar
    40    14    15   ar
    41    17    16   ar
    42    15    16   ar
