@<TRIPOS>MOLECULE
2j0p_HEM_A_1.pdb
 43 50 0 0 0
SMALL
GASTEIGER

@<TRIPOS>ATOM
      1 FE         12.3480   27.1520  -13.2260 Fe    1342  HEM1342     0.0000
      2  CHA       14.7580   25.9530  -15.2670 C.2   1342  HEM1342     0.0000
      3  CHB       13.4520   30.3680  -13.6730 C.2   1342  HEM1342     0.0000
      4  CHC        9.5810   28.2010  -11.6860 C.2   1342  HEM1342     0.0000
      5  CHD       11.9730   23.9690  -11.7470 C.2   1342  HEM1342     0.0000
      6  NA        13.8420   27.9990  -14.2480 N.ar  1342  HEM1342     0.0000
      7  C1A       14.7170   27.3160  -15.0830 C.ar  1342  HEM1342     0.0000
      8  C2A       15.6020   28.3030  -15.6870 C.ar  1342  HEM1342     0.0000
      9  C3A       15.2300   29.5280  -15.2760 C.ar  1342  HEM1342     0.0000
     10  C4A       14.1200   29.3600  -14.3460 C.ar  1342  HEM1342     0.0000
     11  CMA       15.8750   30.9020  -15.6420 C.3   1342  HEM1342     0.0000
     12  CAA       16.7210   27.9490  -16.7110 C.3   1342  HEM1342     0.0000
     13  CBA       16.0830   27.7760  -18.1090 C.3   1342  HEM1342     0.0000
     14  CGA       15.7430   29.1090  -18.7410 C.2   1342  HEM1342     0.0000
     15  O1A       16.6350   29.9820  -18.8990 O.co2 1342  HEM1342     0.0000
     16  O2A       14.5370   29.3510  -19.0220 O.co2 1342  HEM1342     0.0000
     17  NB        11.6760   28.9610  -12.7310 N.2   1342  HEM1342     0.0000
     18  C1B       12.2430   30.1850  -13.0140 C.2   1342  HEM1342     0.0000
     19  C2B       11.3090   31.2110  -12.6090 C.2   1342  HEM1342     0.0000
     20  C3B       10.2470   30.6170  -12.0410 C.2   1342  HEM1342     0.0000
     21  C4B       10.4470   29.1780  -12.1120 C.2   1342  HEM1342     0.0000
     22  CMB       11.5280   32.7270  -12.7820 C.3   1342  HEM1342     0.0000
     23  CAB        9.0330   31.3570  -11.4280 C.2   1342  HEM1342     0.0000
     24  CBB        7.8120   30.9730  -11.8100 C.2   1342  HEM1342     0.0000
     25  NC        11.0370   26.2420  -11.9550 N.ar  1342  HEM1342     0.0000
     26  C1C        9.8840   26.8670  -11.5110 C.ar  1342  HEM1342     0.0000
     27  C2C        9.1250   25.8870  -10.7400 C.ar  1342  HEM1342     0.0000
     28  C3C        9.7940   24.7310  -10.7610 C.ar  1342  HEM1342     0.0000
     29  C4C       11.0040   24.9230  -11.5170 C.ar  1342  HEM1342     0.0000
     30  CMC        7.7740   26.1360  -10.0210 C.3   1342  HEM1342     0.0000
     31  CAC        9.4240   23.3790  -10.0790 C.2   1342  HEM1342     0.0000
     32  CBC        8.7390   23.3490   -8.9200 C.2   1342  HEM1342     0.0000
     33  ND        13.1950   25.2450  -13.4620 N.2   1342  HEM1342     0.0000
     34  C1D       12.9460   24.0920  -12.7100 C.2   1342  HEM1342     0.0000
     35  C2D       13.7770   23.0140  -13.2040 C.2   1342  HEM1342     0.0000
     36  C3D       14.6360   23.6500  -14.2900 C.2   1342  HEM1342     0.0000
     37  C4D       14.2110   25.0220  -14.4070 C.2   1342  HEM1342     0.0000
     38  CMD       13.9100   21.5580  -12.6920 C.3   1342  HEM1342     0.0000
     39  CAD       15.6370   22.9150  -15.2030 C.3   1342  HEM1342     0.0000
     40  CBD       14.8210   22.6080  -16.4510 C.3   1342  HEM1342     0.0000
     41  CGD       15.4980   21.5580  -17.2890 C.2   1342  HEM1342     0.0000
     42  O1D       15.1420   20.3760  -17.0870 O.co2 1342  HEM1342     0.0000
     43  O2D       16.3800   21.8950  -18.1360 O.co2 1342  HEM1342     0.0000
@<TRIPOS>BOND
     1    16    14   ar
     2    15    14   ar
     3    14    13    1
     4    43    41   ar
     5    13    12    1
     6    41    42   ar
     7    41    40    1
     8    12     8    1
     9    40    39    1
    10     8     9   ar
    11     8     7   ar
    12    11     9    1
    13     9    10   ar
    14     2     7    2
    15     2    37    1
    16    39    36    1
    17     7     6   ar
    18    37    36    1
    19    37    33    2
    20    10     6   ar
    21    10     3    2
    22    36    35    2
    23     6     1    1
    24     3    18    1
    25    33     1    1
    26    33    34    1
    27     1    17    1
    28     1    25    1
    29    35    34    1
    30    35    38    1
    31    18    17    2
    32    18    19    1
    33    22    19    1
    34    17    21    1
    35    34     5    2
    36    19    20    2
    37    21    20    1
    38    21     4    2
    39    20    23    1
    40    25    29   ar
    41    25    26   ar
    42    24    23    2
    43     5    29    1
    44     4    26    1
    45    29    28   ar
    46    26    27   ar
    47    28    27   ar
    48    28    31    1
    49    27    30    1
    50    31    32    2
