@<TRIPOS>MOLECULE
2j0v_GDP_A_1.pdb
 28 30 0 0 0
SMALL
GASTEIGER

@<TRIPOS>ATOM
      1  PB        13.9900   29.2160   85.6580 P.3   1179  GDP1179     0.5373
      2  O1B       13.6350   27.9020   86.2950 O.3   1179  GDP1179    -0.1143
      3  O2B       14.0060   30.3450   86.6870 O.3   1179  GDP1179    -0.1143
      4  O3B       13.0780   29.6550   84.6240 O.2   1179  GDP1179    -0.2221
      5  O3A       15.4800   29.0720   85.0390 O.3   1179  GDP1179    -0.2261
      6  PA        16.0600   29.7050   83.7130 P.3   1179  GDP1179     0.2231
      7  O1A       15.5890   28.9500   82.5530 O.2   1179  GDP1179    -0.5169
      8  O2A       15.8070   31.1880   83.6660 O.3   1179  GDP1179    -0.4370
      9  O5'       17.6660   29.3750   83.8640 O.3   1179  GDP1179    -0.3111
     10  C5'       18.3350   29.8250   85.0530 C.3   1179  GDP1179     0.1813
     11  C4'       19.8600   29.8480   84.8130 C.3   1179  GDP1179     0.1799
     12  O4'       20.2580   28.5020   84.5170 O.3   1179  GDP1179    -0.3326
     13  C3'       20.2280   30.6990   83.5950 C.3   1179  GDP1179     0.2158
     14  O3'       21.4960   31.4000   83.7270 O.3   1179  GDP1179    -0.2175
     15  C2'       20.3100   29.6940   82.4670 C.3   1179  GDP1179     0.2310
     16  O2'       21.2790   30.0880   81.5220 O.3   1179  GDP1179    -0.2158
     17  C1'       20.8510   28.4870   83.2230 C.3   1179  GDP1179     0.2293
     18  N9        20.5020   27.2070   82.6170 N.pl3 1179  GDP1179    -0.2354
     19  C8        19.2230   26.8020   82.2870 C.3   1179  GDP1179     0.2246
     20  N7        19.2580   25.5490   81.7920 N.2   1179  GDP1179    -0.2322
     21  C5        20.5660   25.1330   81.7690 C.2   1179  GDP1179     0.2182
     22  C6        21.3060   23.9030   81.3570 C.1   1179  GDP1179     0.2372
     23  O6        20.7330   22.8960   80.8570 O.2   1179  GDP1179    -0.2069
     24  N1        22.6320   23.8620   81.5850 N.2   1179  GDP1179    -0.2485
     25  C2        23.3160   24.9390   82.0820 C.1   1179  GDP1179     0.2531
     26  N2        24.6600   24.8410   82.2760 N.pl3 1179  GDP1179    -0.0226
     27  N3        22.7300   26.0920   82.4460 N.2   1179  GDP1179    -0.3074
     28  C4        21.3690   26.2430   82.3280 C.2   1179  GDP1179     0.2300
@<TRIPOS>BOND
     1    23    22    2
     2    22    24    2
     3    22    21    1
     4    16    15    1
     5    24    25    2
     6    21    20    2
     7    21    28    1
     8    20    19    1
     9    25    26    1
    10    25    27    2
    11    19    18    1
    12    28    27    2
    13    28    18    1
    14    15    17    1
    15    15    13    1
    16     7     6    2
    17    18    17    1
    18    17    12    1
    19    13    14    1
    20    13    11    1
    21     8     6    1
    22     6     9    1
    23     6     5    1
    24     9    10    1
    25    12    11    1
    26     4     1    2
    27    11    10    1
    28     5     1    1
    29     1     2    1
    30     1     3    1
