@<TRIPOS>MOLECULE
2j0w_ADP_A_1.pdb
 27 29 0 0 0
SMALL
GASTEIGER

@<TRIPOS>ATOM
      1  PB       -47.9970   32.0090  134.9550 P.3   820  ADP820      0.5373
      2  O1B      -48.6990   32.8770  135.9280 O.3   820  ADP820     -0.1143
      3  O2B      -47.3500   32.8010  133.8450 O.2   820  ADP820     -0.2221
      4  O3B      -46.9440   31.0900  135.6590 O.3   820  ADP820     -0.1143
      5  PA       -49.1520   29.6370  133.7300 P.3   820  ADP820      0.2231
      6  O1A      -49.9150   29.5640  132.4600 O.2   820  ADP820     -0.5169
      7  O2A      -47.7470   29.1270  133.6870 O.3   820  ADP820     -0.4370
      8  O3A      -49.1280   31.1160  134.2720 O.3   820  ADP820     -0.2261
      9  O5'      -50.0970   28.7910  134.7270 O.3   820  ADP820     -0.3111
     10  C5'      -51.4230   29.1310  135.2430 C.3   820  ADP820      0.1813
     11  C4'      -52.3860   28.0960  134.6890 C.3   820  ADP820      0.1821
     12  O4'      -52.1310   26.6970  135.0090 O.3   820  ADP820     -0.3135
     13  C3'      -53.8530   28.2330  135.0030 C.3   820  ADP820      0.2184
     14  O3'      -54.2490   29.4050  134.2550 O.3   820  ADP820     -0.2174
     15  C2'      -54.3770   26.9080  134.4920 C.3   820  ADP820      0.2570
     16  O2'      -54.5910   26.9390  133.0910 O.3   820  ADP820     -0.2130
     17  C1'      -53.3100   25.9310  134.8330 C.3   820  ADP820      0.3186
     18  N9       -53.6370   24.9440  135.9690 N.pl3 820  ADP820     -0.1439
     19  C8       -53.4360   23.6180  135.8110 C.3   820  ADP820      0.3377
     20  N7       -53.7550   22.8730  136.8490 N.2   820  ADP820     -0.2095
     21  C5       -54.1830   23.7700  137.7490 C.2   820  ADP820      0.2526
     22  C6       -54.6800   23.5740  139.0910 C.2   820  ADP820      0.4393
     23  N6       -54.7720   22.4290  139.6730 N.pl3 820  ADP820      0.2180
     24  N1       -55.0550   24.7580  139.7540 N.2   820  ADP820      0.0021
     25  C2       -54.9680   26.0290  139.1600 C.3   820  ADP820      0.5254
     26  N3       -54.5020   26.2090  137.8910 N.2   820  ADP820     -0.0055
     27  C4       -54.1320   25.0810  137.2370 C.2   820  ADP820      0.3518
@<TRIPOS>BOND
     1     6     5    2
     2    16    15    1
     3     7     5    1
     4     5     8    1
     5     5     9    1
     6     3     1    2
     7    14    13    1
     8     8     1    1
     9    15    17    1
    10    15    13    1
    11    11    13    1
    12    11    12    1
    13    11    10    1
    14     9    10    1
    15    17    12    1
    16    17    18    1
    17     1     4    1
    18     1     2    1
    19    19    18    1
    20    19    20    1
    21    18    27    1
    22    20    21    2
    23    27    21    1
    24    27    26    2
    25    21    22    1
    26    26    25    1
    27    22    23    1
    28    22    24    2
    29    25    24    1
