@<TRIPOS>MOLECULE
2j0x_LYS_A_1.pdb
 10 9 0 0 0
SMALL
GASTEIGER

@<TRIPOS>ATOM
      1  N         11.0520  102.2330   30.0940 N.3   1451  LYS1451    -0.1208
      2  CA        11.4060  101.0900   29.2350 C.3   1451  LYS1451     0.1943
      3  C         11.3720   99.8020   30.0340 C.2   1451  LYS1451     0.3819
      4  O         11.1290   98.7070   29.5110 O.co2 1451  LYS1451    -0.2441
      5  CB        12.8040  101.2670   28.6430 C.3   1451  LYS1451     0.0307
      6  CG        13.2130  102.6340   28.1470 C.3   1451  LYS1451     0.0036
      7  CD        14.7100  102.8380   28.2700 C.3   1451  LYS1451     0.0206
      8  CE        15.1910  104.1960   27.7860 C.3   1451  LYS1451     0.1093
      9  NZ        14.4960  105.3540   28.4160 N.3   1451  LYS1451    -0.1314
     10  OXT       11.6260   99.8610   31.3250 O.co2 1451  LYS1451    -0.2441
@<TRIPOS>BOND
     1     8     7    1
     2     8     9    1
     3     6     7    1
     4     6     5    1
     5     5     2    1
     6     2     3    1
     7     2     1    1
     8     4     3   ar
     9     3    10   ar
