@<TRIPOS>MOLECULE
2j0y_BGC_C_1.pdb
 11 11 0 0 0
SMALL
GASTEIGER

@<TRIPOS>ATOM
      1  C2       -28.1770   68.2010   -0.3130 C.3   1289  BGC1289     0.2141
      2  C3       -29.0530   67.8360   -1.5270 C.3   1289  BGC1289     0.2173
      3  C4       -28.1110   67.6350   -2.7230 C.3   1289  BGC1289     0.2142
      4  C5       -26.8870   66.7530   -2.3700 C.3   1289  BGC1289     0.1810
      5  C6       -25.7750   66.8880   -3.3990 C.3   1289  BGC1289     0.2141
      6  C1       -27.1420   67.1230   -0.0210 C.3   1289  BGC1289     0.1777
      7  O2       -28.8900   68.4500    0.8910 O.3   1289  BGC1289    -0.2176
      8  O3       -29.8920   68.9460   -1.7470 O.3   1289  BGC1289    -0.2175
      9  O4       -28.8080   67.0930   -3.8350 O.3   1289  BGC1289    -0.2176
     10  O5       -26.2710   67.0600   -1.1200 O.3   1289  BGC1289    -0.3481
     11  O6       -24.8170   65.8410   -3.2870 O.3   1289  BGC1289    -0.2176
@<TRIPOS>BOND
     1     9     3    1
     2     5    11    1
     3     5     4    1
     4     3     4    1
     5     3     2    1
     6     4    10    1
     7     8     2    1
     8     2     1    1
     9    10     6    1
    10     1     6    1
    11     1     7    1
