@<TRIPOS>MOLECULE
2j14_GNI_A_1.pdb
 35 38 0 0 0
SMALL
GASTEIGER

@<TRIPOS>ATOM
      1  O11       -2.1180   -6.6150    2.6130 O.2   1440  GNI1440    -0.2682
      2  C10       -2.1600   -6.7480    1.3910 C.2   1440  GNI1440     0.2695
      3  N20       -5.4150   -5.7760   -0.0510 N.ar  1440  GNI1440    -0.0768
      4  C21       -4.6980   -6.2970    0.9430 C.ar  1440  GNI1440     0.1273
      5  C28       -0.5990  -13.9600   -0.4280 C.ar  1440  GNI1440     0.0587
      6  C27       -1.3890  -13.1080   -1.1960 C.ar  1440  GNI1440     0.0258
      7  C26       -1.2850  -11.7280   -1.0430 C.ar  1440  GNI1440     0.0924
      8  C25       -0.3890  -11.1910   -0.1220 C.ar  1440  GNI1440     0.1491
      9  C24        0.3990  -12.0470    0.6450 C.ar  1440  GNI1440     0.0386
     10  C23        0.2970  -13.4270    0.4940 C.ar  1440  GNI1440     0.0146
     11  C13       -3.2820   -5.6700   -0.6840 C.ar  1440  GNI1440     0.1812
     12  C14       -2.1460   -5.4990   -1.4690 C.ar  1440  GNI1440     0.0374
     13  C19       -2.1570   -5.9350   -2.7910 C.ar  1440  GNI1440     0.0031
     14  C18       -1.0300   -5.7740   -3.5920 C.ar  1440  GNI1440     0.0001
     15  C17        0.1110   -5.1730   -3.0670 C.ar  1440  GNI1440     0.0000
     16  C16        0.1250   -4.7370   -1.7460 C.ar  1440  GNI1440     0.0001
     17  C15       -1.0030   -4.9010   -0.9470 C.ar  1440  GNI1440     0.0031
     18  N9        -1.1820   -7.2840    0.6660 N.am  1440  GNI1440    -0.1975
     19  C8         0.0470   -7.8260    1.2620 C.3   1440  GNI1440     0.1626
     20  C7        -0.0420   -9.3530    1.2890 C.3   1440  GNI1440     0.2288
     21  C5        -6.2530   -7.9410    4.4600 C.ar  1440  GNI1440    -0.0037
     22  C4        -6.8940   -8.1410    3.2400 C.ar  1440  GNI1440    -0.0003
     23  C3        -6.3670   -7.5800    2.0810 C.ar  1440  GNI1440     0.0016
     24  C30       -5.0880   -7.1820    4.5170 C.ar  1440  GNI1440    -0.0109
     25  C31       -4.5650   -6.6230    3.3530 C.ar  1440  GNI1440    -0.0021
     26  O         -3.9900   -5.1720    7.3390 O.co2 1440  GNI1440    -0.2453
     27  C         -4.7970   -5.6720    6.5270 C.2   1440  GNI1440     0.3692
     28  O3        -5.9140   -5.1990    6.2240 O.co2 1440  GNI1440    -0.2453
     29  C2        -4.3760   -6.9830    5.8570 C.3   1440  GNI1440     0.1404
     30  C9        -5.2020   -6.8210    2.1300 C.ar  1440  GNI1440     0.0208
     31  O13       -4.5500   -5.3740   -1.0920 O.2   1440  GNI1440    -0.3532
     32  C12       -3.3560   -6.2460    0.5780 C.ar  1440  GNI1440     0.1128
     33  O21       -0.2580   -9.8360   -0.0460 O.3   1440  GNI1440    -0.4727
     34 CL26       -0.7290  -15.6740   -0.6210 Cl    1440  GNI1440    -0.0822
     35 CL29       -2.2800  -10.6790   -1.9920 Cl    1440  GNI1440    -0.0791
@<TRIPOS>BOND
     1    14    15   ar
     2    14    13   ar
     3    15    16   ar
     4    13    12   ar
     5    35     7    1
     6    16    17   ar
     7    12    17   ar
     8    12    11    1
     9     6     7   ar
    10     6     5   ar
    11    31    11   ar
    12    31     3   ar
    13     7     8   ar
    14    11    32   ar
    15    34     5    1
    16     5    10   ar
    17     8    33    1
    18     8     9   ar
    19     3     4   ar
    20    33    20    1
    21    10     9   ar
    22    32     4   ar
    23    32     2    1
    24    18    19    1
    25    18     2   am
    26     4    30    1
    27    19    20    1
    28     2     1    2
    29    23    30   ar
    30    23    22   ar
    31    30    25   ar
    32    22    21   ar
    33    25    24   ar
    34    21    24   ar
    35    24    29    1
    36    29    27    1
    37    28    27   ar
    38    27    26   ar
