@<TRIPOS>MOLECULE
2j17_PTR_A_1.pdb
 11 11 0 0 0
SMALL
GASTEIGER

@<TRIPOS>ATOM
      1  CG        52.3280   30.9030   40.1550 C.ar  1199  PTR1199     0.0002
      2  CD1       51.7530   32.1140   39.7630 C.ar  1199  PTR1199     0.0031
      3  CD2       52.3300   30.5910   41.5190 C.ar  1199  PTR1199     0.0031
      4  CE1       51.1970   32.9850   40.6950 C.ar  1199  PTR1199     0.0374
      5  CE2       51.7790   31.4570   42.4580 C.ar  1199  PTR1199     0.0374
      6  CZ        51.2030   32.6530   42.0440 C.ar  1199  PTR1199     0.1490
      7  OH        50.7070   33.4540   42.8550 O.3   1199  PTR1199    -0.3998
      8  P         49.7890   33.0620   44.1250 P.3   1199  PTR1199     0.5887
      9  O1P       48.6450   32.2110   43.7230 O.2   1199  PTR1199    -0.2114
     10  O2P       49.2320   34.3540   44.7420 O.3   1199  PTR1199    -0.1039
     11  O3P       50.6690   32.3410   45.1570 O.3   1199  PTR1199    -0.1039
@<TRIPOS>BOND
     1     2     1   ar
     2     2     4   ar
     3     1     3   ar
     4     4     6   ar
     5     3     5   ar
     6     6     5   ar
     7     6     7    1
     8     7     8    1
     9     9     8    2
    10     8    10    1
    11     8    11    1
