@<TRIPOS>MOLECULE
2j18_HEM_A_1.pdb
 43 50 0 0 0
SMALL
GASTEIGER

@<TRIPOS>ATOM
      1 FE          8.8070   18.8430   -1.9580 Fe    1300  HEM1300     0.0000
      2  CHA       10.7930   21.3800   -3.1950 C.2   1300  HEM1300     0.0000
      3  CHB       10.5640   16.6100   -3.9090 C.2   1300  HEM1300     0.0000
      4  CHC        6.4410   16.4390   -1.3750 C.2   1300  HEM1300     0.0000
      5  CHD        6.9370   21.0880   -0.2140 C.2   1300  HEM1300     0.0000
      6  NA        10.3640   18.9770   -3.3200 N.ar  1300  HEM1300     0.0000
      7  C1A       11.0870   20.1170   -3.6110 C.ar  1300  HEM1300     0.0000
      8  C2A       12.2030   19.7870   -4.4780 C.ar  1300  HEM1300     0.0000
      9  C3A       12.1510   18.4510   -4.6880 C.ar  1300  HEM1300     0.0000
     10  C4A       10.9890   17.9330   -3.9670 C.ar  1300  HEM1300     0.0000
     11  CMA       13.0950   17.5760   -5.5290 C.3   1300  HEM1300     0.0000
     12  CAA       13.2270   20.8280   -5.0140 C.3   1300  HEM1300     0.0000
     13  CBA       12.6100   21.7560   -6.0810 C.3   1300  HEM1300     0.0000
     14  CGA       13.3750   23.0800   -6.0620 C.2   1300  HEM1300     0.0000
     15  O1A       14.3920   23.3590   -6.8060 O.co2 1300  HEM1300     0.0000
     16  O2A       12.9050   23.8910   -5.2090 O.co2 1300  HEM1300     0.0000
     17  NB         8.5200   16.8790   -2.5840 N.2   1300  HEM1300     0.0000
     18  C1B        9.4370   16.1320   -3.2760 C.2   1300  HEM1300     0.0000
     19  C2B        8.9810   14.7470   -3.2490 C.2   1300  HEM1300     0.0000
     20  C3B        7.8360   14.7050   -2.5500 C.2   1300  HEM1300     0.0000
     21  C4B        7.5300   16.0560   -2.1130 C.2   1300  HEM1300     0.0000
     22  CMB        9.7460   13.5950   -3.9450 C.3   1300  HEM1300     0.0000
     23  CAB        6.9330   13.4980   -2.2050 C.2   1300  HEM1300     0.0000
     24  CBB        7.3220   12.2350   -2.3880 C.2   1300  HEM1300     0.0000
     25  NC         7.0360   18.7860   -0.9470 N.ar  1300  HEM1300     0.0000
     26  C1C        6.1940   17.6900   -0.8520 C.ar  1300  HEM1300     0.0000
     27  C2C        5.0180   18.0750   -0.1020 C.ar  1300  HEM1300     0.0000
     28  C3C        5.1490   19.3680    0.2590 C.ar  1300  HEM1300     0.0000
     29  C4C        6.4170   19.8180   -0.2900 C.ar  1300  HEM1300     0.0000
     30  CMC        3.8520   17.1210    0.2040 C.3   1300  HEM1300     0.0000
     31  CAC        4.1560   20.2350    1.0870 C.2   1300  HEM1300     0.0000
     32  CBC        2.8410   19.9820    1.1930 C.2   1300  HEM1300     0.0000
     33  ND         8.8820   20.8780   -1.7410 N.2   1300  HEM1300     0.0000
     34  C1D        7.9250   21.5950   -1.0240 C.2   1300  HEM1300     0.0000
     35  C2D        8.1810   23.0160   -1.1980 C.2   1300  HEM1300     0.0000
     36  C3D        9.3820   23.1200   -2.1290 C.2   1300  HEM1300     0.0000
     37  C4D        9.7490   21.7490   -2.4140 C.2   1300  HEM1300     0.0000
     38  CMD        7.3630   24.1750   -0.5960 C.3   1300  HEM1300     0.0000
     39  CAD       10.0170   24.4250   -2.6400 C.3   1300  HEM1300     0.0000
     40  CBD       11.2260   24.7730   -1.7670 C.3   1300  HEM1300     0.0000
     41  CGD       11.8530   26.0250   -2.3350 C.2   1300  HEM1300     0.0000
     42  O1D       12.7080   26.6120   -1.6250 O.co2 1300  HEM1300     0.0000
     43  O2D       11.4810   26.4500   -3.4570 O.co2 1300  HEM1300     0.0000
@<TRIPOS>BOND
     1    15    14   ar
     2    13    14    1
     3    13    12    1
     4    14    16   ar
     5    11     9    1
     6    12     8    1
     7     9     8   ar
     8     9    10   ar
     9     8     7   ar
    10    10     3    2
    11    10     6   ar
    12    22    19    1
    13     3    18    1
    14     7     6   ar
    15     7     2    2
    16    43    41   ar
    17     6     1    1
    18    18    19    1
    19    18    17    2
    20    19    20    2
    21     2    37    1
    22    39    36    1
    23    39    40    1
    24    17    21    1
    25    17     1    1
    26    20    23    1
    27    20    21    1
    28    37    36    1
    29    37    33    2
    30    24    23    2
    31    41    40    1
    32    41    42   ar
    33    36    35    2
    34    21     4    2
    35     1    33    1
    36     1    25    1
    37    33    34    1
    38     4    26    1
    39    35    34    1
    40    35    38    1
    41    34     5    2
    42    25    26   ar
    43    25    29   ar
    44    26    27   ar
    45    29     5    1
    46    29    28   ar
    47    27    30    1
    48    27    28   ar
    49    28    31    1
    50    31    32    2
