@<TRIPOS>MOLECULE
2j18_MAN_A_1.pdb
 11 11 0 0 0
SMALL
GASTEIGER

@<TRIPOS>ATOM
      1  C1        -5.7920   21.5550  -10.5020 C.3   1307  MAN1307     0.1777
      2  C2        -7.2550   21.2410  -10.1930 C.3   1307  MAN1307     0.2141
      3  C3        -7.5950   19.8050  -10.5840 C.3   1307  MAN1307     0.2173
      4  C4        -7.0970   19.4340  -11.9860 C.3   1307  MAN1307     0.2142
      5  C5        -5.6370   19.8410  -12.1740 C.3   1307  MAN1307     0.1810
      6  C6        -5.1610   19.6750  -13.6140 C.3   1307  MAN1307     0.2141
      7  O2        -8.0770   22.1690  -10.8790 O.3   1307  MAN1307    -0.2176
      8  O3        -8.9870   19.6080  -10.4890 O.3   1307  MAN1307    -0.2175
      9  O4        -7.1910   18.0390  -12.1440 O.3   1307  MAN1307    -0.2176
     10  O5        -5.4600   21.2080  -11.8360 O.3   1307  MAN1307    -0.3481
     11  O6        -3.8020   20.0580  -13.6490 O.3   1307  MAN1307    -0.2176
@<TRIPOS>BOND
     1    11     6    1
     2     6     5    1
     3     5     4    1
     4     5    10    1
     5     9     4    1
     6     4     3    1
     7    10     1    1
     8     7     2    1
     9     3     8    1
    10     3     2    1
    11     1     2    1
