@<TRIPOS>MOLECULE
2j19_HEM_A_1.pdb
 43 50 0 0 0
SMALL
GASTEIGER

@<TRIPOS>ATOM
      1 FE          8.8320   18.8400   -1.9440 Fe    1300  HEM1300     0.0000
      2  CHA       10.7350   21.4020   -3.2390 C.2   1300  HEM1300     0.0000
      3  CHB       10.5440   16.6280   -3.9920 C.2   1300  HEM1300     0.0000
      4  CHC        6.3870   16.4460   -1.4760 C.2   1300  HEM1300     0.0000
      5  CHD        6.8770   21.0970   -0.2230 C.2   1300  HEM1300     0.0000
      6  NA        10.3120   18.9890   -3.4060 N.ar  1300  HEM1300     0.0000
      7  C1A       11.0390   20.1350   -3.6630 C.ar  1300  HEM1300     0.0000
      8  C2A       12.1650   19.8020   -4.5160 C.ar  1300  HEM1300     0.0000
      9  C3A       12.1260   18.4750   -4.7360 C.ar  1300  HEM1300     0.0000
     10  C4A       10.9600   17.9460   -4.0290 C.ar  1300  HEM1300     0.0000
     11  CMA       13.1060   17.6190   -5.5650 C.3   1300  HEM1300     0.0000
     12  CAA       13.1950   20.8450   -5.0190 C.3   1300  HEM1300     0.0000
     13  CBA       12.5220   21.7530   -6.0570 C.3   1300  HEM1300     0.0000
     14  CGA       13.2860   23.0530   -6.0460 C.2   1300  HEM1300     0.0000
     15  O1A       14.2450   23.1920   -6.8460 O.co2 1300  HEM1300     0.0000
     16  O2A       12.9330   23.9450   -5.2360 O.co2 1300  HEM1300     0.0000
     17  NB         8.4620   16.8900   -2.6940 N.2   1300  HEM1300     0.0000
     18  C1B        9.4100   16.1440   -3.3480 C.2   1300  HEM1300     0.0000
     19  C2B        8.9750   14.7560   -3.3070 C.2   1300  HEM1300     0.0000
     20  C3B        7.8160   14.7030   -2.6190 C.2   1300  HEM1300     0.0000
     21  C4B        7.4790   16.0580   -2.2130 C.2   1300  HEM1300     0.0000
     22  CMB        9.7630   13.6140   -3.9850 C.3   1300  HEM1300     0.0000
     23  CAB        6.9410   13.4750   -2.2850 C.2   1300  HEM1300     0.0000
     24  CBB        7.3390   12.2260   -2.5430 C.2   1300  HEM1300     0.0000
     25  NC         6.9850   18.8000   -0.9960 N.ar  1300  HEM1300     0.0000
     26  C1C        6.1440   17.6970   -0.9320 C.ar  1300  HEM1300     0.0000
     27  C2C        4.9790   18.0580   -0.1450 C.ar  1300  HEM1300     0.0000
     28  C3C        5.1080   19.3530    0.2400 C.ar  1300  HEM1300     0.0000
     29  C4C        6.3610   19.8270   -0.3120 C.ar  1300  HEM1300     0.0000
     30  CMC        3.8300   17.0920    0.1670 C.3   1300  HEM1300     0.0000
     31  CAC        4.1180   20.1960    1.0890 C.2   1300  HEM1300     0.0000
     32  CBC        2.7970   19.9530    1.1590 C.2   1300  HEM1300     0.0000
     33  ND         8.8280   20.9120   -1.7640 N.2   1300  HEM1300     0.0000
     34  C1D        7.8720   21.6130   -1.0320 C.2   1300  HEM1300     0.0000
     35  C2D        8.1470   23.0370   -1.1830 C.2   1300  HEM1300     0.0000
     36  C3D        9.3420   23.1400   -2.1210 C.2   1300  HEM1300     0.0000
     37  C4D        9.7000   21.7720   -2.4280 C.2   1300  HEM1300     0.0000
     38  CMD        7.3490   24.2070   -0.5730 C.3   1300  HEM1300     0.0000
     39  CAD       10.0100   24.4300   -2.6400 C.3   1300  HEM1300     0.0000
     40  CBD       11.2320   24.7630   -1.7990 C.3   1300  HEM1300     0.0000
     41  CGD       11.8390   26.0230   -2.3590 C.2   1300  HEM1300     0.0000
     42  O1D       12.7060   26.5810   -1.6520 O.co2 1300  HEM1300     0.0000
     43  O2D       11.4430   26.4770   -3.4700 O.co2 1300  HEM1300     0.0000
@<TRIPOS>BOND
     1    15    14   ar
     2    13    14    1
     3    13    12    1
     4    14    16   ar
     5    11     9    1
     6    12     8    1
     7     9     8   ar
     8     9    10   ar
     9     8     7   ar
    10    10     3    2
    11    10     6   ar
    12     3    18    1
    13    22    19    1
    14     7     6   ar
    15     7     2    2
    16    43    41   ar
    17     6     1    1
    18    18    19    1
    19    18    17    2
    20    19    20    2
    21     2    37    1
    22    17    21    1
    23    17     1    1
    24    39    36    1
    25    39    40    1
    26    20    23    1
    27    20    21    1
    28    24    23    2
    29    37    36    1
    30    37    33    2
    31    41    40    1
    32    41    42   ar
    33    21     4    2
    34    36    35    2
    35     1    33    1
    36     1    25    1
    37    33    34    1
    38     4    26    1
    39    35    34    1
    40    35    38    1
    41    34     5    2
    42    25    26   ar
    43    25    29   ar
    44    26    27   ar
    45    29     5    1
    46    29    28   ar
    47    27    30    1
    48    27    28   ar
    49    28    31    1
    50    31    32    2
