@<TRIPOS>MOLECULE
2j19_MAN_A_1.pdb
 11 11 0 0 0
SMALL
GASTEIGER

@<TRIPOS>ATOM
      1  C1        -5.7790   21.5810  -10.5150 C.3   1307  MAN1307     0.1777
      2  C2        -7.2400   21.2510  -10.2060 C.3   1307  MAN1307     0.2141
      3  C3        -7.5730   19.8120  -10.5870 C.3   1307  MAN1307     0.2173
      4  C4        -7.1050   19.4620  -12.0050 C.3   1307  MAN1307     0.2142
      5  C5        -5.6400   19.8490  -12.1730 C.3   1307  MAN1307     0.1810
      6  C6        -5.1540   19.6460  -13.6060 C.3   1307  MAN1307     0.2141
      7  O2        -8.0580   22.1840  -10.8910 O.3   1307  MAN1307    -0.2176
      8  O3        -8.9610   19.6090  -10.4410 O.3   1307  MAN1307    -0.2175
      9  O4        -7.2150   18.0780  -12.2440 O.3   1307  MAN1307    -0.2176
     10  O5        -5.4430   21.2150  -11.8440 O.3   1307  MAN1307    -0.3481
     11  O6        -3.7900   19.9960  -13.6500 O.3   1307  MAN1307    -0.2176
@<TRIPOS>BOND
     1    11     6    1
     2     6     5    1
     3     9     4    1
     4     5     4    1
     5     5    10    1
     6     4     3    1
     7    10     1    1
     8     7     2    1
     9     3     8    1
    10     3     2    1
    11     1     2    1
