@<TRIPOS>MOLECULE
2j1a_GAL_A_1.pdb
 12 12 0 0 0
SMALL
GASTEIGER

@<TRIPOS>ATOM
      1  C1       -25.2460   17.8910   22.6760 C.3   1768  GAL1768     0.3024
      2  C2       -23.8080   18.4220   22.9080 C.3   1768  GAL1768     0.2434
      3  C3       -23.5060   19.3730   21.7340 C.3   1768  GAL1768     0.2199
      4  C4       -23.7810   18.7320   20.3510 C.3   1768  GAL1768     0.2144
      5  C5       -25.2120   18.1620   20.2950 C.3   1768  GAL1768     0.1836
      6  C6       -25.5700   17.5000   18.9530 C.3   1768  GAL1768     0.2142
      7  O1       -25.6320   17.0360   23.7230 O.3   1768  GAL1768    -0.1869
      8  O2       -23.7160   19.1740   24.0960 O.3   1768  GAL1768    -0.2148
      9  O3       -22.1530   19.8040   21.8550 O.3   1768  GAL1768    -0.2174
     10  O4       -22.8570   17.6630   20.1320 O.3   1768  GAL1768    -0.2176
     11  O5       -25.3830   17.2630   21.3750 O.3   1768  GAL1768    -0.3236
     12  O6       -26.8840   16.9580   19.0130 O.3   1768  GAL1768    -0.2176
@<TRIPOS>BOND
     1     6    12    1
     2     6     5    1
     3    10     4    1
     4     5     4    1
     5     5    11    1
     6     4     3    1
     7    11     1    1
     8     3     9    1
     9     3     2    1
    10     1     2    1
    11     1     7    1
    12     2     8    1
