@<TRIPOS>MOLECULE
2j1e_GAL_A_1.pdb
 11 11 0 0 0
SMALL
GASTEIGER

@<TRIPOS>ATOM
      1  C1        34.1480   20.4680   19.2120 C.3   1769  GAL1769     0.1777
      2  C2        35.6090   20.3160   19.6830 C.3   1769  GAL1769     0.2141
      3  C3        36.5930   20.9290   18.6880 C.3   1769  GAL1769     0.2173
      4  C4        36.2880   20.4410   17.2590 C.3   1769  GAL1769     0.2142
      5  C5        34.8040   20.7570   16.9310 C.3   1769  GAL1769     0.1810
      6  C6        34.3870   20.3690   15.5230 C.3   1769  GAL1769     0.2141
      7  O2        35.7980   20.8360   20.9980 O.3   1769  GAL1769    -0.2176
      8  O3        37.9160   20.6110   19.0880 O.3   1769  GAL1769    -0.2175
      9  O4        36.5780   19.0560   17.1480 O.3   1769  GAL1769    -0.2176
     10  O5        33.9420   20.1320   17.8440 O.3   1769  GAL1769    -0.3481
     11  O6        33.0160   20.6620   15.3400 O.3   1769  GAL1769    -0.2176
@<TRIPOS>BOND
     1    11     6    1
     2     6     5    1
     3     5     4    1
     4     5    10    1
     5     9     4    1
     6     4     3    1
     7    10     1    1
     8     3     8    1
     9     3     2    1
    10     1     2    1
    11     2     7    1
