@<TRIPOS>MOLECULE
2j1e_NDG_A_1.pdb
 15 15 0 0 0
SMALL
GASTEIGER

@<TRIPOS>ATOM
      1  C1        29.2860   19.6500   21.3450 C.3   1768  NDG1768     0.2917
      2  C2        29.6930   18.6400   20.2490 C.3   1768  NDG1768     0.1871
      3  C3        31.2340   18.4820   20.0660 C.3   1768  NDG1768     0.2095
      4  C4        31.9730   19.8250   19.9960 C.3   1768  NDG1768     0.2136
      5  C5        31.4490   20.7940   21.0860 C.3   1768  NDG1768     0.1835
      6  C6        31.8010   22.2220   20.6850 C.3   1768  NDG1768     0.2142
      7  C7        28.0610   16.9280   19.8090 C.2   1768  NDG1768     0.2421
      8  C8        27.3800   15.6470   20.2210 C.3   1768  NDG1768     0.0964
      9  O         30.0390   20.8490   21.2420 O.3   1768  NDG1768    -0.3242
     10  O3        31.5730   17.8150   18.8660 O.3   1768  NDG1768    -0.2183
     11  O4        33.3990   19.6380   20.0940 O.3   1768  NDG1768    -0.2176
     12  O6        32.3420   22.7200   21.8810 O.3   1768  NDG1768    -0.2176
     13  O7        27.7230   17.5460   18.8020 O.2   1768  NDG1768    -0.2733
     14  N2        29.0430   17.3850   20.5710 N.am  1768  NDG1768    -0.1991
     15  O1L       29.5910   19.1190   22.6250 O.3   1768  NDG1768    -0.1879
@<TRIPOS>BOND
     1    13     7    2
     2    10     3    1
     3     7     8    1
     4     7    14   am
     5     4     3    1
     6     4    11    1
     7     4     5    1
     8     3     2    1
     9     2    14    1
    10     2     1    1
    11     6     5    1
    12     6    12    1
    13     5     9    1
    14     9     1    1
    15     1    15    1
