@<TRIPOS>MOLECULE
2j1g_FUC_B_1.pdb
 10 10 0 0 0
SMALL
GASTEIGER

@<TRIPOS>ATOM
      1  C1       -12.8280   83.2610   14.1710 C.3   1293  FUC1293     0.1776
      2  C2       -13.3100   82.3620   13.0240 C.3   1293  FUC1293     0.2141
      3  C3       -12.2970   81.2780   12.6760 C.3   1293  FUC1293     0.2172
      4  C4       -11.8620   80.4900   13.9020 C.3   1293  FUC1293     0.2116
      5  C5       -11.5200   81.4500   15.0420 C.3   1293  FUC1293     0.1483
      6  C6       -11.1890   80.6940   16.3240 C.3   1293  FUC1293     0.0349
      7  O2       -13.4990   83.1260   11.8620 O.3   1293  FUC1293    -0.2176
      8  O3       -12.8330   80.4040   11.7040 O.3   1293  FUC1293    -0.2175
      9  O4       -12.8720   79.5730   14.2760 O.3   1293  FUC1293    -0.2177
     10  O5       -12.5510   82.4120   15.2650 O.3   1293  FUC1293    -0.3508
@<TRIPOS>BOND
     1     8     3    1
     2     7     2    1
     3     3     2    1
     4     3     4    1
     5     2     1    1
     6     4     9    1
     7     4     5    1
     8     1    10    1
     9     5    10    1
    10     5     6    1
