@<TRIPOS>MOLECULE
2j1g_SC2_F_1.pdb
 10 9 0 0 0
SMALL
GASTEIGER

@<TRIPOS>ATOM
      1  C         48.0210   67.8770   22.1530 C.2   1290  SC21290     0.3851
      2  CB        47.7320   69.9370   20.8060 C.3   1290  SC21290     0.1019
      3  CT        51.0770   68.8410   20.8210 C.2   1290  SC21290     0.2423
      4  CA        48.7420   69.0240   21.5020 C.3   1290  SC21290     0.2093
      5  N         49.7870   68.6080   20.5810 N.am  1290  SC21290    -0.1946
      6  O         46.8860   68.1090   22.6420 O.co2 1290  SC21290    -0.2437
      7  OXT       48.5790   66.7510   22.1960 O.co2 1290  SC21290    -0.2437
      8  OT        51.8140   68.2470   21.4420 O.2   1290  SC21290    -0.2733
      9  CM        51.5300   70.2770   20.9370 C.3   1290  SC21290     0.0964
     10  SG        47.1370   69.2160   19.2460 S.3   1290  SC21290    -0.0797
@<TRIPOS>BOND
     1    10     2    1
     2     5     3   am
     3     5     4    1
     4     2     4    1
     5     3     9    1
     6     3     8    2
     7     4     1    1
     8     1     7   ar
     9     1     6   ar
