@<TRIPOS>MOLECULE
2j1l_GDP_A_1.pdb
 28 30 0 0 0
SMALL
GASTEIGER

@<TRIPOS>ATOM
      1  PB       -33.3390   29.6330    1.1070 P.3   1194  GDP1194     0.5373
      2  O1B      -34.2390   29.9670   -0.0400 O.2   1194  GDP1194    -0.2221
      3  O2B      -33.4530   28.1990    1.5190 O.3   1194  GDP1194    -0.1143
      4  O3B      -33.6780   30.5270    2.2740 O.3   1194  GDP1194    -0.1143
      5  O3A      -31.8350   29.8660    0.6290 O.3   1194  GDP1194    -0.2261
      6  PA       -31.5830   30.8930   -0.6030 P.3   1194  GDP1194     0.2231
      7  O1A      -32.0210   30.3400   -1.9390 O.2   1194  GDP1194    -0.5169
      8  O2A      -32.3510   32.1610   -0.3340 O.3   1194  GDP1194    -0.4370
      9  O5'      -29.9770   31.0840   -0.5990 O.3   1194  GDP1194    -0.3111
     10  C5'      -29.2630   31.3270    0.6050 C.3   1194  GDP1194     0.1813
     11  C4'      -27.8380   31.7560    0.3040 C.3   1194  GDP1194     0.1799
     12  O4'      -27.0600   30.7370   -0.3520 O.3   1194  GDP1194    -0.3326
     13  C3'      -27.8320   32.9400   -0.6640 C.3   1194  GDP1194     0.2158
     14  O3'      -26.6280   33.7130   -0.5040 O.3   1194  GDP1194    -0.2175
     15  C2'      -27.7570   32.2960   -2.0120 C.3   1194  GDP1194     0.2310
     16  O2'      -27.1970   33.1440   -3.0000 O.3   1194  GDP1194    -0.2158
     17  C1'      -26.8020   31.1770   -1.7060 C.3   1194  GDP1194     0.2293
     18  N9       -26.9750   30.0750   -2.6530 N.pl3 1194  GDP1194    -0.2354
     19  C8       -28.1170   29.5110   -3.0920 C.3   1194  GDP1194     0.2246
     20  N7       -27.8320   28.4750   -3.9340 N.2   1194  GDP1194    -0.2322
     21  C5       -26.4980   28.3890   -4.0320 C.2   1194  GDP1194     0.2182
     22  C6       -25.5510   27.5300   -4.7400 C.1   1194  GDP1194     0.2372
     23  O6       -25.9380   26.5900   -5.4950 O.2   1194  GDP1194    -0.2069
     24  N1       -24.2550   27.7940   -4.5480 N.2   1194  GDP1194    -0.2485
     25  C2       -23.8080   28.7900   -3.7540 C.1   1194  GDP1194     0.2531
     26  N2       -22.4740   28.9820   -3.6290 N.pl3 1194  GDP1194    -0.0226
     27  N3       -24.6170   29.6180   -3.0690 N.2   1194  GDP1194    -0.3074
     28  C4       -25.9440   29.4450   -3.1830 C.2   1194  GDP1194     0.2300
@<TRIPOS>BOND
     1    23    22    2
     2    22    24    2
     3    22    21    1
     4    24    25    2
     5    21    20    2
     6    21    28    1
     7    20    19    1
     8    25    26    1
     9    25    27    2
    10    28    27    2
    11    28    18    1
    12    19    18    1
    13    16    15    1
    14    18    17    1
    15    15    17    1
    16    15    13    1
    17     7     6    2
    18    17    12    1
    19    13    14    1
    20    13    11    1
    21     6     9    1
    22     6     8    1
    23     6     5    1
    24     9    10    1
    25    12    11    1
    26     2     1    2
    27    11    10    1
    28     5     1    1
    29     1     3    1
    30     1     4    1
