@<TRIPOS>MOLECULE
2j1m_HEM_A_1.pdb
 43 50 0 0 0
SMALL
GASTEIGER

@<TRIPOS>ATOM
      1 FE         10.4070   13.0040   45.2630 Fe    1456  HEM1456     0.0000
      2  CHA       12.9560   12.8850   47.5860 C.2   1456  HEM1456     0.0000
      3  CHB        8.3720   11.3060   47.4580 C.2   1456  HEM1456     0.0000
      4  CHC        7.8110   13.2440   43.0210 C.2   1456  HEM1456     0.0000
      5  CHD       12.5180   14.4380   42.9920 C.2   1456  HEM1456     0.0000
      6  NA        10.6390   12.1960   47.1510 N.2   1456  HEM1456     0.0000
      7  C1A       11.7610   12.3040   47.9340 C.2   1456  HEM1456     0.0000
      8  C2A       11.5140   11.6080   49.1950 C.2   1456  HEM1456     0.0000
      9  C3A       10.2320   11.1840   49.1580 C.2   1456  HEM1456     0.0000
     10  C4A        9.6580   11.5730   47.8850 C.2   1456  HEM1456     0.0000
     11  CMA        9.4560   10.3930   50.2310 C.3   1456  HEM1456     0.0000
     12  CAA       12.5190   11.4510   50.3810 C.3   1456  HEM1456     0.0000
     13  CBA       13.3120   10.1540   50.1520 C.3   1456  HEM1456     0.0000
     14  CGA       14.2730    9.8190   51.2920 C.2   1456  HEM1456     0.0000
     15  O1A       14.1800   10.4090   52.3950 O.co2 1456  HEM1456     0.0000
     16  O2A       15.0820    8.8590   51.0770 O.co2 1456  HEM1456     0.0000
     17  NB         8.4970   12.3820   45.2260 N.ar  1456  HEM1456     0.0000
     18  C1B        7.8440   11.7410   46.2650 C.ar  1456  HEM1456     0.0000
     19  C2B        6.4580   11.5580   45.8690 C.ar  1456  HEM1456     0.0000
     20  C3B        6.2860   12.0730   44.6340 C.ar  1456  HEM1456     0.0000
     21  C4B        7.5770   12.6120   44.2140 C.ar  1456  HEM1456     0.0000
     22  CMB        5.4230   10.8630   46.7660 C.3   1456  HEM1456     0.0000
     23  CAB        5.0200   12.1500   43.7580 C.2   1456  HEM1456     0.0000
     24  CBB        3.7590   12.1070   44.1990 C.2   1456  HEM1456     0.0000
     25  NC        10.2010   13.6950   43.3600 N.2   1456  HEM1456     0.0000
     26  C1C        9.0410   13.7590   42.6470 C.2   1456  HEM1456     0.0000
     27  C2C        9.2900   14.4620   41.4050 C.2   1456  HEM1456     0.0000
     28  C3C       10.5980   14.8090   41.3930 C.2   1456  HEM1456     0.0000
     29  C4C       11.1830   14.3250   42.6370 C.2   1456  HEM1456     0.0000
     30  CMC        8.2150   14.7290   40.3210 C.3   1456  HEM1456     0.0000
     31  CAC       11.4210   15.5680   40.3240 C.2   1456  HEM1456     0.0000
     32  CBC       11.0990   15.5810   39.0270 C.2   1456  HEM1456     0.0000
     33  ND        12.3810   13.5430   45.2630 N.ar  1456  HEM1456     0.0000
     34  C1D       13.0470   14.1410   44.2060 C.ar  1456  HEM1456     0.0000
     35  C2D       14.4300   14.4030   44.5960 C.ar  1456  HEM1456     0.0000
     36  C3D       14.5370   13.9720   46.0210 C.ar  1456  HEM1456     0.0000
     37  C4D       13.2350   13.4340   46.3550 C.ar  1456  HEM1456     0.0000
     38  CMD       15.5720   15.0490   43.7760 C.3   1456  HEM1456     0.0000
     39  CAD       15.7880   14.0850   46.8910 C.3   1456  HEM1456     0.0000
     40  CBD       15.6910   15.4730   47.5440 C.3   1456  HEM1456     0.0000
     41  CGD       16.9270   15.7320   48.3710 C.2   1456  HEM1456     0.0000
     42  O1D       17.6170   16.7650   48.1070 O.co2 1456  HEM1456     0.0000
     43  O2D       17.2250   14.8920   49.2720 O.co2 1456  HEM1456     0.0000
@<TRIPOS>BOND
     1    32    31    2
     2    30    27    1
     3    31    28    1
     4    28    27    2
     5    28    29    1
     6    27    26    1
     7    29     5    1
     8    29    25    2
     9    26     4    2
    10    26    25    1
    11     5    34    2
    12     4    21    1
    13    25     1    1
    14    23    24    2
    15    23    20    1
    16    38    35    1
    17    34    35   ar
    18    34    33   ar
    19    21    20   ar
    20    21    17   ar
    21    35    36   ar
    22    20    19   ar
    23    17     1    1
    24    17    18   ar
    25    33     1    1
    26    33    37   ar
    27     1     6    1
    28    19    18   ar
    29    19    22    1
    30    36    37   ar
    31    36    39    1
    32    18     3    1
    33    37     2    2
    34    39    40    1
    35     6    10    1
    36     6     7    2
    37     3    10    2
    38    40    41    1
    39     2     7    1
    40    10     9    1
    41     7     8    1
    42    42    41   ar
    43    41    43   ar
    44     9     8    2
    45     9    11    1
    46     8    12    1
    47    13    12    1
    48    13    14    1
    49    16    14   ar
    50    14    15   ar
