@<TRIPOS>MOLECULE
2j1p_GRG_A_1.pdb
 29 28 0 0 0
SMALL
GASTEIGER

@<TRIPOS>ATOM
      1  C20        7.3570   14.8350   11.0850 C.2   1308  GRG1308    -0.0091
      2  C19        7.0550   16.9190    9.7940 C.3   1308  GRG1308     0.0264
      3  C18        7.3750   15.4430    9.8890 C.2   1308  GRG1308    -0.0439
      4  C17        7.7160   14.6620    8.6520 C.3   1308  GRG1308     0.0224
      5  C16        7.4560   15.3480    7.3090 C.3   1308  GRG1308     0.0087
      6  C14        7.6910   14.5810    4.2360 C.3   1308  GRG1308     0.0260
      7  C13        6.4540   14.9060    5.0870 C.2   1308  GRG1308    -0.0482
      8  C15        6.4320   14.5270    6.5450 C.3   1308  GRG1308     0.0220
      9  C12        5.3050   15.4780    4.6800 C.2   1308  GRG1308    -0.0343
     10  C11        4.9800   15.9740    3.2960 C.3   1308  GRG1308     0.0297
     11  C9         5.1000   17.4870    3.3420 C.3   1308  GRG1308     0.0263
     12  C8         4.5490   18.2270    2.1600 C.2   1308  GRG1308    -0.0478
     13  C10        5.1040   17.8810    0.7940 C.3   1308  GRG1308     0.0260
     14  C7         3.6130   19.1790    2.4060 C.2   1308  GRG1308    -0.0342
     15  C6         2.9650   20.0680    1.3670 C.3   1308  GRG1308     0.0297
     16  C5         3.2440   21.4870    1.8740 C.3   1308  GRG1308     0.0264
     17  C3         2.8090   22.6400    0.9880 C.2   1308  GRG1308    -0.0454
     18  C4         1.4030   23.1870    1.1660 C.3   1308  GRG1308     0.0261
     19  C2         3.7370   23.1280    0.1290 C.2   1308  GRG1308    -0.0024
     20  C1         3.5130   24.2930   -0.7970 C.3   1308  GRG1308     0.1747
     21  O1         3.3480   25.4270    0.0600 O.3   1308  GRG1308    -0.3089
     22  PA         3.9130   26.8830   -0.2920 P.3   1308  GRG1308     0.2233
     23  O1A        3.6220   27.7730    0.9030 O.3   1308  GRG1308    -0.4370
     24  O3A        5.5100   26.7130   -0.4680 O.3   1308  GRG1308    -0.2261
     25  O2A        3.2320   27.3580   -1.5770 O.2   1308  GRG1308    -0.5169
     26  PB         6.5580   27.9320   -0.4340 P.3   1308  GRG1308     0.5373
     27  O1B        7.3780   27.7150   -1.6960 O.2   1308  GRG1308    -0.2221
     28  O2B        5.8080   29.2220   -0.3790 O.3   1308  GRG1308    -0.1143
     29  O3B        7.3980   27.7180    0.8040 O.3   1308  GRG1308    -0.1143
@<TRIPOS>BOND
     1    27    26    2
     2    25    22    2
     3    20    21    1
     4    20    19    1
     5    24    26    1
     6    24    22    1
     7    26    28    1
     8    26    29    1
     9    22    21    1
    10    22    23    1
    11    19    17    2
    12    13    12    1
    13    17    18    1
    14    17    16    1
    15    15    16    1
    16    15    14    1
    17    12    14    2
    18    12    11    1
    19    10    11    1
    20    10     9    1
    21     6     7    1
    22     9     7    2
    23     7     8    1
    24     8     5    1
    25     5     4    1
    26     4     3    1
    27     2     3    1
    28     3     1    2
