@<TRIPOS>MOLECULE
2j1s_FUL_A_1.pdb
 11 11 0 0 0
SMALL
GASTEIGER

@<TRIPOS>ATOM
      1  C1       -11.6920   12.7380   21.8330 C.3   1153  FUL1153     0.3023
      2  C2       -11.4700   11.2330   21.9640 C.3   1153  FUL1153     0.2434
      3  O2       -12.6800   10.6340   22.3980 O.3   1153  FUL1153    -0.2148
      4  C3       -11.0160   10.6470   20.6440 C.3   1153  FUL1153     0.2198
      5  O3       -10.7870    9.2830   20.8000 O.3   1153  FUL1153    -0.2174
      6  C4        -9.7880   11.3710   20.1150 C.3   1153  FUL1153     0.2118
      7  O4        -8.7230   11.1600   21.0080 O.3   1153  FUL1153    -0.2177
      8  C5       -10.0870   12.8770   20.0420 C.3   1153  FUL1153     0.1509
      9  C6        -8.9340   13.7300   19.4760 C.3   1153  FUL1153     0.0350
     10  O5       -10.5150   13.3170   21.3040 O.3   1153  FUL1153    -0.3264
     11  O1       -11.9090   13.2760   23.1030 O.3   1153  FUL1153    -0.1869
@<TRIPOS>BOND
     1     9     8    1
     2     8     6    1
     3     8    10    1
     4     6     4    1
     5     6     7    1
     6     4     5    1
     7     4     2    1
     8    10     1    1
     9     1     2    1
    10     1    11    1
    11     2     3    1
