@<TRIPOS>MOLECULE
2j1t_FUC_A_1.pdb
 10 10 0 0 0
SMALL
GASTEIGER

@<TRIPOS>ATOM
      1  C1       -11.5640   12.8500   22.2960 C.3   1150  FUC1150     0.1776
      2  C2       -11.1490   11.3470   22.2880 C.3   1150  FUC1150     0.2141
      3  C3       -10.7810   10.8420   20.8940 C.3   1150  FUC1150     0.2172
      4  C4        -9.7100   11.7600   20.3140 C.3   1150  FUC1150     0.2116
      5  C5       -10.2480   13.1960   20.3200 C.3   1150  FUC1150     0.1483
      6  C6        -9.2560   14.1630   19.6860 C.3   1150  FUC1150     0.0349
      7  O2       -12.1610   10.4960   22.8390 O.3   1150  FUC1150    -0.2176
      8  O3       -10.3250    9.5320   20.9300 O.3   1150  FUC1150    -0.2175
      9  O4        -8.5690   11.6880   21.1370 O.3   1150  FUC1150    -0.2177
     10  O5       -10.6210   13.6920   21.6260 O.3   1150  FUC1150    -0.3508
@<TRIPOS>BOND
     1     6     5    1
     2     4     5    1
     3     4     3    1
     4     4     9    1
     5     5    10    1
     6     3     8    1
     7     3     2    1
     8    10     1    1
     9     2     1    1
    10     2     7    1
