@<TRIPOS>MOLECULE
2j1u_FUC_A_1.pdb
 10 10 0 0 0
SMALL
GASTEIGER

@<TRIPOS>ATOM
      1  C1       -11.7110   13.0910   22.4970 C.3   1155  FUC1155     0.1776
      2  C2       -11.3080   11.6000   22.5840 C.3   1155  FUC1155     0.2141
      3  C3       -10.8960   11.0710   21.2110 C.3   1155  FUC1155     0.2172
      4  C4        -9.7740   11.9730   20.6730 C.3   1155  FUC1155     0.2116
      5  C5       -10.2990   13.4140   20.5500 C.3   1155  FUC1155     0.1483
      6  C6        -9.3060   14.3860   19.8550 C.3   1155  FUC1155     0.0349
      7  O2       -12.3130   10.7870   23.1630 O.3   1155  FUC1155    -0.2176
      8  O3       -10.4930    9.7100   21.3260 O.3   1155  FUC1155    -0.2175
      9  O4        -8.6480   11.8430   21.5030 O.3   1155  FUC1155    -0.2177
     10  O5       -10.6850   13.8470   21.8710 O.3   1155  FUC1155    -0.3508
@<TRIPOS>BOND
     1     6     5    1
     2     5     4    1
     3     5    10    1
     4     4     3    1
     5     4     9    1
     6     3     8    1
     7     3     2    1
     8    10     1    1
     9     1     2    1
    10     2     7    1
