@<TRIPOS>MOLECULE
2j1v_FUC_A_1.pdb
 10 10 0 0 0
SMALL
GASTEIGER

@<TRIPOS>ATOM
      1  C1       -11.3450   13.3250   22.6030 C.3   1155  FUC1155     0.1776
      2  C2       -11.2070   11.7990   22.5760 C.3   1155  FUC1155     0.2141
      3  C3       -11.0080   11.2290   21.1900 C.3   1155  FUC1155     0.2172
      4  C4        -9.8470   11.9330   20.4940 C.3   1155  FUC1155     0.2116
      5  C5       -10.2170   13.4080   20.4720 C.3   1155  FUC1155     0.1483
      6  C6        -9.1060   14.2140   19.8240 C.3   1155  FUC1155     0.0349
      7  O2       -12.2990   11.1790   23.1800 O.3   1155  FUC1155    -0.2176
      8  O3       -10.7680    9.8510   21.1700 O.3   1155  FUC1155    -0.2175
      9  O4        -8.6910   11.7540   21.2480 O.3   1155  FUC1155    -0.2177
     10  O5       -10.3950   13.8770   21.7650 O.3   1155  FUC1155    -0.3508
@<TRIPOS>BOND
     1     6     5    1
     2     5     4    1
     3     5    10    1
     4     4     3    1
     5     4     9    1
     6     8     3    1
     7     3     2    1
     8    10     1    1
     9     2     1    1
    10     2     7    1
