@<TRIPOS>MOLECULE
2j2i_LY4_B_1.pdb
 35 40 0 0 0
SMALL
GASTEIGER

@<TRIPOS>ATOM
      1  CBD       39.4820   -1.7760   -2.1850 C.3   1307  LY41307     0.0554
      2  CBB       39.8820   -0.5500   -1.3140 C.3   1307  LY41307     0.1086
      3  NAW       40.2160   -1.0350    0.0250 N.ar  1307  LY41307    -0.3260
      4  CAV       41.4520   -0.8920    0.4710 C.ar  1307  LY41307     0.0766
      5  CAX       39.4810   -1.6790    0.9410 C.ar  1307  LY41307     0.0599
      6  CAY       38.1440   -2.0850    0.9720 C.ar  1307  LY41307     0.0172
      7  CAZ       37.6190   -2.7500    2.0880 C.ar  1307  LY41307     0.0015
      8  CAP       38.4470   -3.0050    3.1720 C.ar  1307  LY41307     0.0001
      9  CAO       39.7830   -2.6070    3.1360 C.ar  1307  LY41307     0.0015
     10  CAN       40.3040   -1.9490    2.0160 C.ar  1307  LY41307     0.0180
     11  CAM       41.5540   -1.4300    1.6900 C.ar  1307  LY41307     0.0313
     12  CAH       42.7680   -1.4370    2.3840 C.2   1307  LY41307     0.1088
     13  CAE       43.0160   -1.4260    3.7620 C.1   1307  LY41307     0.2158
     14  OAF       42.1820   -1.3600    4.6650 O.2   1307  LY41307    -0.2086
     15  NAD       44.3000   -1.4830    4.0100 N.2   1307  LY41307    -0.2576
     16  CAC       44.9270   -1.5300    2.8610 C.1   1307  LY41307     0.2158
     17  OAB       46.1480   -1.5960    2.8010 O.2   1307  LY41307    -0.2086
     18  CAG       44.0380   -1.5220    1.7820 C.2   1307  LY41307     0.1088
     19  CAL       44.3450   -1.6070    0.4060 C.ar  1307  LY41307     0.0313
     20  CAU       43.6980   -2.4510   -0.4230 C.ar  1307  LY41307     0.0767
     21  CAK       45.3420   -1.0090   -0.3660 C.ar  1307  LY41307     0.0180
     22  CAJ       46.3380   -0.0810   -0.0800 C.ar  1307  LY41307     0.0015
     23  CAI       47.1950    0.3710   -1.0810 C.ar  1307  LY41307     0.0001
     24  CAQ       47.0720   -0.1240   -2.3750 C.ar  1307  LY41307     0.0015
     25  CAR       46.0880   -1.0600   -2.6600 C.ar  1307  LY41307     0.0172
     26  CAS       45.2170   -1.5040   -1.6590 C.ar  1307  LY41307     0.0600
     27  NAT       44.2090   -2.3790   -1.6710 N.ar  1307  LY41307    -0.3234
     28  CBA       43.6440   -3.2130   -2.7510 C.3   1307  LY41307     0.1380
     29  CBC       42.8350   -2.4430   -3.7930 C.3   1307  LY41307     0.1665
     30  OBE       41.6180   -1.7990   -3.3130 O.3   1307  LY41307    -0.3527
     31  CBF       40.6500   -2.6440   -2.7140 C.3   1307  LY41307     0.1331
     32  CBG       40.1710   -3.7160   -3.7590 C.3   1307  LY41307     0.1021
     33  NBH       38.7390   -4.0420   -3.5440 N.3   1307  LY41307    -0.2682
     34  CBI       38.5660   -4.9020   -2.3450 C.3   1307  LY41307     0.0897
     35  CBJ       38.1140   -4.6790   -4.7250 C.3   1307  LY41307     0.0897
@<TRIPOS>BOND
     1    35    33    1
     2    29    30    1
     3    29    28    1
     4    32    33    1
     5    32    31    1
     6    33    34    1
     7    30    31    1
     8    28    27    1
     9    31     1    1
    10    25    24   ar
    11    25    26   ar
    12    24    23   ar
    13     1     2    1
    14    27    26   ar
    15    27    20   ar
    16    26    21   ar
    17     2     3    1
    18    23    22   ar
    19    20    19   ar
    20    21    22   ar
    21    21    19   ar
    22     3     4   ar
    23     3     5   ar
    24    19    18    1
    25     4    11   ar
    26     5     6   ar
    27     5    10   ar
    28     6     7   ar
    29    11    10   ar
    30    11    12    1
    31    18    12    2
    32    18    16    1
    33    10     9   ar
    34     7     8   ar
    35    12    13    1
    36    17    16    2
    37    16    15    2
    38     9     8   ar
    39    13    15    2
    40    13    14    2
