@<TRIPOS>MOLECULE
2j2m_HEM_A_1.pdb
 43 50 0 0 0
SMALL
GASTEIGER

@<TRIPOS>ATOM
      1 FE         13.7370    4.5320   36.1830 Fe    501  HEM501      0.0000
      2  CHA       16.2610    2.2240   36.0450 C.2   501  HEM501      0.0000
      3  CHB       12.3300    2.8560   38.8690 C.2   501  HEM501      0.0000
      4  CHC       11.7010    7.2220   36.9150 C.2   501  HEM501      0.0000
      5  CHD       15.1480    6.3310   33.6630 C.2   501  HEM501      0.0000
      6  NA        14.2420    2.8790   37.3210 N.2   501  HEM501      0.0000
      7  C1A       15.2310    1.9850   36.9510 C.2   501  HEM501      0.0000
      8  C2A       14.9860    0.7590   37.7080 C.2   501  HEM501      0.0000
      9  C3A       13.8950    0.9410   38.4900 C.2   501  HEM501      0.0000
     10  C4A       13.4190    2.2800   38.2610 C.2   501  HEM501      0.0000
     11  CMA       13.2330   -0.0600   39.4680 C.3   501  HEM501      0.0000
     12  CAA       15.8720   -0.5100   37.6120 C.3   501  HEM501      0.0000
     13  CBA       15.3720   -1.5210   36.5770 C.3   501  HEM501      0.0000
     14  CGA       16.3000   -2.7130   36.6550 C.2   501  HEM501      0.0000
     15  O1A       17.0670   -2.9670   35.6880 O.co2 501  HEM501      0.0000
     16  O2A       16.2900   -3.4020   37.7110 O.co2 501  HEM501      0.0000
     17  NB        12.3690    5.0040   37.7380 N.ar  501  HEM501      0.0000
     18  C1B       11.7700    4.0640   38.5490 C.ar  501  HEM501      0.0000
     19  C2B       10.4780    4.5670   38.9880 C.ar  501  HEM501      0.0000
     20  C3B       10.3310    5.7730   38.4400 C.ar  501  HEM501      0.0000
     21  C4B       11.5000    6.0660   37.6470 C.ar  501  HEM501      0.0000
     22  CMB        9.4420    3.8260   39.8800 C.3   501  HEM501      0.0000
     23  CAB        9.1160    6.7090   38.5510 C.2   501  HEM501      0.0000
     24  CBB        8.4760    6.8920   39.7010 C.2   501  HEM501      0.0000
     25  NC        13.5080    6.4710   35.4720 N.2   501  HEM501      0.0000
     26  C1C       12.4950    7.3530   35.8070 C.2   501  HEM501      0.0000
     27  C2C       12.4330    8.3990   34.8050 C.2   501  HEM501      0.0000
     28  C3C       13.3960    8.1220   33.9040 C.2   501  HEM501      0.0000
     29  C4C       14.0910    6.9140   34.3160 C.2   501  HEM501      0.0000
     30  CMC       11.4210    9.5830   34.7570 C.3   501  HEM501      0.0000
     31  CAC       13.7780    8.9330   32.6430 C.2   501  HEM501      0.0000
     32  CBC       13.0430    8.8810   31.5260 C.2   501  HEM501      0.0000
     33  ND        15.4890    4.3270   35.0440 N.ar  501  HEM501      0.0000
     34  C1D       15.8100    5.1690   33.9910 C.ar  501  HEM501      0.0000
     35  C2D       16.9320    4.6190   33.2560 C.ar  501  HEM501      0.0000
     36  C3D       17.2730    3.3250   33.9940 C.ar  501  HEM501      0.0000
     37  C4D       16.3270    3.2290   35.1010 C.ar  501  HEM501      0.0000
     38  CMD       17.5960    5.2010   31.9630 C.3   501  HEM501      0.0000
     39  CAD       18.3800    2.3150   33.6410 C.3   501  HEM501      0.0000
     40  CBD       17.7030    1.1110   32.9820 C.3   501  HEM501      0.0000
     41  CGD       18.6970    0.1900   32.3000 C.2   501  HEM501      0.0000
     42  O1D       19.9150    0.5260   32.1250 O.co2 501  HEM501      0.0000
     43  O2D       18.2490   -0.9060   31.9010 O.co2 501  HEM501      0.0000
@<TRIPOS>BOND
     1    32    31    2
     2    43    41   ar
     3    38    35    1
     4    42    41   ar
     5    41    40    1
     6    31    28    1
     7    40    39    1
     8    35    34   ar
     9    35    36   ar
    10    39    36    1
    11     5    34    2
    12     5    29    1
    13    28    29    1
    14    28    27    2
    15    34    33   ar
    16    36    37   ar
    17    29    25    2
    18    30    27    1
    19    27    26    1
    20    33    37   ar
    21    33     1    1
    22    37     2    2
    23    25    26    1
    24    25     1    1
    25    15    14   ar
    26    26     4    2
    27     2     7    1
    28     1     6    1
    29     1    17    1
    30    13    14    1
    31    13    12    1
    32    14    16   ar
    33     4    21    1
    34     7     6    2
    35     7     8    1
    36     6    10    1
    37    12     8    1
    38    21    17   ar
    39    21    20   ar
    40     8     9    2
    41    17    18   ar
    42    10     9    1
    43    10     3    2
    44    20    23    1
    45    20    19   ar
    46     9    11    1
    47    18     3    1
    48    18    19   ar
    49    23    24    2
    50    19    22    1
