@<TRIPOS>MOLECULE
2j2p_SC2_A_1.pdb
 10 9 0 0 0
SMALL
GASTEIGER

@<TRIPOS>ATOM
      1  C          7.8060   56.7560    3.4360 C.2   1290  SC21290     0.3851
      2  CB         8.2720   58.5000    1.7320 C.3   1290  SC21290     0.1019
      3  CT         5.6570   59.5830    2.4460 C.2   1290  SC21290     0.2423
      4  CA         7.1830   57.6750    2.4230 C.3   1290  SC21290     0.2093
      5  N          6.1830   58.5220    3.0490 N.am  1290  SC21290    -0.1946
      6  O          8.9080   57.0700    3.9460 O.co2 1290  SC21290    -0.2437
      7  OXT        7.1950   55.7070    3.7340 O.co2 1290  SC21290    -0.2437
      8  OT         6.3390   60.3760    1.8180 O.2   1290  SC21290    -0.2733
      9  CM         4.1720   59.7510    2.5860 C.3   1290  SC21290     0.0964
     10  SG         9.6220   57.4930    1.0520 S.3   1290  SC21290    -0.0797
@<TRIPOS>BOND
     1    10     2    1
     2     2     4    1
     3     8     3    2
     4     4     5    1
     5     4     1    1
     6     3     9    1
     7     3     5   am
     8     1     7   ar
     9     1     6   ar
