@<TRIPOS>MOLECULE
2j2p_BMA_C_1.pdb
 11 11 0 0 0
SMALL
GASTEIGER

@<TRIPOS>ATOM
      1  C1        33.9610   43.1240  -18.9870 C.3   1291  BMA1291     0.1777
      2  C2        35.2660   42.3530  -18.8180 C.3   1291  BMA1291     0.2141
      3  C3        36.4550   43.2660  -19.1240 C.3   1291  BMA1291     0.2173
      4  C4        35.9830   44.7200  -19.2130 C.3   1291  BMA1291     0.2142
      5  C5        35.0070   45.0540  -18.0780 C.3   1291  BMA1291     0.1810
      6  C6        35.6270   44.8970  -16.7000 C.3   1291  BMA1291     0.2141
      7  O2        35.2390   41.2330  -19.6790 O.3   1291  BMA1291    -0.2176
      8  O3        37.0770   42.8780  -20.3320 O.3   1291  BMA1291    -0.2175
      9  O4        37.0800   45.6220  -19.2090 O.3   1291  BMA1291    -0.2176
     10  O5        33.8680   44.2260  -18.1020 O.3   1291  BMA1291    -0.3481
     11  O6        34.6790   44.2800  -15.8590 O.3   1291  BMA1291    -0.2176
@<TRIPOS>BOND
     1     8     3    1
     2     7     2    1
     3     4     9    1
     4     4     3    1
     5     4     5    1
     6     3     2    1
     7     1     2    1
     8     1    10    1
     9    10     5    1
    10     5     6    1
    11     6    11    1
