@<TRIPOS>MOLECULE
2j2u_GSQ_A_1.pdb
 30 33 0 0 0
SMALL
GASTEIGER

@<TRIPOS>ATOM
      1 CL         13.9850    7.5280   26.1870 Cl    1244  GSQ1244    -0.1054
      2  C13       12.2480    7.6990   26.1510 C.3   1244  GSQ1244     0.1236
      3  C14       11.4930    7.1820   27.2330 C.2   1244  GSQ1244    -0.0033
      4  C11       10.0900    7.2970   27.1870 C.2   1244  GSQ1244     0.0287
      5  C6         9.4790    7.9410   26.0830 C.2   1244  GSQ1244     0.1287
      6  N1         8.1520    8.1990   25.7840 N.2   1244  GSQ1244    -0.3864
      7  C5        10.2540    8.4820   24.9880 C.2   1244  GSQ1244     0.0132
      8  C10       11.6420    8.3570   25.0530 C.2   1244  GSQ1244    -0.0071
      9  C2         9.3720    9.0700   24.0370 C.3   1244  GSQ1244     0.1086
     10  C1         8.1090    8.8410   24.5920 C.2   1244  GSQ1244     0.2349
     11  S4         6.5310    9.2820   24.0070 S.O2  1244  GSQ1244     0.1014
     12  O8         5.6650    9.1730   25.1390 O.2   1244  GSQ1244    -0.1494
     13  O9         6.6080   10.5090   23.2790 O.2   1244  GSQ1244    -0.1494
     14  N7         6.0030    8.2680   22.8500 N.3   1244  GSQ1244    -0.0678
     15  C12        6.1900    6.8190   22.8420 C.3   1244  GSQ1244     0.1754
     16  C15        7.0710    6.2480   21.7330 C.2   1244  GSQ1244     0.2438
     17  O19        8.1360    6.7260   21.3350 O.2   1244  GSQ1244    -0.2733
     18  C16        4.8490    6.0750   22.7180 C.3   1244  GSQ1244     0.0502
     19  C20        5.0510    5.0650   21.5780 C.3   1244  GSQ1244     0.0959
     20  N18        6.4880    5.1170   21.2860 N.am  1244  GSQ1244    -0.2718
     21  C21        7.2540    4.0430   20.6140 C.3   1244  GSQ1244     0.1521
     22  C23        6.9970    2.7010   21.3190 C.3   1244  GSQ1244     0.0314
     23  C22        7.0000    3.8700   19.1120 C.2   1244  GSQ1244     0.2439
     24  O25        5.8610    4.0100   18.6740 O.2   1244  GSQ1244    -0.2731
     25  N24        8.0520    3.5530   18.2950 N.am  1244  GSQ1244    -0.2731
     26  C26        9.2600    2.7890   18.6630 C.3   1244  GSQ1244     0.1255
     27  C28        9.6150    1.6910   17.6480 C.3   1244  GSQ1244     0.1636
     28  O30        9.6060    2.2560   16.3370 O.3   1244  GSQ1244    -0.3501
     29  C29        8.3310    2.7880   15.9710 C.3   1244  GSQ1244     0.1636
     30  C27        8.0200    3.9780   16.8890 C.3   1244  GSQ1244     0.1255
@<TRIPOS>BOND
     1    29    28    1
     2    29    30    1
     3    28    27    1
     4    30    25    1
     5    27    26    1
     6    25    26    1
     7    25    23   am
     8    24    23    2
     9    23    21    1
    10    21    20    1
    11    21    22    1
    12    20    19    1
    13    20    16   am
    14    17    16    2
    15    19    18    1
    16    16    15    1
    17    18    15    1
    18    15    14    1
    19    14    11    1
    20    13    11    2
    21    11    10    1
    22    11    12    2
    23     9    10    1
    24     9     7    1
    25    10     6    2
    26     7     8    2
    27     7     5    1
    28     8     2    1
    29     6     5    2
    30     5     4    1
    31     2     1    1
    32     2     3    1
    33     4     3    2
