@<TRIPOS>MOLECULE
2j30_III_B_1.pdb
 36 35 0 0 0
SMALL
GASTEIGER

@<TRIPOS>ATOM
      1  C         41.1340   14.0180   74.6720 C.2     1  ACE1        0.2423
      2  O         39.9510   13.8290   74.3740 O.2     1  ACE1       -0.2733
      3  CH3       41.4710   14.3310   76.1290 C.3     1  ACE1        0.0964
      4  N         42.1290   13.9390   73.7940 N.am    2  ASP2       -0.1972
      5  CA        41.8890   13.7230   72.3720 C.3     2  ASP2        0.1839
      6  C         41.5000   12.2770   72.0760 C.2     2  ASP2        0.2622
      7  O         42.1670   11.3400   72.5170 O.2     2  ASP2       -0.2715
      8  CB        43.1210   14.1140   71.5500 C.3     2  ASP2        0.1450
      9  CG        43.4050   15.6060   71.5880 C.2     2  ASP2        0.3671
     10  OD1       42.4430   16.4040   71.5660 O.co2   2  ASP2       -0.2456
     11  OD2       44.5970   15.9790   71.6220 O.co2   2  ASP2       -0.2456
     12  N         40.4040   12.1130   71.3390 N.am    3  GLU3       -0.1963
     13  CA        39.8870   10.7950   70.9680 C.3     3  GLU3        0.1733
     14  C         39.4170   10.8390   69.5150 C.2     3  GLU3        0.2616
     15  O         39.1250   11.9110   68.9910 O.2     3  GLU3       -0.2715
     16  CB        38.6970   10.4190   71.8670 C.3     3  GLU3        0.0429
     17  CG        39.0070   10.3910   73.3660 C.3     3  GLU3        0.1163
     18  CD        37.8010   10.0480   74.2370 C.2     3  GLU3        0.3649
     19  OE1       36.6630    9.9860   73.7240 O.co2   3  GLU3       -0.2457
     20  OE2       37.9970    9.8400   75.4540 O.co2   3  GLU3       -0.2457
     21  N         39.3620    9.6790   68.8630 N.am    4  VAL4       -0.1963
     22  CA        38.9010    9.6030   67.4750 C.3     4  VAL4        0.1727
     23  C         37.4570    9.1080   67.4230 C.2     4  VAL4        0.2616
     24  O         37.0200    8.3530   68.2960 O.2     4  VAL4       -0.2715
     25  CB        39.8110    8.7010   66.6040 C.3     4  VAL4        0.0290
     26  CG1       41.1790    9.3470   66.4350 C.3     4  VAL4        0.0023
     27  CG2       39.9420    7.3170   67.2160 C.3     4  VAL4        0.0023
     28  N         36.7240    9.5160   66.3910 N.am    5  ASP5       -0.1976
     29  CA        35.3190    9.1410   66.2650 C.3     5  ASP5        0.1635
     30  C         35.0910    7.8400   65.4860 C.2     5  ASP5        0.1713
     31  O         34.4000    7.8290   64.4590 O.2     5  ASP5       -0.2942
     32  CB        34.5300   10.2840   65.6310 C.3     5  ASP5        0.1432
     33  CG        33.9030   11.1820   66.6740 C.2     5  ASP5        0.3671
     34  OD1       33.7050   10.6930   67.8020 O.co2   5  ASP5       -0.2456
     35  OD2       33.6210   12.3650   66.3870 O.co2   5  ASP5       -0.2456
     36  C1        35.6900    6.5050   65.9460 C.3     6  0QE6        0.0741
@<TRIPOS>BOND
     1    31    30    2
     2    30    36    1
     3    30    29    1
     4    32    29    1
     5    32    33    1
     6    29    28    1
     7    35    33   ar
     8    28    23   am
     9    26    25    1
    10    25    27    1
    11    25    22    1
    12    33    34   ar
    13    23    22    1
    14    23    24    2
    15    22    21    1
    16    21    14   am
    17    15    14    2
    18    14    13    1
    19    13    12    1
    20    13    16    1
    21    12     6   am
    22     8     9    1
    23     8     5    1
    24    10     9   ar
    25     9    11   ar
    26    16    17    1
    27     6     5    1
    28     6     7    2
    29     5     4    1
    30    17    18    1
    31    19    18   ar
    32     4     1   am
    33    18    20   ar
    34     2     1    2
    35     1     3    1
