@<TRIPOS>MOLECULE
2j31_III_B_1.pdb
 36 35 0 0 0
SMALL
GASTEIGER

@<TRIPOS>ATOM
      1  C         40.3680   13.9380   74.0510 C.2     1  ACE1        0.2423
      2  O         39.2060   13.6110   73.8100 O.2     1  ACE1       -0.2733
      3  CH3       40.7860   14.0670   75.5190 C.3     1  ACE1        0.0964
      4  N         41.3580   13.7950   73.1760 N.am    2  ASP2       -0.1972
      5  CA        41.1010   13.5660   71.7580 C.3     2  ASP2        0.1839
      6  C         40.7410   12.1080   71.4860 C.2     2  ASP2        0.2622
      7  O         41.4290   11.1900   71.9400 O.2     2  ASP2       -0.2715
      8  CB        42.3120   13.9740   70.9170 C.3     2  ASP2        0.1450
      9  CG        42.6260   15.4580   71.0200 C.2     2  ASP2        0.3671
     10  OD1       41.6830   16.2750   71.1160 O.co2   2  ASP2       -0.2456
     11  OD2       43.8230   15.8070   71.0030 O.co2   2  ASP2       -0.2456
     12  N         39.6410   11.9150   70.7630 N.am    3  GLU3       -0.1963
     13  CA        39.1390   10.5900   70.4090 C.3     3  GLU3        0.1733
     14  C         38.6660   10.6300   68.9570 C.2     3  GLU3        0.2616
     15  O         38.3930   11.7020   68.4260 O.2     3  GLU3       -0.2715
     16  CB        37.9530   10.2160   71.3080 C.3     3  GLU3        0.0429
     17  CG        38.2230   10.3400   72.8090 C.3     3  GLU3        0.1163
     18  CD        37.0640    9.8750   73.6820 C.2     3  GLU3        0.3649
     19  OE1       35.9070    9.8400   73.2080 O.co2   3  GLU3       -0.2457
     20  OE2       37.3170    9.5480   74.8620 O.co2   3  GLU3       -0.2457
     21  N         38.5930    9.4700   68.3110 N.am    4  VAL4       -0.1963
     22  CA        38.1230    9.4040   66.9260 C.3     4  VAL4        0.1727
     23  C         36.6530    8.9930   66.8900 C.2     4  VAL4        0.2616
     24  O         36.1580    8.3600   67.8250 O.2     4  VAL4       -0.2715
     25  CB        38.9710    8.4370   66.0610 C.3     4  VAL4        0.0290
     26  CG1       40.3870    8.9680   65.9170 C.3     4  VAL4        0.0023
     27  CG2       38.9810    7.0410   66.6640 C.3     4  VAL4        0.0023
     28  N         35.9550    9.3560   65.8170 N.am    5  ASP5       -0.1976
     29  CA        34.5340    9.0370   65.6830 C.3     5  ASP5        0.1635
     30  C         34.2830    7.8040   64.8050 C.2     5  ASP5        0.1713
     31  O         33.5060    7.8630   63.8440 O.2     5  ASP5       -0.2942
     32  CB        33.7780   10.2400   65.1130 C.3     5  ASP5        0.1432
     33  CG        33.1960   11.1190   66.1990 C.2     5  ASP5        0.3671
     34  OD1       32.9770   10.6060   67.3140 O.co2   5  ASP5       -0.2456
     35  OD2       32.9590   12.3180   65.9470 O.co2   5  ASP5       -0.2456
     36  C1        34.9650    6.4560   65.0730 C.3     6  0QE6        0.0741
@<TRIPOS>BOND
     1    31    30    2
     2    30    36    1
     3    30    29    1
     4    32    29    1
     5    32    33    1
     6    29    28    1
     7    28    23   am
     8    26    25    1
     9    35    33   ar
    10    25    27    1
    11    25    22    1
    12    33    34   ar
    13    23    22    1
    14    23    24    2
    15    22    21    1
    16    21    14   am
    17    15    14    2
    18    14    13    1
    19    13    12    1
    20    13    16    1
    21    12     6   am
    22     8     9    1
    23     8     5    1
    24    11     9   ar
    25     9    10   ar
    26    16    17    1
    27     6     5    1
    28     6     7    2
    29     5     4    1
    30    17    18    1
    31     4     1   am
    32    19    18   ar
    33    18    20   ar
    34     2     1    2
    35     1     3    1
