@<TRIPOS>MOLECULE
2j32_III_B_1.pdb
 33 32 0 0 0
SMALL
GASTEIGER

@<TRIPOS>ATOM
      1  N         42.8870   13.3250   73.3700 N.3     2  ASP2       -0.1225
      2  CA        42.0410   13.4080   72.1880 C.3     2  ASP2        0.1805
      3  C         41.5260   12.0130   71.8420 C.2     2  ASP2        0.2598
      4  O         42.1300   11.0180   72.2350 O.2     2  ASP2       -0.2718
      5  CB        42.8370   14.0180   71.0360 C.3     2  ASP2        0.1424
      6  CG        43.2780   15.4410   71.3280 C.2     2  ASP2        0.3668
      7  OD1       42.4000   16.3240   71.4130 O.co2   2  ASP2       -0.2456
      8  OD2       44.4960   15.6760   71.4730 O.co2   2  ASP2       -0.2456
      9  N         40.3840   11.9430   71.1590 N.am    3  GLU3       -0.1965
     10  CA        39.7870   10.6610   70.7770 C.3     3  GLU3        0.1733
     11  C         39.3160   10.7160   69.3280 C.2     3  GLU3        0.2616
     12  O         39.0570   11.7950   68.8010 O.2     3  GLU3       -0.2715
     13  CB        38.5980   10.3270   71.6930 C.3     3  GLU3        0.0429
     14  CG        38.9490   10.2890   73.1810 C.3     3  GLU3        0.1163
     15  CD        37.7910    9.8860   74.0880 C.2     3  GLU3        0.3649
     16  OE1       36.6200    9.8990   73.6500 O.co2   3  GLU3       -0.2457
     17  OE2       38.0610    9.5630   75.2640 O.co2   3  GLU3       -0.2457
     18  N         39.2310    9.5570   68.6800 N.am    4  VAL4       -0.1963
     19  CA        38.7720    9.4910   67.2900 C.3     4  VAL4        0.1727
     20  C         37.3210    9.0130   67.2090 C.2     4  VAL4        0.2616
     21  O         36.8420    8.3060   68.0960 O.2     4  VAL4       -0.2715
     22  CB        39.6770    8.5840   66.4160 C.3     4  VAL4        0.0290
     23  CG1       41.0680    9.1910   66.2870 C.3     4  VAL4        0.0023
     24  CG2       39.7540    7.1750   66.9890 C.3     4  VAL4        0.0023
     25  N         36.6250    9.3840   66.1380 N.am    5  ASP5       -0.1976
     26  CA        35.2250    9.0020   65.9790 C.3     5  ASP5        0.1635
     27  C         35.0390    7.7500   65.1060 C.2     5  ASP5        0.1713
     28  O         34.2270    7.7430   64.1740 O.2     5  ASP5       -0.2942
     29  CB        34.4270   10.1750   65.4100 C.3     5  ASP5        0.1432
     30  CG        33.8710   11.0660   66.5010 C.2     5  ASP5        0.3671
     31  OD1       33.6850   10.5550   67.6210 O.co2   5  ASP5       -0.2456
     32  OD2       33.6380   12.2690   66.2600 O.co2   5  ASP5       -0.2456
     33  C1        35.8300    6.4600   65.3530 C.3     6  0QE6        0.0741
@<TRIPOS>BOND
     1    28    27    2
     2    27    33    1
     3    27    26    1
     4    29    26    1
     5    29    30    1
     6    26    25    1
     7    25    20   am
     8    32    30   ar
     9    23    22    1
    10    22    24    1
    11    22    19    1
    12    30    31   ar
    13    20    19    1
    14    20    21    2
    15    19    18    1
    16    18    11   am
    17    12    11    2
    18    11    10    1
    19    10     9    1
    20    10    13    1
    21     5     6    1
    22     5     2    1
    23     9     3   am
    24     6     7   ar
    25     6     8   ar
    26    13    14    1
    27     3     2    1
    28     3     4    2
    29     2     1    1
    30    14    15    1
    31    16    15   ar
    32    15    17   ar
