@<TRIPOS>MOLECULE
2j33_III_B_1.pdb
 36 35 0 0 0
SMALL
GASTEIGER

@<TRIPOS>ATOM
      1  C         40.3270   13.5850   74.3800 C.2     1  ACE1        0.2423
      2  O         39.1420   13.4470   74.0720 O.2     1  ACE1       -0.2733
      3  CH3       40.6920   13.5210   75.8730 C.3     1  ACE1        0.0964
      4  N         41.3200   13.4570   73.5040 N.am    2  ASP2       -0.1972
      5  CA        41.0570   13.2660   72.0820 C.3     2  ASP2        0.1839
      6  C         40.6430   11.8340   71.7640 C.2     2  ASP2        0.2622
      7  O         41.3050   10.8780   72.1690 O.2     2  ASP2       -0.2715
      8  CB        42.2730   13.6540   71.2490 C.3     2  ASP2        0.1450
      9  CG        42.6130   15.1290   71.3670 C.2     2  ASP2        0.3671
     10  OD1       41.6890   15.9610   71.4960 O.co2   2  ASP2       -0.2456
     11  OD2       43.8150   15.4520   71.3240 O.co2   2  ASP2       -0.2456
     12  N         39.5340   11.7070   71.0390 N.am    3  GLU3       -0.1963
     13  CA        38.9810   10.4150   70.6490 C.3     3  GLU3        0.1733
     14  C         38.5040   10.4910   69.2000 C.2     3  GLU3        0.2616
     15  O         38.1620   11.5710   68.7170 O.2     3  GLU3       -0.2715
     16  CB        37.7910   10.0530   71.5560 C.3     3  GLU3        0.0429
     17  CG        38.1420    9.9750   73.0440 C.3     3  GLU3        0.1163
     18  CD        36.9610    9.6050   73.9440 C.2     3  GLU3        0.3649
     19  OE1       35.7880    9.7320   73.5270 O.co2   3  GLU3       -0.2457
     20  OE2       37.2170    9.1860   75.0900 O.co2   3  GLU3       -0.2457
     21  N         38.5030    9.3560   68.5030 N.am    4  VAL4       -0.1963
     22  CA        38.0390    9.3240   67.1170 C.3     4  VAL4        0.1727
     23  C         36.5810    8.8890   67.0600 C.2     4  VAL4        0.2616
     24  O         36.0920    8.2100   67.9610 O.2     4  VAL4       -0.2715
     25  CB        38.9150    8.4120   66.2180 C.3     4  VAL4        0.0290
     26  CG1       40.3060    9.0060   66.0700 C.3     4  VAL4        0.0023
     27  CG2       38.9930    6.9990   66.7830 C.3     4  VAL4        0.0023
     28  N         35.8780    9.3140   66.0160 N.am    5  ASP5       -0.1976
     29  CA        34.4670    8.9770   65.8600 C.3     5  ASP5        0.1635
     30  C         34.2590    7.7520   64.9640 C.2     5  ASP5        0.1713
     31  O         33.5500    7.8250   63.9620 O.2     5  ASP5       -0.2942
     32  CB        33.7000   10.1730   65.2970 C.3     5  ASP5        0.1432
     33  CG        33.1190   11.0450   66.3880 C.2     5  ASP5        0.3671
     34  OD1       32.8710   10.5120   67.4850 O.co2   5  ASP5       -0.2456
     35  OD2       32.9200   12.2580   66.1610 O.co2   5  ASP5       -0.2456
     36  C1        34.9060    6.3910   65.2670 C.3     6  0QE6        0.0741
@<TRIPOS>BOND
     1    31    30    2
     2    30    36    1
     3    30    29    1
     4    32    29    1
     5    32    33    1
     6    29    28    1
     7    28    23   am
     8    26    25    1
     9    35    33   ar
    10    25    27    1
    11    25    22    1
    12    33    34   ar
    13    23    22    1
    14    23    24    2
    15    22    21    1
    16    21    14   am
    17    15    14    2
    18    14    13    1
    19    13    12    1
    20    13    16    1
    21    12     6   am
    22     8     9    1
    23     8     5    1
    24    11     9   ar
    25     9    10   ar
    26    16    17    1
    27     6     5    1
    28     6     7    2
    29     5     4    1
    30    17    18    1
    31     4     1   am
    32    19    18   ar
    33    18    20   ar
    34     2     1    2
    35     1     3    1
