@<TRIPOS>MOLECULE
2j34_GS6_A_1.pdb
 30 33 0 0 0
SMALL
GASTEIGER

@<TRIPOS>ATOM
      1 CL         13.7680    7.3080   26.6650 Cl    1245  GS61245    -0.0822
      2  C1        12.0620    7.5350   26.3870 C.ar  1245  GS61245     0.0582
      3  C2        11.6350    8.1390   25.1910 C.ar  1245  GS61245     0.0179
      4  C3        10.2390    8.3210   24.9260 C.ar  1245  GS61245     0.0316
      5  C4         9.3090    7.8670   25.8950 C.ar  1245  GS61245     0.0079
      6  C5         7.9530    8.1060   25.5240 C.ar  1245  GS61245     0.0271
      7  C9         9.7370    7.2670   27.1030 C.ar  1245  GS61245     0.0014
      8  C10       11.1190    7.0970   27.3590 C.ar  1245  GS61245     0.0114
      9  C6         7.9630    8.7240   24.2400 C.ar  1245  GS61245     0.1530
     10  S1         6.4580    9.1250   23.4830 S.O2  1245  GS61245     0.0829
     11  O2         5.4740    9.1170   24.5050 O.2   1245  GS61245    -0.1511
     12  O1         6.5920   10.3140   22.6940 O.2   1245  GS61245    -0.1511
     13  N1         6.0530    8.0100   22.3610 N.3   1245  GS61245    -0.0694
     14  C12        6.1290    6.5490   22.5640 C.3   1245  GS61245     0.1754
     15  C13        4.7840    5.8390   22.3370 C.3   1245  GS61245     0.0502
     16  C14        5.1260    4.5170   21.6280 C.3   1245  GS61245     0.0959
     17  C15        7.1340    5.7510   21.7220 C.2   1245  GS61245     0.2437
     18  O3         8.2730    6.1080   21.4510 O.2   1245  GS61245    -0.2733
     19  N2         6.5620    4.5870   21.3350 N.am  1245  GS61245    -0.2718
     20  C16        7.3350    3.4890   20.6800 C.3   1245  GS61245     0.1521
     21  C17        7.0070    2.0910   21.2540 C.3   1245  GS61245     0.0314
     22  C18        7.1130    3.4600   19.1730 C.2   1245  GS61245     0.2439
     23  O4         6.1400    4.0560   18.7300 O.2   1245  GS61245    -0.2731
     24  N3         8.0040    2.7860   18.3790 N.am  1245  GS61245    -0.2731
     25  C19        7.7220    2.7270   16.9360 C.3   1245  GS61245     0.1255
     26  C20        8.9900    2.7460   16.0710 C.3   1245  GS61245     0.1636
     27  O5         9.9140    1.7640   16.5410 O.3   1245  GS61245    -0.3501
     28  C22       10.3830    2.0710   17.8490 C.3   1245  GS61245     0.1636
     29  C23        9.2290    2.0910   18.8520 C.3   1245  GS61245     0.1255
     30  S2         9.5280    9.0060   23.5500 S.2   1245  GS61245    -0.0672
@<TRIPOS>BOND
     1    26    27    1
     2    26    25    1
     3    27    28    1
     4    25    24    1
     5    28    29    1
     6    24    29    1
     7    24    22   am
     8    23    22    2
     9    22    20    1
    10    20    21    1
    11    20    19    1
    12    19    16    1
    13    19    17   am
    14    18    17    2
    15    16    15    1
    16    17    14    1
    17    15    14    1
    18    13    14    1
    19    13    10    1
    20    12    10    2
    21    10     9    1
    22    10    11    2
    23    30     9   ar
    24    30     4   ar
    25     9     6   ar
    26     4     3   ar
    27     4     5   ar
    28     3     2   ar
    29     6     5   ar
    30     5     7   ar
    31     2     1    1
    32     2     8   ar
    33     7     8   ar
