@<TRIPOS>MOLECULE
2j38_GS5_A_1.pdb
 30 33 0 0 0
SMALL
GASTEIGER

@<TRIPOS>ATOM
      1 CL         13.6800    7.3130   26.2850 Cl    1245  GS51245    -0.0822
      2  C13       11.9610    7.5320   26.1230 C.ar  1245  GS51245     0.0577
      3  C14       11.1410    7.1960   27.2210 C.ar  1245  GS51245     0.0119
      4  C11        9.7550    7.3550   27.0940 C.ar  1245  GS51245     0.0074
      5  C6         9.2060    7.8550   25.8720 C.ar  1245  GS51245     0.0308
      6  C5        10.0370    8.1990   24.7700 C.ar  1245  GS51245     0.0087
      7  C10       11.4300    8.0330   24.9070 C.ar  1245  GS51245     0.0119
      8  C2         9.3210    8.6770   23.6310 C.ar  1245  GS51245     0.0271
      9  C1         7.9320    8.6440   24.0050 C.ar  1245  GS51245     0.1530
     10  S4         6.6410    9.1490   22.9720 S.O2  1245  GS51245     0.0829
     11  O8         7.1170   10.3510   22.3130 O.2   1245  GS51245    -0.1511
     12  O9         5.4770    9.2490   23.8090 O.2   1245  GS51245    -0.1511
     13  N7         6.2660    8.0320   21.8200 N.3   1245  GS51245    -0.0694
     14  C12        6.2170    6.5810   22.1100 C.3   1245  GS51245     0.1754
     15  C15        7.1560    5.6520   21.3480 C.2   1245  GS51245     0.2437
     16  O19        8.2760    5.9200   20.9290 O.2   1245  GS51245    -0.2733
     17  C16        4.8450    5.9260   21.8970 C.3   1245  GS51245     0.0502
     18  C20        5.1600    4.4420   21.6280 C.3   1245  GS51245     0.0959
     19  N18        6.5500    4.4590   21.1950 N.am  1245  GS51245    -0.2718
     20  C21        7.2880    3.3240   20.5920 C.3   1245  GS51245     0.1521
     21  C23        6.9050    1.9570   21.1820 C.3   1245  GS51245     0.0314
     22  C22        7.1300    3.3730   19.0710 C.2   1245  GS51245     0.2439
     23  O25        6.2810    4.1410   18.6370 O.2   1245  GS51245    -0.2731
     24  N24        7.9150    2.5870   18.2480 N.am  1245  GS51245    -0.2731
     25  C26        7.6300    2.5670   16.8080 C.3   1245  GS51245     0.1255
     26  C28        8.9250    2.8250   16.0210 C.3   1245  GS51245     0.1636
     27  O30        9.9720    1.9180   16.4040 O.3   1245  GS51245    -0.3501
     28  C29       10.3060    1.8950   17.7980 C.3   1245  GS51245     0.1636
     29  C27        9.0500    1.7270   18.6630 C.3   1245  GS51245     0.1255
     30  S3         7.5660    8.0920   25.5800 S.2   1245  GS51245    -0.0672
@<TRIPOS>BOND
     1    26    27    1
     2    26    25    1
     3    27    28    1
     4    25    24    1
     5    28    29    1
     6    24    29    1
     7    24    22   am
     8    23    22    2
     9    22    20    1
    10    20    21    1
    11    20    19    1
    12    16    15    2
    13    19    15   am
    14    19    18    1
    15    15    14    1
    16    18    17    1
    17    13    14    1
    18    13    10    1
    19    17    14    1
    20    11    10    2
    21    10    12    2
    22    10     9    1
    23     8     9   ar
    24     8     6   ar
    25     9    30   ar
    26     6     7   ar
    27     6     5   ar
    28     7     2   ar
    29    30     5   ar
    30     5     4   ar
    31     2     1    1
    32     2     3   ar
    33     4     3   ar
