@<TRIPOS>MOLECULE
2j3e_GDP_A_1.pdb
 28 30 0 0 0
SMALL
GASTEIGER

@<TRIPOS>ATOM
      1  PB        52.8000   32.5580   52.8350 P.3   1251  GDP1251     0.5373
      2  O1B       51.7010   33.4980   53.0210 O.3   1251  GDP1251    -0.1143
      3  O2B       53.2360   32.4350   51.4470 O.2   1251  GDP1251    -0.2221
      4  O3B       52.5000   31.2360   53.4260 O.3   1251  GDP1251    -0.1143
      5  O3A       54.0620   33.1580   53.6680 O.3   1251  GDP1251    -0.2261
      6  PA        55.4060   33.5730   52.8910 P.3   1251  GDP1251     0.2231
      7  O1A       55.0540   34.5810   51.8640 O.2   1251  GDP1251    -0.5169
      8  O2A       56.1000   32.3370   52.4830 O.3   1251  GDP1251    -0.4370
      9  O5'       56.3470   34.3310   53.9600 O.3   1251  GDP1251    -0.3111
     10  C5'       57.1610   33.6250   54.9140 C.3   1251  GDP1251     0.1813
     11  C4'       57.9910   34.6100   55.7350 C.3   1251  GDP1251     0.1799
     12  O4'       58.7070   33.9930   56.8310 O.3   1251  GDP1251    -0.3326
     13  C3'       59.0180   35.3090   54.8400 C.3   1251  GDP1251     0.2158
     14  O3'       58.7250   36.7010   54.6990 O.3   1251  GDP1251    -0.2175
     15  C2'       60.3830   35.0890   55.4490 C.3   1251  GDP1251     0.2310
     16  O2'       61.0730   36.3200   55.7190 O.3   1251  GDP1251    -0.2158
     17  C1'       60.1340   34.2800   56.7070 C.3   1251  GDP1251     0.2293
     18  N9        61.0040   33.0660   56.7950 N.pl3 1251  GDP1251    -0.2354
     19  C8        62.2310   32.9410   57.3700 C.3   1251  GDP1251     0.2246
     20  N7        62.8560   31.8250   57.3650 N.2   1251  GDP1251    -0.2322
     21  C5        61.9310   31.0420   56.6730 C.2   1251  GDP1251     0.2182
     22  C6        61.9870   29.6630   56.3160 C.1   1251  GDP1251     0.2372
     23  O6        62.8820   28.8650   56.5330 O.2   1251  GDP1251    -0.2069
     24  N1        60.8480   29.2510   55.6220 N.2   1251  GDP1251    -0.2485
     25  C2        59.7560   30.0640   55.3080 C.1   1251  GDP1251     0.2531
     26  N2        58.7670   29.4840   54.6480 N.pl3 1251  GDP1251    -0.0226
     27  N3        59.6760   31.3770   55.6430 N.2   1251  GDP1251    -0.3074
     28  C4        60.7830   31.8000   56.3130 C.2   1251  GDP1251     0.2300
@<TRIPOS>BOND
     1     3     1    2
     2     7     6    2
     3     8     6    1
     4     1     2    1
     5     1     4    1
     6     1     5    1
     7     6     5    1
     8     6     9    1
     9     9    10    1
    10    26    25    1
    11    14    13    1
    12    13    15    1
    13    13    11    1
    14    10    11    1
    15    25    24    2
    16    25    27    2
    17    15    16    1
    18    15    17    1
    19    24    22    2
    20    27    28    2
    21    11    12    1
    22    28    21    1
    23    28    18    1
    24    22    23    2
    25    22    21    1
    26    21    20    2
    27    17    18    1
    28    17    12    1
    29    18    19    1
    30    20    19    1
