@<TRIPOS>MOLECULE
2j3f_FUC_B_1.pdb
 10 10 0 0 0
SMALL
GASTEIGER

@<TRIPOS>ATOM
      1  C1        28.5180   59.0230  -13.5570 C.3   1293  FUC1293     0.1776
      2  C2        28.1360   58.1030  -12.3990 C.3   1293  FUC1293     0.2141
      3  C3        26.6930   58.2280  -12.0070 C.3   1293  FUC1293     0.2172
      4  C4        25.7720   58.1340  -13.2330 C.3   1293  FUC1293     0.2116
      5  C5        26.2610   59.0330  -14.3900 C.3   1293  FUC1293     0.1483
      6  C6        25.5260   58.7520  -15.6990 C.3   1293  FUC1293     0.0349
      7  O2        28.8120   58.4950  -11.2320 O.3   1293  FUC1293    -0.2176
      8  O3        26.4810   57.2350  -11.0250 O.3   1293  FUC1293    -0.2175
      9  O4        25.5760   56.7920  -13.6670 O.3   1293  FUC1293    -0.2177
     10  O5        27.6400   58.9000  -14.6590 O.3   1293  FUC1293    -0.3508
@<TRIPOS>BOND
     1     6     5    1
     2    10     5    1
     3    10     1    1
     4     5     4    1
     5     9     4    1
     6     1     2    1
     7     4     3    1
     8     2     3    1
     9     2     7    1
    10     3     8    1
