@<TRIPOS>MOLECULE
2j3f_A2G_B_1.pdb
 15 15 0 0 0
SMALL
GASTEIGER

@<TRIPOS>ATOM
      1  C1        16.5300   36.5180   -2.4110 C.3   1289  A2G1289     0.2917
      2  C2        15.5380   37.4670   -1.7230 C.3   1289  A2G1289     0.1871
      3  C3        14.6920   36.6840   -0.7760 C.3   1289  A2G1289     0.2095
      4  C4        14.0190   35.4810   -1.4510 C.3   1289  A2G1289     0.2136
      5  C5        15.1230   34.6530   -2.0660 C.3   1289  A2G1289     0.1835
      6  C6        14.7300   33.2800   -2.5450 C.3   1289  A2G1289     0.2142
      7  C7        15.9200   39.8190   -1.1810 C.2   1289  A2G1289     0.2421
      8  C8        15.1650   40.1080    0.0850 C.3   1289  A2G1289     0.0964
      9  O         15.8340   35.4330   -3.0250 O.3   1289  A2G1289    -0.3242
     10  O1        17.4610   35.9420   -1.8370 O.3   1289  A2G1289    -0.1879
     11  O3        13.6450   37.5150   -0.2730 O.3   1289  A2G1289    -0.2183
     12  O4        13.1070   35.9650   -2.4070 O.3   1289  A2G1289    -0.2176
     13  O6        15.8890   32.4790   -2.5670 O.3   1289  A2G1289    -0.2176
     14  O7        16.0370   40.6190   -2.1250 O.2   1289  A2G1289    -0.2733
     15  N2        16.4450   38.5860   -1.1730 N.am  1289  A2G1289    -0.1991
@<TRIPOS>BOND
     1     9     1    1
     2     9     5    1
     3    13     6    1
     4     6     5    1
     5     1    10    1
     6     1     2    1
     7    12     4    1
     8    14     7    2
     9     5     4    1
    10     2    15    1
    11     2     3    1
    12     4     3    1
    13     7    15   am
    14     7     8    1
    15     3    11    1
