@<TRIPOS>MOLECULE
2j3g_FUC_B_1.pdb
 10 10 0 0 0
SMALL
GASTEIGER

@<TRIPOS>ATOM
      1  C1        78.6460   26.5900    7.4290 C.3   1292  FUC1292     0.1776
      2  C2        78.3080   27.6840    6.4220 C.3   1292  FUC1292     0.2141
      3  C3        76.8890   27.4340    5.9570 C.3   1292  FUC1292     0.2172
      4  C4        75.9380   27.4860    7.1440 C.3   1292  FUC1292     0.2116
      5  C5        76.3710   26.5440    8.2620 C.3   1292  FUC1292     0.1483
      6  C6        75.5960   26.8210    9.5600 C.3   1292  FUC1292     0.0349
      7  O2        79.1630   27.6250    5.2940 O.3   1292  FUC1292    -0.2176
      8  O3        76.5570   28.4140    5.0070 O.3   1292  FUC1292    -0.2175
      9  O4        75.9960   28.7860    7.6640 O.3   1292  FUC1292    -0.2177
     10  O5        77.7510   26.7250    8.5140 O.3   1292  FUC1292    -0.3508
@<TRIPOS>BOND
     1     8     3    1
     2     7     2    1
     3     3     2    1
     4     3     4    1
     5     2     1    1
     6     4     9    1
     7     4     5    1
     8     1    10    1
     9     5    10    1
    10     5     6    1
