@<TRIPOS>MOLECULE
2j3i_NAP_A_1.pdb
 48 52 0 0 0
SMALL
GASTEIGER

@<TRIPOS>ATOM
      1  PA        30.0070    9.3300   89.4640 P.3   350  NAP350      0.2189
      2  O1A       29.4310    9.8510   90.7320 O.3   350  NAP350     -0.4371
      3  O2A       31.4170    8.8620   89.5210 O.2   350  NAP350     -0.5170
      4  O5B       29.0920    8.0350   88.9350 O.3   350  NAP350     -0.3112
      5  C5B       27.7640    7.8790   89.5160 C.3   350  NAP350      0.1813
      6  C4B       26.7180    8.9400   89.1330 C.3   350  NAP350      0.1820
      7  O4B       25.8450    8.3240   88.1730 O.3   350  NAP350     -0.3136
      8  C3B       25.7760    9.3740   90.2560 C.3   350  NAP350      0.2157
      9  O3B       26.2450   10.5550   90.9180 O.3   350  NAP350     -0.2175
     10  C2B       24.4020    9.5830   89.5920 C.3   350  NAP350      0.2314
     11  O2B       23.8960   10.9610   89.6450 O.3   350  NAP350     -0.2630
     12  C1B       24.6180    9.0850   88.1570 C.3   350  NAP350      0.3158
     13  N9A       23.5160    8.2430   87.6110 N.pl3 350  NAP350     -0.1439
     14  C8A       23.3550    6.9160   87.7650 C.3   350  NAP350      0.3377
     15  N7A       22.3280    6.4510   87.0450 N.2   350  NAP350     -0.2095
     16  C5A       21.8670    7.5370   86.4470 C.2   350  NAP350      0.2526
     17  C6A       20.7970    7.5690   85.5660 C.2   350  NAP350      0.4393
     18  N6A       20.1090    6.4740   85.2530 N.pl3 350  NAP350      0.2180
     19  N1A       20.5030    8.7770   85.0510 N.2   350  NAP350      0.0021
     20  C2A       21.1970    9.8750   85.3760 C.3   350  NAP350      0.5254
     21  N3A       22.2170    9.8420   86.2260 N.2   350  NAP350     -0.0055
     22  C4A       22.5740    8.6670   86.7790 C.2   350  NAP350      0.3518
     23  O3        29.9060   10.6110   88.4150 O.3   350  NAP350     -0.2703
     24  PN        30.3650   10.8530   86.7740 P.3   350  NAP350      0.2189
     25  O1N       30.7140   12.2950   86.6800 O.3   350  NAP350     -0.4371
     26  O2N       29.1750   10.4650   85.9700 O.2   350  NAP350     -0.5170
     27  O5D       31.6950    9.9890   86.1040 O.3   350  NAP350     -0.3112
     28  C5D       31.5710    8.7510   85.2790 C.3   350  NAP350      0.1813
     29  C4D       30.5980    8.3640   84.0930 C.3   350  NAP350      0.1799
     30  O4D       30.9080    8.6580   82.6880 O.3   350  NAP350     -0.3327
     31  C3D       30.3750    6.8760   83.8920 C.3   350  NAP350      0.2158
     32  O3D       29.2320    6.5610   83.0920 O.3   350  NAP350     -0.2175
     33  C2D       31.6390    6.4740   83.1550 C.3   350  NAP350      0.2309
     34  O2D       31.5900    5.2070   82.5000 O.3   350  NAP350     -0.2158
     35  C1D       31.8300    7.6410   82.2110 C.3   350  NAP350      0.2263
     36  N1N       33.2580    8.0360   82.0790 N.pl3 350  NAP350     -0.2787
     37  C2N       33.6960    8.5620   80.8530 C.3   350  NAP350      0.1244
     38  C3N       35.0400    8.8860   80.6480 C.2   350  NAP350      0.0544
     39  C7N       35.5360    9.2580   79.2360 C.2   350  NAP350      0.2818
     40  O7N       36.5230    8.7250   78.7300 O.2   350  NAP350     -0.2670
     41  N7N       34.7630   10.1080   78.5660 N.am  350  NAP350     -0.0839
     42  C4N       35.9460    8.7040   81.6980 C.2   350  NAP350      0.0033
     43  C5N       35.5300    8.1950   82.9310 C.2   350  NAP350      0.0157
     44  C6N       34.1920    7.8560   83.1240 C.2   350  NAP350      0.0633
     45  P2B       22.4340   11.2890   90.0900 P.3   350  NAP350      0.5328
     46  O1X       22.4050   12.7660   89.9680 O.3   350  NAP350     -0.1145
     47  O2X       21.3650   10.7060   89.2340 O.2   350  NAP350     -0.2224
     48  O3X       22.2870   10.8860   91.5100 O.3   350  NAP350     -0.1145
@<TRIPOS>BOND
     1    41    39   am
     2    40    39    2
     3    39    38    1
     4    38    37    1
     5    38    42    2
     6    37    36    1
     7    42    43    1
     8    36    35    1
     9    36    44    1
    10    35    30    1
    11    35    33    1
    12    34    33    1
    13    30    29    1
    14    43    44    2
    15    32    31    1
    16    33    31    1
    17    31    29    1
    18    29    28    1
    19    19    20    1
    20    19    17    2
    21    18    17    1
    22    28    27    1
    23    20    21    1
    24    17    16    1
    25    26    24    2
    26    27    24    1
    27    21    22    2
    28    16    22    1
    29    16    15    2
    30    25    24    1
    31    24    23    1
    32    22    13    1
    33    15    14    1
    34    13    14    1
    35    13    12    1
    36    12     7    1
    37    12    10    1
    38     7     6    1
    39    23     1    1
    40     4     1    1
    41     4     5    1
    42     6     5    1
    43     6     8    1
    44    47    45    2
    45     1     3    2
    46     1     2    1
    47    10    11    1
    48    10     8    1
    49    11    45    1
    50    46    45    1
    51    45    48    1
    52     8     9    1
