@<TRIPOS>MOLECULE
2j3j_NAP_A_1.pdb
 48 52 0 0 0
SMALL
GASTEIGER

@<TRIPOS>ATOM
      1  PA        29.7410    9.6110   89.2560 P.3   1346  NAP1346     0.2189
      2  O1A       30.9990    8.8350   89.1430 O.2   1346  NAP1346    -0.5170
      3  O2A       29.4060   10.1910   90.5790 O.3   1346  NAP1346    -0.4371
      4  O5B       28.5320    8.6410   88.7290 O.3   1346  NAP1346    -0.3112
      5  C5B       27.3140    8.4310   89.4540 C.3   1346  NAP1346     0.1813
      6  C4B       26.1420    9.2520   88.9500 C.3   1346  NAP1346     0.1820
      7  O4B       25.4270    8.5140   87.9290 O.3   1346  NAP1346    -0.3136
      8  C3B       25.1250    9.4810   90.0380 C.3   1346  NAP1346     0.2157
      9  O3B       25.5280   10.5230   90.9500 O.3   1346  NAP1346    -0.2175
     10  C2B       23.7940    9.6610   89.2590 C.3   1346  NAP1346     0.2314
     11  C1B       24.0730    9.0370   87.8420 C.3   1346  NAP1346     0.3158
     12  N9A       23.1370    7.9540   87.3440 N.pl3 1346  NAP1346    -0.1439
     13  C8A       23.0990    6.6840   87.7880 C.3   1346  NAP1346     0.3377
     14  N7A       22.1120    5.9410   87.2940 N.2   1346  NAP1346    -0.2095
     15  C5A       21.5160    6.8050   86.4980 C.2   1346  NAP1346     0.2526
     16  C6A       20.3750    6.5270   85.7250 C.2   1346  NAP1346     0.4393
     17  N6A       19.6860    5.3890   85.8320 N.pl3 1346  NAP1346     0.2180
     18  N1A       19.9190    7.5360   84.9320 N.2   1346  NAP1346     0.0021
     19  C2A       20.5130    8.7360   84.8940 C.3   1346  NAP1346     0.5254
     20  N3A       21.5960    9.0030   85.6580 N.2   1346  NAP1346    -0.0055
     21  C4A       22.1240    8.0580   86.4800 C.2   1346  NAP1346     0.3518
     22  O3        29.8120   10.8360   88.1850 O.3   1346  NAP1346    -0.2703
     23  PN        30.1100   10.9930   86.5670 P.3   1346  NAP1346     0.2189
     24  O1N       28.8320   10.5450   85.9440 O.2   1346  NAP1346    -0.5170
     25  O2N       30.4490   12.4100   86.3610 O.3   1346  NAP1346    -0.4371
     26  O5D       31.4100   10.0670   86.0570 O.3   1346  NAP1346    -0.3112
     27  C5D       31.2020    8.9020   85.1780 C.3   1346  NAP1346     0.1813
     28  C4D       30.5000    8.7350   83.7790 C.3   1346  NAP1346     0.1799
     29  O4D       31.2690    9.1460   82.6130 O.3   1346  NAP1346    -0.3327
     30  C3D       30.2260    7.3170   83.3170 C.3   1346  NAP1346     0.2158
     31  O3D       29.1780    7.2090   82.3450 O.3   1346  NAP1346    -0.2175
     32  C2D       31.5650    6.8550   82.7920 C.3   1346  NAP1346     0.2309
     33  O2D       31.5770    5.6370   82.0620 O.3   1346  NAP1346    -0.2158
     34  C1D       32.0010    8.0630   81.9980 C.3   1346  NAP1346     0.2263
     35  N1N       33.4640    8.2350   81.8010 N.pl3 1346  NAP1346    -0.2787
     36  C2N       33.8670    8.1700   80.4480 C.3   1346  NAP1346     0.1244
     37  C3N       35.2130    8.2950   80.0770 C.2   1346  NAP1346     0.0544
     38  C7N       35.5750    8.6100   78.6150 C.2   1346  NAP1346     0.2818
     39  O7N       34.7390    8.6680   77.7060 O.2   1346  NAP1346    -0.2670
     40  N7N       36.8640    8.7750   78.3850 N.am  1346  NAP1346    -0.0839
     41  C4N       36.1480    8.4480   81.1270 C.2   1346  NAP1346     0.0033
     42  C5N       35.7690    8.5180   82.4840 C.2   1346  NAP1346     0.0157
     43  C6N       34.4260    8.4230   82.8350 C.2   1346  NAP1346     0.0633
     44  P2B       22.6550   11.4860   89.3810 P.3   1346  NAP1346     0.5328
     45  O1X       22.9770   12.5020   90.3960 O.3   1346  NAP1346    -0.1145
     46  O2X       22.4390   12.1200   88.0560 O.2   1346  NAP1346    -0.2224
     47  O3X       21.4860   10.6900   89.8660 O.3   1346  NAP1346    -0.1145
     48  O2B       23.4150   11.0950   89.2750 O.3   1346  NAP1346    -0.2630
@<TRIPOS>BOND
     1    39    38    2
     2    40    38   am
     3    38    37    1
     4    37    36    1
     5    37    41    2
     6    36    35    1
     7    41    42    1
     8    35    34    1
     9    35    43    1
    10    34    29    1
    11    34    32    1
    12    33    32    1
    13    31    30    1
    14    42    43    2
    15    29    28    1
    16    32    30    1
    17    30    28    1
    18    28    27    1
    19    19    18    1
    20    19    20    1
    21    18    16    2
    22    27    26    1
    23    20    21    2
    24    16    17    1
    25    16    15    1
    26    24    23    2
    27    26    23    1
    28    25    23    1
    29    21    15    1
    30    21    12    1
    31    15    14    2
    32    23    22    1
    33    14    13    1
    34    12    13    1
    35    12    11    1
    36    11     7    1
    37    11    10    1
    38     7     6    1
    39    46    44    2
    40    22     1    1
    41     4     1    1
    42     4     5    1
    43     6     5    1
    44     6     8    1
    45     2     1    2
    46     1     3    1
    47    10    48    1
    48    10     8    1
    49    48    44    1
    50    44    47    1
    51    44    45    1
    52     8     9    1
