@<TRIPOS>MOLECULE
2j3k_HNE_A_1.pdb
 11 10 0 0 0
SMALL
GASTEIGER

@<TRIPOS>ATOM
      1  C1        34.3220    4.4180   79.1220 C.2   1347  HNE1347     0.2340
      2  C2        35.5190    4.7510   80.0360 C.2   1347  HNE1347     0.0433
      3  C3        36.7480    4.4680   79.6470 C.2   1347  HNE1347     0.0095
      4  C4        37.9170    4.4070   80.6510 C.3   1347  HNE1347     0.1741
      5  C5        39.1040    3.6550   80.0160 C.3   1347  HNE1347     0.0375
      6  C6        39.8980    2.9140   81.1070 C.3   1347  HNE1347     0.0030
      7  C7        39.5960    1.4040   81.0650 C.3   1347  HNE1347     0.0001
      8  C8        40.3830    0.6960   82.1830 C.3   1347  HNE1347     0.0000
      9  C9        41.4030   -0.2770   81.5650 C.3   1347  HNE1347     0.0000
     10  O10       38.3150    5.7150   80.9950 O.3   1347  HNE1347    -0.2183
     11  O11       33.1890    4.4510   79.5470 O.2   1347  HNE1347    -0.2832
@<TRIPOS>BOND
     1     1    11    2
     2     1     2    1
     3     3     2    2
     4     3     4    1
     5     5     4    1
     6     5     6    1
     7     4    10    1
     8     7     6    1
     9     7     8    1
    10     9     8    1
