@<TRIPOS>MOLECULE
2j3k_NAP_A_1.pdb
 48 52 0 0 0
SMALL
GASTEIGER

@<TRIPOS>ATOM
      1  PA        29.0800    9.7800   89.4190 P.3   1346  NAP1346     0.2189
      2  O1A       29.9530    9.1480   90.4350 O.3   1346  NAP1346    -0.4371
      3  O2A       28.1520   10.8420   89.8880 O.2   1346  NAP1346    -0.5170
      4  O5B       28.2800    8.5680   88.6470 O.3   1346  NAP1346    -0.3112
      5  C5B       26.9680    8.0770   88.9920 C.3   1346  NAP1346     0.1813
      6  C4B       25.8180    8.9940   88.5740 C.3   1346  NAP1346     0.1820
      7  O4B       24.9810    8.4530   87.5140 O.3   1346  NAP1346    -0.3136
      8  C3B       24.9220    9.2240   89.7540 C.3   1346  NAP1346     0.2157
      9  O3B       25.4030   10.2540   90.6320 O.3   1346  NAP1346    -0.2175
     10  C2B       23.5460    9.4820   89.1120 C.3   1346  NAP1346     0.2314
     11  O2B       23.2710   10.9410   89.1270 O.3   1346  NAP1346    -0.2630
     12  C1B       23.6220    8.8890   87.6640 C.3   1346  NAP1346     0.3158
     13  N9A       22.7390    7.7280   87.2660 N.pl3 1346  NAP1346    -0.1439
     14  C8A       22.7920    6.4480   87.7060 C.3   1346  NAP1346     0.3377
     15  N7A       21.8950    5.6370   87.1540 N.2   1346  NAP1346    -0.2095
     16  C5A       21.2730    6.4620   86.3330 C.2   1346  NAP1346     0.2526
     17  C6A       20.1990    6.0980   85.5100 C.2   1346  NAP1346     0.4393
     18  N6A       19.7000    4.8600   85.5130 N.pl3 1346  NAP1346     0.2180
     19  N1A       19.6750    7.0850   84.7260 N.2   1346  NAP1346     0.0021
     20  C2A       20.1480    8.3450   84.7310 C.3   1346  NAP1346     0.5254
     21  N3A       21.1750    8.6910   85.5360 N.2   1346  NAP1346    -0.0055
     22  C4A       21.7640    7.7680   86.3560 C.2   1346  NAP1346     0.3518
     23  O3        30.0880   10.4610   88.3190 O.3   1346  NAP1346    -0.2703
     24  PN        30.1630   10.8940   86.7160 P.3   1346  NAP1346     0.2189
     25  O1N       30.6190   12.3070   86.6440 O.3   1346  NAP1346    -0.4371
     26  O2N       28.8150   10.6120   86.1560 O.2   1346  NAP1346    -0.5170
     27  O5D       31.3170    9.9740   85.9610 O.3   1346  NAP1346    -0.3112
     28  C5D       31.2680    9.7240   84.5220 C.3   1346  NAP1346     0.1813
     29  C4D       30.3450    8.9050   83.5700 C.3   1346  NAP1346     0.1799
     30  O4D       31.0740    8.8530   82.3250 O.3   1346  NAP1346    -0.3327
     31  C3D       30.1110    7.4040   83.6290 C.3   1346  NAP1346     0.2158
     32  O3D       29.0140    6.9870   82.7970 O.3   1346  NAP1346    -0.2175
     33  C2D       31.4260    6.7790   83.2120 C.3   1346  NAP1346     0.2309
     34  O2D       31.3890    5.3980   82.8770 O.3   1346  NAP1346    -0.2158
     35  C1D       31.8750    7.6640   82.0830 C.3   1346  NAP1346     0.2263
     36  N1N       33.3470    7.8170   81.8750 N.pl3 1346  NAP1346    -0.2787
     37  C2N       33.7050    8.0990   80.5360 C.3   1346  NAP1346     0.1244
     38  C3N       35.0530    8.2780   80.1590 C.2   1346  NAP1346     0.0544
     39  C7N       35.4480    8.6530   78.7230 C.2   1346  NAP1346     0.2818
     40  O7N       36.5280    9.1950   78.4960 O.2   1346  NAP1346    -0.2670
     41  N7N       34.5850    8.3700   77.7580 N.am  1346  NAP1346    -0.0839
     42  C4N       36.0220    8.1370   81.1780 C.2   1346  NAP1346     0.0033
     43  C5N       35.6960    7.8650   82.5290 C.2   1346  NAP1346     0.0157
     44  C6N       34.3540    7.6960   82.8910 C.2   1346  NAP1346     0.0633
     45  P2B       21.8820   11.6310   89.3330 P.3   1346  NAP1346     0.5328
     46  O1X       20.6110   10.9120   89.6260 O.3   1346  NAP1346    -0.1145
     47  O2X       22.3790   12.2630   90.5680 O.3   1346  NAP1346    -0.1145
     48  O3X       21.7310   12.6500   88.2730 O.2   1346  NAP1346    -0.2224
@<TRIPOS>BOND
     1    41    39   am
     2    40    39    2
     3    39    38    1
     4    38    37    1
     5    38    42    2
     6    37    36    1
     7    42    43    1
     8    36    35    1
     9    36    44    1
    10    35    30    1
    11    35    33    1
    12    30    29    1
    13    43    44    2
    14    32    31    1
    15    34    33    1
    16    33    31    1
    17    29    31    1
    18    29    28    1
    19    28    27    1
    20    19    20    1
    21    19    17    2
    22    20    21    1
    23    17    18    1
    24    17    16    1
    25    21    22    2
    26    27    24    1
    27    26    24    2
    28    16    22    1
    29    16    15    2
    30    22    13    1
    31    25    24    1
    32    24    23    1
    33    15    14    1
    34    13    12    1
    35    13    14    1
    36     7    12    1
    37     7     6    1
    38    12    10    1
    39    48    45    2
    40    23     1    1
    41     6     5    1
    42     6     8    1
    43     4     5    1
    44     4     1    1
    45    10    11    1
    46    10     8    1
    47    11    45    1
    48    45    46    1
    49    45    47    1
    50     1     3    2
    51     1     2    1
    52     8     9    1
