@<TRIPOS>MOLECULE
2j3n_NAP_A_1.pdb
 48 52 0 0 0
SMALL
GASTEIGER

@<TRIPOS>ATOM
      1  PA       -72.0240   93.3670   58.0910 P.3   601  NAP601      0.2189
      2  O1A      -71.7330   94.7840   57.7000 O.3   601  NAP601     -0.4371
      3  O2A      -72.1780   92.3250   57.0660 O.2   601  NAP601     -0.5170
      4  O5B      -73.2530   93.5040   59.0180 O.3   601  NAP601     -0.3112
      5  C5B      -73.9340   92.4540   59.6670 C.3   601  NAP601      0.1813
      6  C4B      -75.0190   93.2580   60.2600 C.3   601  NAP601      0.1820
      7  O4B      -74.2140   92.9220   61.5760 O.3   601  NAP601     -0.3136
      8  C3B      -76.1170   93.9500   61.0340 C.3   601  NAP601      0.2157
      9  O3B      -77.0780   92.9250   61.4180 O.3   601  NAP601     -0.2175
     10  C2B      -75.4190   94.6030   62.1310 C.3   601  NAP601      0.2314
     11  O2B      -76.1730   95.4880   62.8890 O.3   601  NAP601     -0.2630
     12  C1B      -74.9350   93.3470   62.7210 C.3   601  NAP601      0.3158
     13  N9A      -74.0450   93.4200   63.8620 N.pl3 601  NAP601     -0.1439
     14  C8A      -72.7130   93.7790   63.8810 C.3   601  NAP601      0.3377
     15  N7A      -72.1840   93.7360   65.1070 N.2   601  NAP601     -0.2095
     16  C5A      -73.2210   93.3360   65.8890 C.2   601  NAP601      0.2526
     17  C6A      -73.3030   93.1010   67.2930 C.2   601  NAP601      0.4393
     18  N6A      -72.2660   93.2510   68.1180 N.pl3 601  NAP601      0.2180
     19  N1A      -74.5290   92.6980   67.7670 N.2   601  NAP601      0.0021
     20  C2A      -75.6020   92.5280   66.9620 C.3   601  NAP601      0.5254
     21  N3A      -75.6140   92.7310   65.6130 N.2   601  NAP601     -0.0055
     22  C4A      -74.3790   93.1380   65.1260 C.2   601  NAP601      0.3518
     23  O3       -70.8460   93.0320   59.1210 O.3   601  NAP601     -0.2703
     24  PN       -69.2820   93.1920   59.1060 P.3   601  NAP601      0.2189
     25  O1N      -68.6530   91.8680   58.8370 O.2   601  NAP601     -0.5170
     26  O2N      -68.9520   93.8760   60.3960 O.3   601  NAP601     -0.4371
     27  O5D      -68.9530   94.2380   57.9350 O.3   601  NAP601     -0.3112
     28  C5D      -69.0270   93.8840   56.5230 C.3   601  NAP601      0.1813
     29  C4D      -68.0220   94.6550   55.7170 C.3   601  NAP601      0.1799
     30  O4D      -68.3870   96.0680   55.6730 O.3   601  NAP601     -0.3327
     31  C3D      -66.5890   94.6610   56.2640 C.3   601  NAP601      0.2158
     32  O3D      -65.8980   93.4430   56.1230 O.3   601  NAP601     -0.2175
     33  C2D      -66.0180   95.8810   55.5510 C.3   601  NAP601      0.2309
     34  O2D      -65.5840   95.5230   54.2350 O.3   601  NAP601     -0.2158
     35  C1D      -67.2080   96.8700   55.5790 C.3   601  NAP601      0.2263
     36  N1N      -67.1730   97.8480   56.7550 N.pl3 601  NAP601     -0.2787
     37  C2N      -68.1970   97.8610   57.6950 C.3   601  NAP601      0.1244
     38  C3N      -68.2030   98.7420   58.7800 C.2   601  NAP601      0.0544
     39  C7N      -69.3300   98.7570   59.8120 C.2   601  NAP601      0.2818
     40  O7N      -69.8590   97.6900   60.1440 O.2   601  NAP601     -0.2670
     41  N7N      -69.6840   99.9610   60.2960 N.am  601  NAP601     -0.0839
     42  C4N      -67.1040   99.6710   58.9310 C.2   601  NAP601      0.0033
     43  C5N      -66.0590   99.6580   57.9720 C.2   601  NAP601      0.0157
     44  C6N      -66.0790   98.7720   56.9000 C.2   601  NAP601      0.0633
     45  P2B      -76.1210   97.1020   62.5760 P.3   601  NAP601      0.5328
     46  O1X      -76.8250   97.7460   63.7190 O.3   601  NAP601     -0.1145
     47  O2X      -74.6210   97.3770   62.4740 O.3   601  NAP601     -0.1145
     48  O3X      -76.8280   97.2870   61.2560 O.2   601  NAP601     -0.2224
@<TRIPOS>BOND
     1    34    33    1
     2    33    35    1
     3    33    31    1
     4    35    30    1
     5    35    36    1
     6    30    29    1
     7    29    31    1
     8    29    28    1
     9    32    31    1
    10    28    27    1
    11    36    44    1
    12    36    37    1
    13    44    43    2
    14     3     1    2
    15    37    38    1
    16     2     1    1
    17    27    24    1
    18    43    42    1
    19     1     4    1
    20     1    23    1
    21    38    42    2
    22    38    39    1
    23    25    24    2
    24     4     5    1
    25    24    23    1
    26    24    26    1
    27     5     6    1
    28    39    40    2
    29    39    41   am
    30     6     8    1
    31     6     7    1
    32     8     9    1
    33     8    10    1
    34    48    45    2
    35     7    12    1
    36    10    12    1
    37    10    11    1
    38    47    45    1
    39    45    11    1
    40    45    46    1
    41    12    13    1
    42    13    14    1
    43    13    22    1
    44    14    15    1
    45    15    16    2
    46    22    21    2
    47    22    16    1
    48    21    20    1
    49    16    17    1
    50    20    19    1
    51    17    19    2
    52    17    18    1
