@<TRIPOS>MOLECULE
2j3o_NAG_B_1.pdb
 15 15 0 0 0
SMALL
GASTEIGER

@<TRIPOS>ATOM
      1  C1        12.1850    7.7030   68.5000 C.3   1290  NAG1290     0.2917
      2  C2        11.3130    6.7430   69.3120 C.3   1290  NAG1290     0.1871
      3  C3         9.8960    6.6640   68.7300 C.3   1290  NAG1290     0.2095
      4  C4         9.4970    7.7650   67.7330 C.3   1290  NAG1290     0.2136
      5  C5        10.5040    8.8540   67.3990 C.3   1290  NAG1290     0.1835
      6  C6         9.6990   10.1440   67.2330 C.3   1290  NAG1290     0.2142
      7  C7        11.3350    4.2830   69.7450 C.2   1290  NAG1290     0.2421
      8  C8        11.8720    3.7120   71.0300 C.3   1290  NAG1290     0.0964
      9  N2        11.9390    5.4140   69.3700 N.am  1290  NAG1290    -0.1991
     10  O1        13.4490    7.8320   69.1080 O.3   1290  NAG1290    -0.1879
     11  O3         8.9650    6.6340   69.7910 O.3   1290  NAG1290    -0.2183
     12  O4         9.1800    7.1880   66.4930 O.3   1290  NAG1290    -0.2176
     13  O5        11.5220    8.9500   68.3770 O.3   1290  NAG1290    -0.3242
     14  O6         8.4320    9.8180   66.6730 O.3   1290  NAG1290    -0.2176
     15  O7        10.4140    3.7620   69.0870 O.2   1290  NAG1290    -0.2733
@<TRIPOS>BOND
     1    12     4    1
     2    14     6    1
     3     6     5    1
     4     5     4    1
     5     5    13    1
     6     4     3    1
     7    13     1    1
     8     1    10    1
     9     1     2    1
    10     3     2    1
    11     3    11    1
    12    15     7    2
    13     2     9    1
    14     9     7   am
    15     7     8    1
