@<TRIPOS>MOLECULE
2j3q_TFL_A_1.pdb
 20 22 0 0 0
SMALL
GASTEIGER

@<TRIPOS>ATOM
      1  C2       -23.6730  110.3450   39.8380 C.ar  1538  TFL1538     0.0479
      2  C3       -22.8280  110.8850   38.7660 C.ar  1538  TFL1538     0.0143
      3  C4       -21.5980  111.6120   39.0710 C.ar  1538  TFL1538    -0.0005
      4  C5       -21.1930  111.8150   40.4530 C.ar  1538  TFL1538     0.0064
      5  C6       -22.0560  111.2870   41.4870 C.ar  1538  TFL1538    -0.0005
      6  C7       -23.2560  110.5770   41.1920 C.ar  1538  TFL1538     0.0143
      7  C8       -19.8790  112.5630   40.8620 C.3   1538  TFL1538     0.1486
      8  N1       -19.2620  112.8740   42.0950 N.pl3 1538  TFL1538    -0.2945
      9  C9       -18.0390  113.5590   41.9960 C.ar  1538  TFL1538     0.0547
     10  S1       -18.9000  113.1310   39.5010 S.3   1538  TFL1538    -0.0885
     11  C10      -17.6880  113.7710   40.5450 C.ar  1538  TFL1538     0.0435
     12  C11      -16.4800  114.4360   40.1540 C.ar  1538  TFL1538     0.0495
     13  C12      -15.5800  114.8900   41.1870 C.ar  1538  TFL1538     0.1963
     14  C13      -15.9030  114.6890   42.5750 C.ar  1538  TFL1538     0.0433
     15  C14      -17.1020  114.0360   42.9650 C.ar  1538  TFL1538     0.0183
     16  O3       -14.2830  115.5930   40.8380 O.3   1538  TFL1538    -0.2866
     17  N2       -24.9090  109.5780   39.5790 N.pl3 1538  TFL1538    -0.3041
     18  C15      -25.3910  109.2780   38.2090 C.3   1538  TFL1538     0.1122
     19  C16      -25.7230  109.0460   40.7000 C.3   1538  TFL1538     0.1122
     20  C17      -19.8520  112.5270   43.4220 C.3   1538  TFL1538     0.1132
@<TRIPOS>BOND
     1    18    17    1
     2     2     3   ar
     3     2     1   ar
     4     3     4   ar
     5    10    11    1
     6    10     7    1
     7    17     1    1
     8    17    19    1
     9     1     6   ar
    10    12    11   ar
    11    12    13   ar
    12     4     7    1
    13     4     5   ar
    14    11     9   ar
    15    16    13    1
    16     7     8    1
    17    13    14   ar
    18     6     5   ar
    19     9     8    1
    20     9    15   ar
    21     8    20    1
    22    14    15   ar
