@<TRIPOS>MOLECULE
2j3u_GLA_B_1.pdb
 12 12 0 0 0
SMALL
GASTEIGER

@<TRIPOS>ATOM
      1  C1        24.1710  -14.1000  -11.1540 C.3   1291  GLA1291     0.3024
      2  C2        24.9320  -12.8710  -10.6630 C.3   1291  GLA1291     0.2434
      3  C3        25.2620  -11.9270  -11.8290 C.3   1291  GLA1291     0.2199
      4  C4        24.0950  -11.8890  -12.8190 C.3   1291  GLA1291     0.2144
      5  C5        23.8470  -13.2780  -13.4120 C.3   1291  GLA1291     0.1836
      6  C6        24.4190  -13.5010  -14.8110 C.3   1291  GLA1291     0.2142
      7  O1        22.7630  -14.0310  -10.8480 O.3   1291  GLA1291    -0.1869
      8  O2        24.1910  -12.2140   -9.6180 O.3   1291  GLA1291    -0.2148
      9  O3        26.4730  -12.3500  -12.4820 O.3   1291  GLA1291    -0.2174
     10  O4        24.2770  -10.8840  -13.8270 O.3   1291  GLA1291    -0.2176
     11  O5        24.4300  -14.2480  -12.5550 O.3   1291  GLA1291    -0.3236
     12  O6        24.5060  -14.9230  -15.0440 O.3   1291  GLA1291    -0.2176
@<TRIPOS>BOND
     1    12     6    1
     2     6     5    1
     3    10     4    1
     4     5     4    1
     5     5    11    1
     6     4     3    1
     7    11     1    1
     8     9     3    1
     9     3     2    1
    10     1     7    1
    11     1     2    1
    12     2     8    1
