@<TRIPOS>MOLECULE
2j40_NAD_A_1.pdb
 44 48 0 0 0
SMALL
GASTEIGER

@<TRIPOS>ATOM
      1  PA        10.2240   33.7000   92.2880 P.3   1518  NAD1518     0.2189
      2  O1A        9.0020   33.9140   91.5070 O.2   1518  NAD1518    -0.5170
      3  O2A       10.1450   34.2440   93.6540 O.3   1518  NAD1518    -0.4371
      4  O5B       10.5200   32.1360   92.4160 O.3   1518  NAD1518    -0.3112
      5  C5B       11.6750   31.5920   92.9890 C.3   1518  NAD1518     0.1813
      6  C4B       11.3650   30.1200   93.2910 C.3   1518  NAD1518     0.1821
      7  O4B       10.3670   30.0910   94.3030 O.3   1518  NAD1518    -0.3135
      8  C3B       10.7850   29.3390   92.1120 C.3   1518  NAD1518     0.2184
      9  O3B       11.2750   28.0400   92.2070 O.3   1518  NAD1518    -0.2174
     10  C2B        9.2780   29.2650   92.3860 C.3   1518  NAD1518     0.2570
     11  O2B        8.5890   28.1290   91.9120 O.3   1518  NAD1518    -0.2130
     12  C1B        9.2730   29.2810   93.9050 C.3   1518  NAD1518     0.3186
     13  N9A        8.0730   29.8690   94.4780 N.pl3 1518  NAD1518    -0.1439
     14  C8A        7.1800   30.7980   93.9660 C.3   1518  NAD1518     0.3377
     15  N7A        6.2240   30.9990   94.9230 N.2   1518  NAD1518    -0.2095
     16  C5A        6.5500   30.2580   96.0320 C.2   1518  NAD1518     0.2526
     17  C6A        5.9770   30.0690   97.3000 C.2   1518  NAD1518     0.4393
     18  N6A        5.1030   30.9370   97.7780 N.pl3 1518  NAD1518     0.2180
     19  N1A        6.5780   29.1890   98.1980 N.2   1518  NAD1518     0.0021
     20  C2A        7.7170   28.4800   97.8600 C.3   1518  NAD1518     0.5254
     21  N3A        8.2770   28.6830   96.6180 N.2   1518  NAD1518    -0.0055
     22  C4A        7.7030   29.5410   95.7400 C.2   1518  NAD1518     0.3518
     23  O3        11.5380   34.3210   91.6230 O.3   1518  NAD1518    -0.2703
     24  PN        12.1480   34.0530   90.1430 P.3   1518  NAD1518     0.2189
     25  O1N       12.3240   32.5750   89.9240 O.3   1518  NAD1518    -0.4371
     26  O2N       11.2990   34.9110   89.2360 O.2   1518  NAD1518    -0.5170
     27  O5D       13.6000   34.7710   90.1950 O.3   1518  NAD1518    -0.3112
     28  C5D       13.6450   36.1730   89.9970 C.3   1518  NAD1518     0.1813
     29  C4D       13.9430   36.8060   91.3440 C.3   1518  NAD1518     0.1799
     30  O4D       15.0550   36.0910   91.8960 O.3   1518  NAD1518    -0.3327
     31  C3D       14.3640   38.2540   91.2510 C.3   1518  NAD1518     0.2158
     32  O3D       13.7120   39.0300   92.2070 O.3   1518  NAD1518    -0.2175
     33  C2D       15.8300   38.1470   91.6330 C.3   1518  NAD1518     0.2309
     34  O2D       16.3990   39.3170   92.1560 O.3   1518  NAD1518    -0.2158
     35  C1D       15.8660   36.9920   92.5940 C.3   1518  NAD1518     0.2263
     36  N1N       17.2540   36.5500   92.6600 N.pl3 1518  NAD1518    -0.2787
     37  C2N       17.9820   36.8870   93.7810 C.3   1518  NAD1518     0.1244
     38  C3N       19.3250   36.5130   93.8180 C.2   1518  NAD1518     0.0544
     39  C7N       20.1620   36.7110   95.0350 C.2   1518  NAD1518     0.2818
     40  O7N       21.3490   35.9490   95.0920 O.2   1518  NAD1518    -0.2670
     41  N7N       19.7770   37.5700   95.9860 N.am  1518  NAD1518    -0.0839
     42  C4N       19.8890   35.8080   92.7310 C.2   1518  NAD1518     0.0033
     43  C5N       19.1090   35.4600   91.6100 C.2   1518  NAD1518     0.0157
     44  C6N       17.7780   35.8380   91.5900 C.2   1518  NAD1518     0.0633
@<TRIPOS>BOND
     1    26    24    2
     2    25    24    1
     3    28    27    1
     4    28    29    1
     5    24    27    1
     6    24    23    1
     7    31    29    1
     8    31    33    1
     9    31    32    1
    10    29    30    1
    11     2     1    2
    12    44    43    2
    13    44    36    1
    14    43    42    1
    15    23     1    1
    16    33    34    1
    17    33    35    1
    18    30    35    1
    19    11    10    1
    20     8     9    1
    21     8    10    1
    22     8     6    1
    23     1     4    1
    24     1     3    1
    25    10    12    1
    26     4     5    1
    27    35    36    1
    28    36    37    1
    29    42    38    2
    30     5     6    1
    31     6     7    1
    32    37    38    1
    33    38    39    1
    34    12     7    1
    35    12    13    1
    36    14    13    1
    37    14    15    1
    38    13    22    1
    39    15    16    2
    40    39    40    2
    41    39    41   am
    42    22    16    1
    43    22    21    2
    44    16    17    1
    45    21    20    1
    46    17    18    1
    47    17    19    2
    48    20    19    1
