@<TRIPOS>MOLECULE
2j41_5GP_B_1.pdb
 24 26 0 0 0
SMALL
GASTEIGER

@<TRIPOS>ATOM
      1  P          5.8540  -27.4170   61.7480 P.3   1208  5GP1208     0.5327
      2  O1P        4.6790  -27.2200   60.8500 O.2   1208  5GP1208    -0.2224
      3  O2P        6.4980  -28.7820   61.7790 O.3   1208  5GP1208    -0.1145
      4  O3P        5.6740  -26.8390   63.1340 O.3   1208  5GP1208    -0.1145
      5  O5'        6.9760  -26.4550   61.1430 O.3   1208  5GP1208    -0.2675
      6  C5'        8.2900  -26.5300   61.6820 C.3   1208  5GP1208     0.1859
      7  C4'        9.1440  -25.3510   61.2440 C.3   1208  5GP1208     0.1801
      8  O4'        9.4510  -25.5390   59.8720 O.3   1208  5GP1208    -0.3326
      9  C3'        8.4600  -23.9930   61.3510 C.3   1208  5GP1208     0.2158
     10  O3'        9.4410  -23.1290   61.9030 O.3   1208  5GP1208    -0.2175
     11  C2'        8.2110  -23.5520   59.9190 C.3   1208  5GP1208     0.2310
     12  O2'        8.3940  -22.1400   59.7490 O.3   1208  5GP1208    -0.2158
     13  C1'        9.2920  -24.3050   59.1690 C.3   1208  5GP1208     0.2293
     14  N9         8.9410  -24.5310   57.7420 N.pl3 1208  5GP1208    -0.2354
     15  C8         7.7430  -24.8110   57.2440 C.3   1208  5GP1208     0.2246
     16  N7         7.8520  -24.9410   55.8960 N.2   1208  5GP1208    -0.2322
     17  C5         9.1310  -24.7450   55.5720 C.2   1208  5GP1208     0.2182
     18  C6         9.8080  -24.7330   54.3650 C.1   1208  5GP1208     0.2372
     19  O6         9.2010  -24.9330   53.2650 O.2   1208  5GP1208    -0.2069
     20  N1        11.1210  -24.4960   54.4000 N.2   1208  5GP1208    -0.2485
     21  C2        11.7890  -24.2630   55.5470 C.1   1208  5GP1208     0.2531
     22  N2        13.1200  -24.0160   55.4840 N.pl3 1208  5GP1208    -0.0226
     23  N3        11.1400  -24.2330   56.7330 N.2   1208  5GP1208    -0.3074
     24  C4         9.8160  -24.4840   56.7550 C.2   1208  5GP1208     0.2300
@<TRIPOS>BOND
     1    19    18    2
     2    18    20    2
     3    18    17    1
     4    20    21    2
     5    22    21    1
     6    21    23    2
     7    17    16    2
     8    17    24    1
     9    16    15    1
    10    23    24    2
    11    24    14    1
    12    15    14    1
    13    14    13    1
    14    13     8    1
    15    13    11    1
    16    12    11    1
    17     8     7    1
    18    11     9    1
    19     2     1    2
    20     5     6    1
    21     5     1    1
    22     7     9    1
    23     7     6    1
    24     9    10    1
    25     1     3    1
    26     1     4    1
