@<TRIPOS>MOLECULE
2j44_GLC_A_1.pdb
 11 11 0 0 0
SMALL
GASTEIGER

@<TRIPOS>ATOM
      1  C1        27.1590  -27.2670    6.0730 C.3   1227  GLC1227     0.1777
      2  C2        27.4530  -27.7960    4.6650 C.3   1227  GLC1227     0.2141
      3  C3        28.4520  -26.8840    3.9570 C.3   1227  GLC1227     0.2173
      4  C4        27.9380  -25.4500    3.9690 C.3   1227  GLC1227     0.2142
      5  C5        27.6070  -24.9870    5.3960 C.3   1227  GLC1227     0.1810
      6  C6        26.9840  -23.5900    5.4040 C.3   1227  GLC1227     0.2141
      7  O2        27.9420  -29.1200    4.7300 O.3   1227  GLC1227    -0.2176
      8  O3        28.6670  -27.2750    2.6160 O.3   1227  GLC1227    -0.2175
      9  O4        28.9620  -24.6590    3.4330 O.3   1227  GLC1227    -0.2176
     10  O5        26.7200  -25.9060    6.0220 O.3   1227  GLC1227    -0.3481
     11  O6        26.7880  -23.1220    6.7180 O.3   1227  GLC1227    -0.2176
@<TRIPOS>BOND
     1     8     3    1
     2     9     4    1
     3     3     4    1
     4     3     2    1
     5     4     5    1
     6     2     7    1
     7     2     1    1
     8     5     6    1
     9     5    10    1
    10     6    11    1
    11    10     1    1
