@<TRIPOS>MOLECULE
2j47_GDV_A_1.pdb
 26 28 0 0 0
SMALL
GASTEIGER

@<TRIPOS>ATOM
      1  O1         3.0100   -6.4480   34.3000 O.2   1590  GDV1590    -0.2733
      2  C10        3.2140   -7.6070   34.6270 C.2   1590  GDV1590     0.2423
      3  C12        4.0590   -7.9390   35.8400 C.3   1590  GDV1590     0.0964
      4  N4         2.7230   -8.7070   34.0160 N.am  1590  GDV1590    -0.1958
      5  C2         1.8830   -8.6750   32.8270 C.3   1590  GDV1590     0.1941
      6  C3         2.7340   -8.3220   31.5950 C.3   1590  GDV1590     0.2117
      7  O3         3.1570   -9.5410   30.9620 O.3   1590  GDV1590    -0.2180
      8  C4         1.9610   -7.3370   30.6650 C.3   1590  GDV1590     0.2049
      9  O4         2.7910   -7.0590   29.5500 O.3   1590  GDV1590    -0.2185
     10  C5         1.6360   -6.0050   31.4510 C.3   1590  GDV1590     0.1410
     11  C6         1.0760   -4.9320   30.4980 C.3   1590  GDV1590     0.2044
     12  O5        -0.0400   -5.3970   29.7370 O.3   1590  GDV1590    -0.2185
     13  C1         0.6770   -7.7480   32.9170 C.2   1590  GDV1590     0.1828
     14  N1         0.6290   -6.5290   32.3460 N.pl3 1590  GDV1590    -0.2754
     15  C7        -0.6280   -6.0480   32.6320 C.3   1590  GDV1590     0.1572
     16  C8        -1.2640   -6.9870   33.4310 C.2   1590  GDV1590     0.1851
     17  N2        -0.4310   -8.0320   33.6020 N.2   1590  GDV1590    -0.3876
     18  C9        -2.5440   -6.9170   33.9830 C.2   1590  GDV1590     0.2962
     19  O2        -3.2380   -5.9440   33.7790 O.2   1590  GDV1590    -0.2655
     20  N3        -2.9620   -8.0020   34.6850 N.am  1590  GDV1590    -0.1735
     21  C11       -4.2070   -8.1070   35.3040 C.ar  1590  GDV1590     0.0737
     22  C17       -4.9020   -9.3190   35.4250 C.ar  1590  GDV1590     0.0166
     23  C16       -6.1220   -9.4030   36.1220 C.ar  1590  GDV1590     0.0013
     24  C15       -6.6610   -8.2640   36.7180 C.ar  1590  GDV1590     0.0001
     25  C14       -5.9870   -7.0530   36.6100 C.ar  1590  GDV1590     0.0013
     26  C13       -4.7570   -6.9750   35.9210 C.ar  1590  GDV1590     0.0166
@<TRIPOS>BOND
     1     9     8    1
     2    12    11    1
     3    11    10    1
     4     8    10    1
     5     8     6    1
     6     7     6    1
     7    10    14    1
     8     6     5    1
     9    14    15    1
    10    14    13    1
    11    15    16    1
    12     5    13    1
    13     5     4    1
    14    13    17    2
    15    16    17    2
    16    16    18    1
    17    19    18    2
    18    18    20   am
    19     4     2   am
    20     1     2    2
    21     2     3    1
    22    20    21    1
    23    21    22   ar
    24    21    26   ar
    25    22    23   ar
    26    26    25   ar
    27    23    24   ar
    28    25    24   ar
