@<TRIPOS>MOLECULE
2j4a_OEF_A_1.pdb
 24 25 0 0 0
SMALL
GASTEIGER

@<TRIPOS>ATOM
      1  C1         6.4900   19.0420   32.8500 C.ar  1461  OEF1461    -0.0204
      2  C2         2.3540   21.7550   31.3060 C.ar  1461  OEF1461     0.1452
      3  C3         5.8470   20.0310   33.6580 C.ar  1461  OEF1461     0.0055
      4  C4         1.4270   22.6970   31.7290 C.ar  1461  OEF1461     0.0364
      5  C5         4.5460   20.4980   33.3470 C.ar  1461  OEF1461     0.0692
      6  C6         1.2520   23.9740   31.1480 C.ar  1461  OEF1461     0.0194
      7  C7         3.7950   20.0060   32.2010 C.ar  1461  OEF1461     0.1575
      8  C8         2.0540   24.3780   30.0420 C.ar  1461  OEF1461     0.1919
      9  C9         4.4840   19.0210   31.4300 C.ar  1461  OEF1461     0.0692
     10  C10        3.0060   23.4380   29.5910 C.ar  1461  OEF1461     0.0448
     11  C11        5.7610   18.5620   31.7330 C.ar  1461  OEF1461     0.0055
     12  C12        3.1370   22.1820   30.2080 C.ar  1461  OEF1461     0.0408
     13  C13        7.8520   18.6100   33.2760 C.3   1461  OEF1461     0.0382
     14  C14        8.2320   17.1570   32.9820 C.3   1461  OEF1461     0.1187
     15 BR1         3.7580   21.8140   34.4760 Br    1461  OEF1461    -0.0458
     16  C15        0.2020   24.9570   31.6810 C.3   1461  OEF1461     0.0256
     17 BR2         3.5920   18.3280   29.9380 Br    1461  OEF1461    -0.0458
     18  O2         2.4840   20.4930   31.9240 O.3   1461  OEF1461    -0.4525
     19  O1         1.9230   25.6120   29.4400 O.3   1461  OEF1461    -0.2869
     20  C18        9.6320   16.8450   33.4760 C.2   1461  OEF1461     0.3652
     21  C16        0.9380   25.7200   32.8070 C.3   1461  OEF1461     0.0048
     22  O3        10.5350   17.5640   33.0370 O.co2 1461  OEF1461    -0.2456
     23  O4         9.8080   15.9150   34.2490 O.co2 1461  OEF1461    -0.2456
     24  C17       -1.0650   24.2530   32.1980 C.3   1461  OEF1461     0.0048
@<TRIPOS>BOND
     1    19     8    1
     2    10     8   ar
     3    10    12   ar
     4    17     9    1
     5     8     6   ar
     6    12     2   ar
     7     6    16    1
     8     6     4   ar
     9     2     4   ar
    10     2    18    1
    11     9    11   ar
    12     9     7   ar
    13    16    24    1
    14    16    21    1
    15    11     1   ar
    16    18     7    1
    17     7     5   ar
    18     1    13    1
    19     1     3   ar
    20    14    13    1
    21    14    20    1
    22    22    20   ar
    23     5     3   ar
    24     5    15    1
    25    20    23   ar
