@<TRIPOS>MOLECULE
2j4c_FUC_A_1.pdb
 10 10 0 0 0
SMALL
GASTEIGER

@<TRIPOS>ATOM
      1  C1       153.0900   97.3930   35.6850 C.3   1532  FUC1532     0.1776
      2  C2       151.8280   97.2290   36.5340 C.3   1532  FUC1532     0.2141
      3  C3       150.8260   98.3200   36.1630 C.3   1532  FUC1532     0.2172
      4  C4       150.5330   98.2950   34.6600 C.3   1532  FUC1532     0.2116
      5  C5       151.8450   98.3660   33.8630 C.3   1532  FUC1532     0.1483
      6  C6       151.6550   98.1910   32.3730 C.3   1532  FUC1532     0.0349
      7  O2       152.1540   97.3230   37.9080 O.3   1532  FUC1532    -0.2176
      8  O3       149.6290   98.1330   36.8880 O.3   1532  FUC1532    -0.2175
      9  O4       149.8280   97.1110   34.3270 O.3   1532  FUC1532    -0.2177
     10  O5       152.7450   97.3280   34.3030 O.3   1532  FUC1532    -0.3508
@<TRIPOS>BOND
     1     6     5    1
     2     5    10    1
     3     5     4    1
     4    10     1    1
     5     9     4    1
     6     4     3    1
     7     1     2    1
     8     3     2    1
     9     3     8    1
    10     2     7    1
