@<TRIPOS>MOLECULE
2j4d_MHF_A_1.pdb
 33 36 0 0 0
SMALL
GASTEIGER

@<TRIPOS>ATOM
      1  N1         7.3960   30.8700  -25.7850 N.2   1499  MHF1499    -0.2726
      2  C2         8.2330   31.9290  -25.5170 C.1   1499  MHF1499     0.2603
      3  NA2        8.4490   32.2910  -24.2200 N.pl3 1499  MHF1499    -0.0221
      4  N3         8.8370   32.6120  -26.5040 N.2   1499  MHF1499    -0.2515
      5  C4         8.6260   32.2970  -27.8180 C.1   1499  MHF1499     0.2219
      6  O4         9.1830   32.9440  -28.7140 O.2   1499  MHF1499    -0.2109
      7  C4A        7.7500   31.2180  -28.1380 C.3   1499  MHF1499     0.2774
      8  N5         7.4240   30.8310  -29.4630 N.3   1499  MHF1499    -0.2275
      9  C6         6.2490   29.9430  -29.7660 C.3   1499  MHF1499     0.1058
     10  C7         6.3080   28.7780  -28.7520 C.3   1499  MHF1499     0.1547
     11  N8         6.2930   29.4170  -27.3950 N.2   1499  MHF1499    -0.2096
     12  C8A        7.1400   30.4940  -27.0930 C.1   1499  MHF1499     0.1050
     13  C9         6.3830   29.5420  -31.2620 C.3   1499  MHF1499     0.1101
     14  N10        7.7020   30.1100  -31.6340 N.pl3 1499  MHF1499    -0.2923
     15  C11        7.9040   31.2820  -30.7710 C.3   1499  MHF1499     0.1706
     16  C12        8.2190   31.0850  -35.7890 C.ar  1499  MHF1499     0.0551
     17  C13        7.7610   29.7970  -35.3770 C.ar  1499  MHF1499     0.0058
     18  C14        7.5730   29.5040  -34.0270 C.ar  1499  MHF1499     0.0147
     19  C15        7.8300   30.4820  -33.0300 C.ar  1499  MHF1499     0.0488
     20  C16        8.2730   31.7990  -33.4490 C.ar  1499  MHF1499     0.0147
     21  C17        8.4610   32.0940  -34.8140 C.ar  1499  MHF1499     0.0058
     22  C          8.4570   31.3360  -37.2360 C.2   1499  MHF1499     0.2652
     23  O          8.2570   30.4300  -38.0370 O.2   1499  MHF1499    -0.2684
     24  N          8.9070   32.5330  -37.6760 N.am  1499  MHF1499    -0.1918
     25  CA         9.1600   32.7390  -39.1020 C.3   1499  MHF1499     0.1986
     26  CB         8.9820   34.2110  -39.4720 C.3   1499  MHF1499     0.0451
     27  CG         7.6020   34.7530  -39.2000 C.3   1499  MHF1499     0.1164
     28  CD         6.5290   33.9810  -39.9350 C.2   1499  MHF1499     0.3649
     29  OE1        6.4680   34.0940  -41.1780 O.co2 1499  MHF1499    -0.2457
     30  OE2        5.7610   33.2470  -39.2720 O.co2 1499  MHF1499    -0.2457
     31  CT        10.5840   32.2980  -39.4530 C.2   1499  MHF1499     0.3842
     32  O1        11.3960   32.1130  -38.5220 O.co2 1499  MHF1499    -0.2437
     33  O2        10.8820   32.1460  -40.6560 O.co2 1499  MHF1499    -0.2437
@<TRIPOS>BOND
     1    29    28   ar
     2    33    31   ar
     3    28    30   ar
     4    28    27    1
     5    26    27    1
     6    26    25    1
     7    31    25    1
     8    31    32   ar
     9    25    24    1
    10    23    22    2
    11    24    22   am
    12    22    16    1
    13    16    17   ar
    14    16    21   ar
    15    17    18   ar
    16    21    20   ar
    17    18    19   ar
    18    20    19   ar
    19    19    14    1
    20    14    13    1
    21    14    15    1
    22    13     9    1
    23    15     8    1
    24     9     8    1
    25     9    10    1
    26     8     7    1
    27    10    11    1
    28     6     5    2
    29     7     5    1
    30     7    12    1
    31     5     4    2
    32    11    12    2
    33    12     1    2
    34     4     2    2
    35     1     2    2
    36     2     3    1
