@<TRIPOS>MOLECULE
2j4e_IMP_D_1.pdb
 23 25 0 0 0
SMALL
GASTEIGER

@<TRIPOS>ATOM
      1  P         44.4890   51.2750   14.7280 P.3   1001  IMP1001     0.5327
      2  O1P       45.2500   51.4590   16.1350 O.3   1001  IMP1001    -0.1145
      3  O2P       43.4240   52.4710   14.5630 O.2   1001  IMP1001    -0.2224
      4  O3P       43.7860   49.9750   14.6560 O.3   1001  IMP1001    -0.1145
      5  O5'       45.5570   51.4950   13.5440 O.3   1001  IMP1001    -0.2675
      6  C5'       45.5160   50.6420   12.3970 C.3   1001  IMP1001     0.1860
      7  C4'       45.6970   51.4130   11.0880 C.3   1001  IMP1001     0.1823
      8  O4'       45.1440   50.5630   10.0730 O.3   1001  IMP1001    -0.3135
      9  C3'       45.0120   52.7750   10.9440 C.3   1001  IMP1001     0.2184
     10  O3'       45.7610   53.6320   10.0780 O.3   1001  IMP1001    -0.2174
     11  C2'       43.6640   52.4570   10.2960 C.3   1001  IMP1001     0.2570
     12  O2'       43.3500   53.3940    9.2620 O.3   1001  IMP1001    -0.2130
     13  C1'       43.8850   51.0940    9.6360 C.3   1001  IMP1001     0.3186
     14  N9        42.7990   50.1450    9.9680 N.pl3 1001  IMP1001    -0.1435
     15  C8        42.2540   49.8920   11.1550 C.3   1001  IMP1001     0.3382
     16  N7        41.3160   48.9660   10.9750 N.2   1001  IMP1001    -0.2054
     17  C5        41.2630   48.6390    9.6870 C.2   1001  IMP1001     0.2446
     18  C6        40.4920   47.7470    8.9520 C.1   1001  IMP1001     0.1792
     19  O6        39.6300   47.0500    9.4850 O.2   1001  IMP1001    -0.2203
     20  N1        40.7100   47.6420    7.5740 N.2   1001  IMP1001    -0.1458
     21  C2        41.6920   48.4380    6.9720 C.3   1001  IMP1001     0.4017
     22  N3        42.4050   49.2710    7.7080 N.2   1001  IMP1001    -0.0334
     23  C4        42.2230   49.3990    9.0290 C.2   1001  IMP1001     0.3528
@<TRIPOS>BOND
     1    21    20    1
     2    21    22    1
     3    20    18    2
     4    22    23    2
     5    18    19    2
     6    18    17    1
     7    23    17    1
     8    23    14    1
     9    12    11    1
    10    13    14    1
    11    13     8    1
    12    13    11    1
    13    17    16    2
    14    14    15    1
    15     8     7    1
    16    10     9    1
    17    11     9    1
    18     9     7    1
    19    16    15    1
    20     7     6    1
    21     6     5    1
    22     5     1    1
    23     3     1    2
    24     4     1    1
    25     1     2    1
