@<TRIPOS>MOLECULE
2j4e_ITT_A_1.pdb
 31 33 0 0 0
SMALL
GASTEIGER

@<TRIPOS>ATOM
      1  PG        38.8030   20.4570  -32.2620 P.3   1001  ITT1001     0.5373
      2  O1G       37.5680   21.4230  -32.6280 O.3   1001  ITT1001    -0.1143
      3  O2G       39.2190   19.7180  -33.6310 O.2   1001  ITT1001    -0.2221
      4  O3G       38.4670   19.4700  -31.2110 O.3   1001  ITT1001    -0.1143
      5  PB        40.1530   22.2710  -30.5300 P.3   1001  ITT1001     0.2277
      6  O1B       39.5470   21.3910  -29.3260 O.3   1001  ITT1001    -0.4368
      7  O2B       39.4780   23.5850  -30.6260 O.2   1001  ITT1001    -0.5168
      8  O3B       40.0270   21.4390  -31.9040 O.3   1001  ITT1001    -0.2258
      9  PA        42.7540   21.2100  -29.9560 P.3   1001  ITT1001     0.2189
     10  O1A       43.5480   20.8250  -31.3040 O.2   1001  ITT1001    -0.5170
     11  O2A       42.0840   20.0720  -29.2880 O.3   1001  ITT1001    -0.4371
     12  O3A       41.7480   22.4040  -30.3520 O.3   1001  ITT1001    -0.2700
     13  O5'       43.7670   21.9670  -28.9610 O.3   1001  ITT1001    -0.3112
     14  C5'       44.6730   22.9320  -29.5020 C.3   1001  ITT1001     0.1813
     15  C4'       44.4670   24.3340  -28.9250 C.3   1001  ITT1001     0.1821
     16  O4'       45.4860   25.1370  -29.5390 O.3   1001  ITT1001    -0.3135
     17  C3'       43.1180   24.9580  -29.2850 C.3   1001  ITT1001     0.2184
     18  O3'       42.6890   25.8180  -28.2260 O.3   1001  ITT1001    -0.2174
     19  C2'       43.3930   25.8190  -30.5190 C.3   1001  ITT1001     0.2570
     20  O2'       42.7130   27.0660  -30.3510 O.3   1001  ITT1001    -0.2130
     21  C1'       44.9060   26.0430  -30.4890 C.3   1001  ITT1001     0.3186
     22  N9        45.5690   25.7790  -31.7860 N.pl3 1001  ITT1001    -0.1435
     23  C8        45.5210   24.6730  -32.5230 C.3   1001  ITT1001     0.3382
     24  N7        46.2710   24.8490  -33.6070 N.2   1001  ITT1001    -0.2054
     25  C5        46.8060   26.0660  -33.5690 C.2   1001  ITT1001     0.2446
     26  C6        47.6500   26.7730  -34.4180 C.1   1001  ITT1001     0.1792
     27  O6        48.0910   26.3140  -35.4700 O.2   1001  ITT1001    -0.2203
     28  N1        48.0160   28.0720  -34.0480 N.2   1001  ITT1001    -0.1458
     29  C2        47.5250   28.6110  -32.8540 C.3   1001  ITT1001     0.4017
     30  N3        46.7220   27.9090  -32.0760 N.2   1001  ITT1001    -0.0334
     31  C4        46.3550   26.6610  -32.3970 C.2   1001  ITT1001     0.3528
@<TRIPOS>BOND
     1    27    26    2
     2    26    28    2
     3    26    25    1
     4    28    29    1
     5     3     1    2
     6    24    25    2
     7    24    23    1
     8    25    31    1
     9    29    30    1
    10     2     1    1
    11    23    22    1
    12    31    30    2
    13    31    22    1
    14     1     8    1
    15     1     4    1
    16     8     5    1
    17    22    21    1
    18    10     9    2
    19     7     5    2
    20     5    12    1
    21     5     6    1
    22    19    21    1
    23    19    20    1
    24    19    17    1
    25    21    16    1
    26    12     9    1
    27     9    11    1
    28     9    13    1
    29    16    15    1
    30    14    13    1
    31    14    15    1
    32    17    15    1
    33    17    18    1
