@<TRIPOS>MOLECULE
2j4g_NB1_A_1.pdb
 16 17 0 0 0
SMALL
GASTEIGER

@<TRIPOS>ATOM
      1  C1         1.2970   -6.2080   33.6630 C.3   1590  NB11590     0.1925
      2  C2         1.8600   -7.5520   33.1280 C.3   1590  NB11590     0.1740
      3  C3         2.7330   -7.3380   31.8630 C.3   1590  NB11590     0.2101
      4  C4         2.0920   -6.3480   30.8720 C.3   1590  NB11590     0.2137
      5  C5         1.7590   -5.0090   31.5850 C.3   1590  NB11590     0.1820
      6  C6         1.0410   -3.9750   30.6770 C.3   1590  NB11590     0.2142
      7  C7         3.3530   -7.2160   35.0740 C.2   1590  NB11590     0.0811
      8  C8         4.4070   -7.5420   36.1190 C.3   1590  NB11590     0.0519
      9  CM         5.8910   -6.5100   37.9350 C.3   1590  NB11590     0.0004
     10  N2         2.7290   -8.0480   34.2350 N.2   1590  NB11590    -0.2644
     11  O3         3.0930   -8.5780   31.2660 O.3   1590  NB11590    -0.2181
     12  O4         3.0670   -6.1740   29.8600 O.3   1590  NB11590    -0.2176
     13  O5         0.8890   -5.2840   32.6810 O.3   1590  NB11590    -0.3400
     14  O6        -0.1480   -4.5550   30.1570 O.3   1590  NB11590    -0.2176
     15  S1         2.6050   -5.7290   34.7420 S.3   1590  NB11590    -0.0689
     16  C9         4.7710   -6.2720   36.9150 C.3   1590  NB11590     0.0068
@<TRIPOS>BOND
     1    12     4    1
     2    14     6    1
     3     6     5    1
     4     4     5    1
     5     4     3    1
     6    11     3    1
     7     5    13    1
     8     3     2    1
     9    13     1    1
    10     2     1    1
    11     2    10    1
    12     1    15    1
    13    10     7    2
    14    15     7    1
    15     7     8    1
    16     8    16    1
    17    16     9    1
