@<TRIPOS>MOLECULE
2j4h_YYY_A_1.pdb
 24 25 0 0 0
SMALL
GASTEIGER

@<TRIPOS>ATOM
      1  O3B       11.4810  -10.0700   20.7450 O.2   1175  YYY1175    -0.2221
      2  PB        11.9370   -9.8180   22.2480 P.3   1175  YYY1175     0.5373
      3  O1B       11.2300  -10.9190   23.1340 O.3   1175  YYY1175    -0.1143
      4  O2B       13.5410   -9.8860   22.3670 O.3   1175  YYY1175    -0.1143
      5  O3A       11.5830   -8.2750   22.6620 O.3   1175  YYY1175    -0.2261
      6  PA        10.6100   -7.7600   23.8600 P.3   1175  YYY1175     0.2231
      7  O1A       10.4010   -8.9370   24.9000 O.3   1175  YYY1175    -0.4370
      8  O2A        9.1970   -7.2120   23.3420 O.2   1175  YYY1175    -0.5169
      9  O5'       11.4710   -6.5860   24.5100 O.3   1175  YYY1175    -0.3111
     10  C5'       12.6330   -6.9740   25.1990 C.3   1175  YYY1175     0.1812
     11  C4'       13.5230   -5.7720   25.4630 C.3   1175  YYY1175     0.1773
     12  O4'       13.8920   -5.0320   24.2910 O.3   1175  YYY1175    -0.3339
     13  C3'       12.9700   -4.8010   26.5110 C.3   1175  YYY1175     0.1857
     14  O3'       13.5570   -4.9580   27.7850 O.3   1175  YYY1175    -0.2203
     15  C2'       13.2180   -3.4270   25.9420 C.3   1175  YYY1175     0.0874
     16  C1'       13.7750   -3.6280   24.5320 C.3   1175  YYY1175     0.2090
     17  N1        12.8860   -2.8940   23.6080 N.am  1175  YYY1175    -0.1802
     18  C2        13.4170   -2.0050   22.6420 C.1   1175  YYY1175     0.2756
     19  O2        14.6630   -1.8610   22.5300 O.2   1175  YYY1175    -0.1925
     20  N3        12.5580   -1.3210   21.8330 N.2   1175  YYY1175    -0.3024
     21  C4        11.2090   -1.4560   21.9290 C.2   1175  YYY1175     0.2346
     22  N4        10.3730   -0.7700   21.1150 N.pl3 1175  YYY1175    -0.0921
     23  C5        10.6830   -2.3190   22.8780 C.2   1175  YYY1175     0.0687
     24  C6        11.5440   -3.0210   23.7120 C.2   1175  YYY1175     0.0835
@<TRIPOS>BOND
     1     1     2    2
     2    22    21    1
     3    20    21    2
     4    20    18    2
     5    21    23    1
     6     2     4    1
     7     2     5    1
     8     2     3    1
     9    19    18    2
    10    18    17   am
    11     5     6    1
    12    23    24    2
    13     8     6    2
    14    17    24    1
    15    17    16    1
    16     6     9    1
    17     6     7    1
    18    12    16    1
    19    12    11    1
    20     9    10    1
    21    16    15    1
    22    10    11    1
    23    11    13    1
    24    15    13    1
    25    13    14    1
