@<TRIPOS>MOLECULE
2j4j_ACP_A_1.pdb
 31 33 0 0 0
SMALL
GASTEIGER

@<TRIPOS>ATOM
      1  PG        69.0200   32.1980   54.8790 P.3   228  ACP228      0.1295
      2  O1G       69.4770   30.9260   55.5920 O.3   228  ACP228     -0.3567
      3  O2G       67.5000   32.2290   54.8800 O.2   228  ACP228     -0.4595
      4  O3G       69.6620   33.5700   55.1720 O.3   228  ACP228     -0.3567
      5  PB        69.7900   33.2710   52.2070 P.3   228  ACP228      0.3815
      6  O1B       71.0400   34.0380   52.6420 O.3   228  ACP228     -0.1391
      7  O2B       68.5340   34.0830   52.1110 O.2   228  ACP228     -0.2547
      8  C3B       69.5750   31.8080   53.2110 C.3   228  ACP228      0.1768
      9  PA        70.8130   31.5110   50.2120 P.3   228  ACP228      0.2209
     10  O1A       72.1670   31.9540   49.7420 O.2   228  ACP228     -0.5170
     11  O2A       70.9110   30.6040   51.3960 O.3   228  ACP228     -0.4371
     12  O3A       69.9720   32.8110   50.6380 O.3   228  ACP228     -0.2483
     13  O5'       69.9540   30.6680   49.1230 O.3   228  ACP228     -0.3111
     14  C5'       70.6650   29.5110   48.6490 C.3   228  ACP228      0.1813
     15  C4'       69.7350   28.3650   48.3450 C.3   228  ACP228      0.1821
     16  O4'       69.0180   28.5950   47.1300 O.3   228  ACP228     -0.3135
     17  C3'       70.4590   27.0510   48.1280 C.3   228  ACP228      0.2184
     18  O3'       70.7460   26.4420   49.3760 O.3   228  ACP228     -0.2174
     19  C2'       69.5090   26.2720   47.2560 C.3   228  ACP228      0.2570
     20  O2'       68.9050   25.2050   47.9680 O.3   228  ACP228     -0.2130
     21  C1'       68.4830   27.3230   46.8110 C.3   228  ACP228      0.3186
     22  N9        68.1350   27.3690   45.3880 N.pl3 228  ACP228     -0.1439
     23  C8        66.8690   27.4690   44.9560 C.3   228  ACP228      0.3377
     24  N7        66.8470   27.3430   43.6090 N.2   228  ACP228     -0.2095
     25  C5        68.1090   27.1770   43.1740 C.2   228  ACP228      0.2526
     26  C6        68.7670   26.9960   41.8630 C.2   228  ACP228      0.4393
     27  N6        68.0090   26.9710   40.7640 N.pl3 228  ACP228      0.2180
     28  N1        70.0990   26.8450   41.8220 N.2   228  ACP228      0.0021
     29  C2        70.8470   26.8570   42.9390 C.3   228  ACP228      0.5254
     30  N3        70.3160   27.0340   44.1680 N.2   228  ACP228     -0.0055
     31  C4        68.9710   27.1850   44.3450 C.2   228  ACP228      0.3518
@<TRIPOS>BOND
     1    27    26    1
     2    28    26    2
     3    28    29    1
     4    26    25    1
     5    29    30    1
     6    25    24    2
     7    25    31    1
     8    24    23    1
     9    30    31    2
    10    31    22    1
    11    23    22    1
    12    22    21    1
    13    21    16    1
    14    21    19    1
    15    16    15    1
    16    19    20    1
    17    19    17    1
    18    17    15    1
    19    17    18    1
    20    15    14    1
    21    14    13    1
    22    13     9    1
    23    10     9    2
    24     9    12    1
    25     9    11    1
    26    12     5    1
    27     7     5    2
    28     5     6    1
    29     5     8    1
    30     8     1    1
    31     1     3    2
    32     1     4    1
    33     1     2    1
