@<TRIPOS>MOLECULE
2j4j_U5P_A_1.pdb
 21 22 0 0 0
SMALL
GASTEIGER

@<TRIPOS>ATOM
      1  N1        64.7020   40.5050   55.7670 N.am  227  U5P227     -0.1766
      2  C2        63.8820   41.6100   55.4900 C.1   227  U5P227      0.2845
      3  N3        64.4200   42.6770   54.8920 N.2   227  U5P227     -0.2452
      4  C4        65.7270   42.7330   54.5710 C.1   227  U5P227      0.2182
      5  C5        66.5600   41.6470   54.8350 C.2   227  U5P227      0.1242
      6  C6        66.0140   40.5400   55.4730 C.2   227  U5P227      0.0929
      7  O2        62.6590   41.5620   55.7910 O.2   227  U5P227     -0.1918
      8  O4        66.1820   43.7770   54.0540 O.2   227  U5P227     -0.2085
      9  C1'       64.0570   39.3970   56.4770 C.3   227  U5P227      0.2401
     10  C2'       63.3560   38.3120   55.6910 C.3   227  U5P227      0.2319
     11  O2'       62.2770   37.8130   56.5040 O.3   227  U5P227     -0.2157
     12  C3'       64.4500   37.2810   55.5120 C.3   227  U5P227      0.2158
     13  C4'       65.1710   37.3610   56.8490 C.3   227  U5P227      0.1801
     14  O3'       63.9600   36.0010   55.1480 O.3   227  U5P227     -0.2175
     15  O4'       65.0500   38.7440   57.2650 O.3   227  U5P227     -0.3320
     16  C5'       66.6510   36.9690   56.8180 C.3   227  U5P227      0.1859
     17  O5'       67.3340   37.3830   55.6380 O.3   227  U5P227     -0.2675
     18  P         67.8680   36.3270   54.4950 P.3   227  U5P227      0.5327
     19  O1P       66.7990   35.2800   54.3890 O.3   227  U5P227     -0.1145
     20  O2P       67.9250   37.1580   53.2390 O.2   227  U5P227     -0.2224
     21  O3P       69.1600   35.7010   54.9840 O.3   227  U5P227     -0.1145
@<TRIPOS>BOND
     1    20    18    2
     2     8     4    2
     3    19    18    1
     4    18    21    1
     5    18    17    1
     6     4     5    1
     7     4     3    2
     8     5     6    2
     9     3     2    2
    10    14    12    1
    11     6     1    1
    12     2     1   am
    13     2     7    2
    14    12    10    1
    15    12    13    1
    16    17    16    1
    17    10     9    1
    18    10    11    1
    19     1     9    1
    20     9    15    1
    21    16    13    1
    22    13    15    1
