@<TRIPOS>MOLECULE
2j4k_U5P_A_1.pdb
 21 22 0 0 0
SMALL
GASTEIGER

@<TRIPOS>ATOM
      1  N1        39.3860    9.1620   -0.0140 N.am  227  U5P227     -0.1766
      2  C2        39.3590    7.7270   -0.5400 C.1   227  U5P227      0.2845
      3  N3        38.2400    7.4180   -1.3420 N.2   227  U5P227     -0.2452
      4  C4        37.1730    8.2930   -1.6990 C.1   227  U5P227      0.2182
      5  C5        37.1900    9.7450   -1.1890 C.2   227  U5P227      0.1242
      6  C6        38.2650   10.0940   -0.3930 C.2   227  U5P227      0.0929
      7  O2        40.1770    6.8710   -0.3290 O.2   227  U5P227     -0.1918
      8  O4        35.9980    7.8500   -2.5610 O.2   227  U5P227     -0.2085
      9  C1'       40.5890    9.5790    0.8990 C.3   227  U5P227      0.2401
     10  C2'       41.9920    9.6280    0.1180 C.3   227  U5P227      0.2319
     11  O2'       42.9910    9.0240    0.9860 O.3   227  U5P227     -0.2157
     12  C3'       41.8910   11.0880   -0.4040 C.3   227  U5P227      0.2158
     13  C4'       41.3940   11.8140    0.8770 C.3   227  U5P227      0.1801
     14  O3'       43.1530   11.6290   -0.7840 O.3   227  U5P227     -0.2175
     15  O4'       40.3760   10.9960    1.3020 O.3   227  U5P227     -0.3320
     16  C5'       40.7680   13.1530    0.8270 C.3   227  U5P227      0.1859
     17  O5'       40.0490   13.2160   -0.3810 O.3   227  U5P227     -0.2675
     18  P         40.2890   14.2900   -1.4690 P.3   227  U5P227      0.5327
     19  O1P       39.3670   14.0180   -2.5900 O.2   227  U5P227     -0.2224
     20  O2P       40.1650   15.6280   -0.8100 O.3   227  U5P227     -0.1145
     21  O3P       41.8010   14.0330   -1.8890 O.3   227  U5P227     -0.1145
@<TRIPOS>BOND
     1    19    18    2
     2     8     4    2
     3    21    18    1
     4     4     3    2
     5     4     5    1
     6    18    20    1
     7    18    17    1
     8     3     2    2
     9     5     6    2
    10    14    12    1
    11     2     7    2
    12     2     1   am
    13    12    10    1
    14    12    13    1
    15     6     1    1
    16    17    16    1
    17     1     9    1
    18    10     9    1
    19    10    11    1
    20    16    13    1
    21    13    15    1
    22     9    15    1
