@<TRIPOS>MOLECULE
2j4l_UTP_A_1.pdb
 29 30 0 0 0
SMALL
GASTEIGER

@<TRIPOS>ATOM
      1  PA       -33.9350    2.5280 -104.5930 P.3   1227  UTP1227     0.2189
      2  O1A      -32.8270    2.3240 -103.6420 O.3   1227  UTP1227    -0.4371
      3  O2A      -34.6130    1.3550 -105.2250 O.2   1227  UTP1227    -0.5170
      4  O3A      -33.4290    3.5050 -105.7980 O.3   1227  UTP1227    -0.2700
      5  O5'      -35.0220    3.4430 -103.9370 O.3   1227  UTP1227    -0.3112
      6  PB       -32.3960    3.1740 -106.9700 P.3   1227  UTP1227     0.2277
      7  O1B      -31.0510    3.7200 -106.8110 O.3   1227  UTP1227    -0.4368
      8  O2B      -33.1160    3.5430 -108.1920 O.2   1227  UTP1227    -0.5168
      9  O3B      -32.3660    1.5550 -106.7410 O.3   1227  UTP1227    -0.2258
     10  PG       -31.6190    0.3050 -107.4150 P.3   1227  UTP1227     0.5373
     11  O1G      -31.9560    0.2940 -108.9300 O.2   1227  UTP1227    -0.2221
     12  O2G      -30.1610    0.5510 -107.1190 O.3   1227  UTP1227    -0.1143
     13  O3G      -32.1270   -0.9610 -106.7260 O.3   1227  UTP1227    -0.1143
     14  C5'      -36.1910    3.7640 -104.6380 C.3   1227  UTP1227     0.1813
     15  C4'      -36.5180    5.2210 -104.5480 C.3   1227  UTP1227     0.1799
     16  O4'      -37.2370    5.5660 -103.3290 O.3   1227  UTP1227    -0.3320
     17  C1'      -36.5610    6.5530 -102.5750 C.3   1227  UTP1227     0.2401
     18  C2'      -35.5140    7.1620 -103.5030 C.3   1227  UTP1227     0.2319
     19  O2'      -35.9630    8.4310 -103.9370 O.3   1227  UTP1227    -0.2157
     20  C3'      -35.3410    6.1810 -104.6660 C.3   1227  UTP1227     0.2158
     21  O3'      -35.3830    6.8350 -105.9340 O.3   1227  UTP1227    -0.2175
     22  N1       -35.9810    5.9760 -101.3050 N.am  1227  UTP1227    -0.1766
     23  C6       -35.5280    4.6480 -101.2040 C.2   1227  UTP1227     0.0929
     24  C2       -35.8970    6.8280 -100.1790 C.1   1227  UTP1227     0.2845
     25  O2       -36.2590    7.9720 -100.1820 O.2   1227  UTP1227    -0.1918
     26  N3       -35.3620    6.2530  -99.0470 N.2   1227  UTP1227    -0.2452
     27  C4       -34.8980    4.9430  -98.8950 C.1   1227  UTP1227     0.2182
     28  O4       -34.4440    4.5840  -97.7980 O.2   1227  UTP1227    -0.2085
     29  C5       -35.0050    4.1190 -100.0740 C.2   1227  UTP1227     0.1242
@<TRIPOS>BOND
     1    11    10    2
     2     8     6    2
     3    10    12    1
     4    10     9    1
     5    10    13    1
     6     6     7    1
     7     6     9    1
     8     6     4    1
     9    21    20    1
    10     4     1    1
    11     3     1    2
    12    20    15    1
    13    20    18    1
    14    14    15    1
    15    14     5    1
    16     1     5    1
    17     1     2    1
    18    15    16    1
    19    19    18    1
    20    18    17    1
    21    16    17    1
    22    17    22    1
    23    22    23    1
    24    22    24   am
    25    23    29    2
    26    25    24    2
    27    24    26    2
    28    29    27    1
    29    26    27    2
    30    27    28    2
