@<TRIPOS>MOLECULE
2j4q_TTP_B_1.pdb
 29 30 0 0 0
SMALL
GASTEIGER

@<TRIPOS>ATOM
      1  PA        17.6850  -18.9790   62.1450 P.3   194  TTP194      0.2189
      2  O1A       16.9230  -19.5300   61.0160 O.2   194  TTP194     -0.5170
      3  O2A       19.0940  -19.4170   62.3540 O.3   194  TTP194     -0.4371
      4  O3A       16.8370  -19.1780   63.5410 O.3   194  TTP194     -0.2700
      5  PB        15.7330  -20.3360   63.8540 P.3   194  TTP194      0.2277
      6  O1B       14.4160  -19.8710   63.3460 O.2   194  TTP194     -0.5168
      7  O2B       15.8150  -20.7720   65.2600 O.3   194  TTP194     -0.4368
      8  O3B       16.3130  -21.6500   63.0770 O.3   194  TTP194     -0.2258
      9  PG        16.2570  -22.1170   61.5060 P.3   194  TTP194      0.5373
     10  O1G       17.6390  -21.9820   60.9700 O.3   194  TTP194     -0.1143
     11  O2G       15.2560  -21.3130   60.7420 O.2   194  TTP194     -0.2221
     12  O3G       15.8560  -23.5490   61.4670 O.3   194  TTP194     -0.1143
     13  O5'       17.6550  -17.3800   61.8380 O.3   194  TTP194     -0.3112
     14  C5'       16.4200  -17.0990   61.2240 C.3   194  TTP194      0.1812
     15  C4'       16.1570  -15.7860   60.9130 C.3   194  TTP194      0.1773
     16  O4'       16.2380  -14.9790   62.0760 O.3   194  TTP194     -0.3339
     17  C3'       17.1310  -15.3050   60.0320 C.3   194  TTP194      0.1857
     18  O3'       16.8210  -15.5680   58.6770 O.3   194  TTP194     -0.2203
     19  C2'       17.2470  -13.9360   60.3380 C.3   194  TTP194      0.0874
     20  C1'       16.9820  -13.8160   61.7150 C.3   194  TTP194      0.2090
     21  N1        18.1150  -13.7060   62.4900 N.am  194  TTP194     -0.1794
     22  C2        18.0750  -12.9140   63.6280 C.1   194  TTP194      0.2844
     23  O2        17.0400  -12.3320   63.9400 O.2   194  TTP194     -0.1918
     24  N3        19.1820  -12.7900   64.4450 N.2   194  TTP194     -0.2455
     25  C4        20.3530  -13.4390   64.1270 C.1   194  TTP194      0.2134
     26  O4        21.3270  -13.3110   64.8580 O.2   194  TTP194     -0.2088
     27  C5        20.4290  -14.2300   62.9990 C.2   194  TTP194      0.0891
     28  C5M       21.7040  -14.9350   62.6340 C.3   194  TTP194      0.0462
     29  C6        19.3010  -14.3640   62.1920 C.2   194  TTP194      0.0877
@<TRIPOS>BOND
     1    18    17    1
     2    17    19    1
     3    17    15    1
     4    19    20    1
     5    11     9    2
     6    15    14    1
     7    15    16    1
     8    10     9    1
     9     2     1    2
    10    14    13    1
    11    12     9    1
    12     9     8    1
    13    20    16    1
    14    20    21    1
    15    13     1    1
    16     1     3    1
    17     1     4    1
    18    29    21    1
    19    29    27    2
    20    21    22   am
    21    28    27    1
    22    27    25    1
    23     8     5    1
    24     6     5    2
    25     4     5    1
    26    22    23    2
    27    22    24    2
    28     5     7    1
    29    25    24    2
    30    25    26    2
