@<TRIPOS>MOLECULE
2j4q_TYD_A_1.pdb
 25 26 0 0 0
SMALL
GASTEIGER

@<TRIPOS>ATOM
      1  PA        10.7350   -7.6680   24.1500 P.3   194  TYD194      0.2231
      2  O1A       10.8930   -8.7870   25.1300 O.3   194  TYD194     -0.4370
      3  O2A        9.3720   -7.1190   23.8340 O.2   194  TYD194     -0.5169
      4  O3A       11.3780   -8.1690   22.7170 O.3   194  TYD194     -0.2261
      5  PB        12.3240   -9.4930   22.4580 P.3   194  TYD194      0.5373
      6  O1B       11.7360  -10.3870   21.4030 O.2   194  TYD194     -0.2221
      7  O2B       12.6730  -10.0960   23.7880 O.3   194  TYD194     -0.1143
      8  O3B       13.6780   -8.7540   21.9220 O.3   194  TYD194     -0.1143
      9  O5'       11.6620   -6.4330   24.6710 O.3   194  TYD194     -0.3111
     10  C5'       13.0020   -6.7250   25.0270 C.3   194  TYD194      0.1812
     11  C4'       13.7220   -5.6140   25.4720 C.3   194  TYD194      0.1773
     12  O4'       14.0650   -4.7840   24.3770 O.3   194  TYD194     -0.3339
     13  C3'       12.9460   -4.8290   26.3580 C.3   194  TYD194      0.1857
     14  O3'       13.4520   -4.8870   27.6740 O.3   194  TYD194     -0.2203
     15  C2'       13.0290   -3.5040   25.9620 C.3   194  TYD194      0.0874
     16  C1'       13.7340   -3.4660   24.7460 C.3   194  TYD194      0.2090
     17  N1        12.9590   -2.7570   23.8810 N.am  194  TYD194     -0.1794
     18  C2        13.5410   -1.9900   22.9000 C.1   194  TYD194      0.2844
     19  O2        14.7420   -1.9630   22.7210 O.2   194  TYD194     -0.1918
     20  N3        12.7780   -1.2310   22.0790 N.2   194  TYD194     -0.2455
     21  C4        11.4130   -1.1840   22.1960 C.1   194  TYD194      0.2134
     22  O4        10.8030   -0.4530   21.4080 O.2   194  TYD194     -0.2088
     23  C5        10.8030   -1.9370   23.2100 C.2   194  TYD194      0.0891
     24  C5M        9.3300   -1.9650   23.4340 C.3   194  TYD194      0.0462
     25  C6        11.5840   -2.7270   24.0410 C.2   194  TYD194      0.0877
@<TRIPOS>BOND
     1     6     5    2
     2    22    21    2
     3     8     5    1
     4    20    21    2
     5    20    18    2
     6    21    23    1
     7     5     4    1
     8     5     7    1
     9     4     1    1
    10    19    18    2
    11    18    17   am
    12    23    24    1
    13    23    25    2
    14     3     1    2
    15    17    25    1
    16    17    16    1
    17     1     9    1
    18     1     2    1
    19    12    16    1
    20    12    11    1
    21     9    10    1
    22    16    15    1
    23    10    11    1
    24    11    13    1
    25    15    13    1
    26    13    14    1
