@<TRIPOS>MOLECULE
2j4r_G4P_A_1.pdb
 36 38 0 0 0
SMALL
GASTEIGER

@<TRIPOS>ATOM
      1  PB       -22.3310  -10.8370  -41.6110 P.3   1307  G4P1307     0.5373
      2  O1B      -23.7810  -11.5150  -41.7810 O.3   1307  G4P1307    -0.1143
      3  O2B      -21.9430  -10.2220  -43.0470 O.2   1307  G4P1307    -0.2221
      4  O3B      -21.3210  -11.8100  -41.1400 O.3   1307  G4P1307    -0.1143
      5  O3A      -22.5170   -9.6080  -40.5870 O.3   1307  G4P1307    -0.2261
      6  PA       -23.0820   -8.1690  -41.0400 P.3   1307  G4P1307     0.2231
      7  O1A      -22.4500   -7.8190  -42.4780 O.2   1307  G4P1307    -0.5169
      8  O2A      -22.7720   -7.1300  -40.0320 O.3   1307  G4P1307    -0.4370
      9  O5'      -24.6570   -8.3620  -41.3000 O.3   1307  G4P1307    -0.3111
     10  C5'      -25.4360   -9.1540  -40.4020 C.3   1307  G4P1307     0.1812
     11  C4'      -25.1660   -8.8070  -38.9360 C.3   1307  G4P1307     0.1771
     12  O4'      -25.4770   -7.4220  -38.7060 O.3   1307  G4P1307    -0.3327
     13  C3'      -26.2620   -9.5380  -38.1620 C.3   1307  G4P1307     0.1857
     14  O3'      -26.1060   -9.3090  -36.7590 O.3   1307  G4P1307    -0.3109
     15  C2'      -27.4460   -8.7390  -38.7030 C.3   1307  G4P1307     0.2282
     16  O2'      -28.5870   -8.9410  -37.8650 O.3   1307  G4P1307    -0.2159
     17  C1'      -26.9010   -7.3220  -38.5170 C.3   1307  G4P1307     0.2292
     18  N9       -27.5150   -6.4040  -39.5020 N.pl3 1307  G4P1307    -0.2354
     19  C8       -27.3440   -6.4670  -40.8210 C.3   1307  G4P1307     0.2246
     20  N7       -27.9450   -5.4250  -41.3930 N.2   1307  G4P1307    -0.2322
     21  C5       -28.5020   -4.6940  -40.4360 C.2   1307  G4P1307     0.2182
     22  C6       -29.2510   -3.5190  -40.4520 C.1   1307  G4P1307     0.2372
     23  O6       -29.4900   -2.9400  -41.5080 O.2   1307  G4P1307    -0.2069
     24  N1       -29.7150   -3.0030  -39.2360 N.2   1307  G4P1307    -0.2485
     25  C2       -29.4160   -3.6780  -38.0480 C.1   1307  G4P1307     0.2531
     26  N2       -29.8610   -3.2030  -36.8870 N.pl3 1307  G4P1307    -0.0226
     27  N3       -28.6830   -4.8030  -38.0720 N.2   1307  G4P1307    -0.3074
     28  C4       -28.2280   -5.3150  -39.2240 C.2   1307  G4P1307     0.2300
     29  PC       -26.4080  -10.5170  -35.7380 P.3   1307  G4P1307     0.2231
     30  O1C      -25.1340  -10.6110  -34.7560 O.3   1307  G4P1307    -0.4370
     31  O2C      -27.6830  -10.3440  -35.0070 O.2   1307  G4P1307    -0.5169
     32  O3C      -26.3810  -11.8580  -36.6270 O.3   1307  G4P1307    -0.2261
     33  PD       -27.7760  -12.5060  -37.1040 P.3   1307  G4P1307     0.5373
     34  O1D      -29.0490  -11.5390  -37.2690 O.3   1307  G4P1307    -0.1143
     35  O2D      -27.9800  -13.9140  -36.3480 O.3   1307  G4P1307    -0.1143
     36  O3D      -27.5070  -12.9060  -38.5040 O.2   1307  G4P1307    -0.2221
@<TRIPOS>BOND
     1     3     1    2
     2     7     6    2
     3     2     1    1
     4     1     4    1
     5     1     5    1
     6    23    22    2
     7    20    19    1
     8    20    21    2
     9     9     6    1
    10     9    10    1
    11     6     5    1
    12     6     8    1
    13    19    18    1
    14    22    21    1
    15    22    24    2
    16    21    28    1
    17    10    11    1
    18    18    28    1
    19    18    17    1
    20    24    25    2
    21    28    27    2
    22    11    12    1
    23    11    13    1
    24    12    17    1
    25    15    17    1
    26    15    13    1
    27    15    16    1
    28    36    33    2
    29    13    14    1
    30    27    25    2
    31    25    26    1
    32    34    33    1
    33    33    32    1
    34    33    35    1
    35    14    29    1
    36    32    29    1
    37    29    31    2
    38    29    30    1
