@<TRIPOS>MOLECULE
2j4s_HEM_A_1.pdb
 43 50 0 0 0
SMALL
GASTEIGER

@<TRIPOS>ATOM
      1 FE         14.7340  -14.2380   -7.8170 Fe    1456  HEM1456     0.0000
      2  CHA       14.2390  -11.4630   -5.8640 C.2   1456  HEM1456     0.0000
      3  CHB       17.6470  -14.8910   -6.1950 C.2   1456  HEM1456     0.0000
      4  CHC       15.2890  -16.8880   -9.9770 C.2   1456  HEM1456     0.0000
      5  CHD       12.2010  -13.1240   -9.9720 C.2   1456  HEM1456     0.0000
      6  NA        15.7840  -13.2970   -6.3630 N.2   1456  HEM1456     0.0000
      7  C1A       15.3430  -12.2290   -5.6040 C.2   1456  HEM1456     0.0000
      8  C2A       16.2350  -12.0750   -4.4770 C.2   1456  HEM1456     0.0000
      9  C3A       17.1710  -13.0350   -4.5760 C.2   1456  HEM1456     0.0000
     10  C4A       16.9190  -13.8210   -5.7650 C.2   1456  HEM1456     0.0000
     11  CMA       18.3470  -13.2670   -3.6030 C.3   1456  HEM1456     0.0000
     12  CAA       16.1580  -10.9830   -3.3670 C.3   1456  HEM1456     0.0000
     13  CBA       17.1230   -9.8420   -3.7420 C.3   1456  HEM1456     0.0000
     14  CGA       17.1490   -8.7120   -2.7050 C.2   1456  HEM1456     0.0000
     15  O1A       16.8140   -8.8990   -1.4950 O.co2 1456  HEM1456     0.0000
     16  O2A       17.4960   -7.5790   -3.1250 O.co2 1456  HEM1456     0.0000
     17  NB        16.2280  -15.6040   -8.0890 N.ar  1456  HEM1456     0.0000
     18  C1B       17.3000  -15.7540   -7.2220 C.ar  1456  HEM1456     0.0000
     19  C2B       17.9910  -16.9680   -7.5890 C.ar  1456  HEM1456     0.0000
     20  C3B       17.3340  -17.5200   -8.6110 C.ar  1456  HEM1456     0.0000
     21  C4B       16.2090  -16.6660   -8.9600 C.ar  1456  HEM1456     0.0000
     22  CMB       19.2440  -17.5420   -6.8810 C.3   1456  HEM1456     0.0000
     23  CAB       17.6640  -18.8200   -9.3890 C.2   1456  HEM1456     0.0000
     24  CBB       18.3990  -19.8330   -8.9130 C.2   1456  HEM1456     0.0000
     25  NC        13.9390  -14.8610   -9.6600 N.2   1456  HEM1456     0.0000
     26  C1C       14.2370  -16.0440  -10.3250 C.2   1456  HEM1456     0.0000
     27  C2C       13.2540  -16.2370  -11.4080 C.2   1456  HEM1456     0.0000
     28  C3C       12.4370  -15.1600  -11.3760 C.2   1456  HEM1456     0.0000
     29  C4C       12.8500  -14.2900  -10.2850 C.2   1456  HEM1456     0.0000
     30  CMC       13.1790  -17.4540  -12.3950 C.3   1456  HEM1456     0.0000
     31  CAC       11.2160  -14.7990  -12.2420 C.2   1456  HEM1456     0.0000
     32  CBC       10.4800  -15.7260  -12.8630 C.2   1456  HEM1456     0.0000
     33  ND        13.4150  -12.5280   -7.9300 N.ar  1456  HEM1456     0.0000
     34  C1D       12.4050  -12.3330   -8.8360 C.ar  1456  HEM1456     0.0000
     35  C2D       11.6340  -11.1670   -8.4440 C.ar  1456  HEM1456     0.0000
     36  C3D       12.2940  -10.6710   -7.1760 C.ar  1456  HEM1456     0.0000
     37  C4D       13.3780  -11.5750   -6.9210 C.ar  1456  HEM1456     0.0000
     38  CMD       10.4080  -10.5590   -9.1710 C.3   1456  HEM1456     0.0000
     39  CAD       11.8860   -9.4830   -6.2800 C.3   1456  HEM1456     0.0000
     40  CBD       10.9960  -10.0350   -5.1880 C.3   1456  HEM1456     0.0000
     41  CGD       10.3810   -8.8750   -4.4640 C.2   1456  HEM1456     0.0000
     42  O1D        9.1340   -8.7980   -4.4680 O.co2 1456  HEM1456     0.0000
     43  O2D       11.1400   -8.0520   -3.8910 O.co2 1456  HEM1456     0.0000
@<TRIPOS>BOND
     1    32    31    2
     2    30    27    1
     3    31    28    1
     4    27    28    2
     5    27    26    1
     6    28    29    1
     7    26     4    2
     8    26    25    1
     9    29     5    1
    10    29    25    2
    11     4    21    1
    12     5    34    2
    13    25     1    1
    14    23    24    2
    15    23    20    1
    16    38    35    1
    17    21    20   ar
    18    21    17   ar
    19    34    35   ar
    20    34    33   ar
    21    20    19   ar
    22    35    36   ar
    23    17     1    1
    24    17    18   ar
    25    33     1    1
    26    33    37   ar
    27     1     6    1
    28    19    18   ar
    29    19    22    1
    30    18     3    1
    31    36    37   ar
    32    36    39    1
    33    37     2    2
    34     6    10    1
    35     6     7    2
    36    39    40    1
    37     3    10    2
    38     2     7    1
    39    10     9    1
    40     7     8    1
    41    40    41    1
    42     9     8    2
    43     9    11    1
    44     8    12    1
    45    42    41   ar
    46    41    43   ar
    47    13    12    1
    48    13    14    1
    49    16    14   ar
    50    14    15   ar
