@<TRIPOS>MOLECULE
2j4y_RET_A_1.pdb
 20 20 0 0 0
SMALL
GASTEIGER

@<TRIPOS>ATOM
      1  C1        -7.0840   17.6170    1.4240 C.3   1296  RET1296     0.0183
      2  C2        -6.0460   18.7140    1.7760 C.3   1296  RET1296     0.0044
      3  C3        -4.6270   18.3910    1.3430 C.3   1296  RET1296     0.0047
      4  C4        -4.1370   16.9920    1.8230 C.3   1296  RET1296     0.0217
      5  C5        -5.2240   15.8980    1.8760 C.2   1296  RET1296    -0.0479
      6  C6        -6.5440   16.1610    1.6660 C.2   1296  RET1296    -0.0307
      7  C7        -7.5940   15.1050    1.6630 C.2   1296  RET1296    -0.0052
      8  C8        -7.6770   14.1640    0.7450 C.2   1296  RET1296    -0.0046
      9  C9        -8.6680   13.1400    0.5600 C.2   1296  RET1296    -0.0219
     10  C10       -8.4090   12.3410   -0.4740 C.2   1296  RET1296    -0.0043
     11  C11       -9.1970   11.2510   -0.9670 C.2   1296  RET1296    -0.0007
     12  C12       -8.9460   10.4230   -2.0110 C.2   1296  RET1296    -0.0046
     13  C13       -7.8210   10.2800   -2.9700 C.2   1296  RET1296    -0.0261
     14  C14       -7.9550    9.2640   -3.8660 C.2   1296  RET1296    -0.0300
     15  C15       -6.9790    8.9510   -4.8710 C.3   1296  RET1296     0.0304
     16  C16       -8.3140   17.9260    2.2830 C.3   1296  RET1296     0.0043
     17  C17       -7.5710   17.7670   -0.0230 C.3   1296  RET1296     0.0043
     18  C18       -4.6110   14.5520    2.1870 C.3   1296  RET1296     0.0260
     19  C19       -9.8720   13.0680    1.5020 C.3   1296  RET1296     0.0310
     20  C20       -6.5790   11.1650   -2.9820 C.3   1296  RET1296     0.0307
@<TRIPOS>BOND
     1    15    14    1
     2    14    13    2
     3    20    13    1
     4    13    12    1
     5    12    11    2
     6    11    10    1
     7    10     9    2
     8    17     1    1
     9     9     8    1
    10     9    19    1
    11     8     7    2
    12     3     2    1
    13     3     4    1
    14     1     6    1
    15     1     2    1
    16     1    16    1
    17     7     6    1
    18     6     5    2
    19     4     5    1
    20     5    18    1
