@<TRIPOS>MOLECULE
2j4z_626_A_1.pdb
 32 36 0 0 0
SMALL
GASTEIGER

@<TRIPOS>ATOM
      1  C1        43.2880   49.6920   17.8900 C.2   1389  6261389     0.2346
      2  O2        44.2440   49.3480   17.1880 O.2   1389  6261389    -0.2741
      3  N3        42.1820   50.2990   17.3360 N.am  1389  6261389    -0.2509
      4  N4        39.8830   51.6260   14.8130 N.2   1389  6261389    -0.0365
      5  C5        38.8920   51.8500   16.7730 C.2   1389  6261389     0.3979
      6  N6        38.7740   52.0380   15.5080 N.2   1389  6261389     0.0844
      7  N7        37.8270   52.2310   17.6960 N.am  1389  6261389     0.0385
      8  C8        37.7260   52.1610   19.0560 C.2   1389  6261389     0.3756
      9  C9        36.4630   52.6220   19.7430 C.ar  1389  6261389     0.0821
     10  O10       38.6560   51.7240   19.7280 O.2   1389  6261389    -0.2377
     11  C11       35.3170   53.1510   19.0750 C.ar  1389  6261389     0.0082
     12  C12       34.1780   53.5430   19.8020 C.ar  1389  6261389     0.0147
     13  C13       35.2910   52.8940   21.8880 C.ar  1389  6261389     0.0147
     14  C14       36.4250   52.5060   21.1670 C.ar  1389  6261389     0.0082
     15  C15       40.6850   51.1640   15.8400 C.2   1389  6261389     0.1343
     16  C16       40.0510   51.2910   17.1030 C.2   1389  6261389     0.1225
     17  C17       40.9870   50.7450   18.1220 C.2   1389  6261389     0.0768
     18  C18       42.0550   50.5590   15.8640 C.3   1389  6261389     0.1481
     19  N19       32.9210   53.8240   22.0180 N.pl3 1389  6261389    -0.3046
     20  C20       32.6940   53.2840   23.4290 C.3   1389  6261389     0.1081
     21  C21       31.2160   53.1950   23.9100 C.3   1389  6261389     0.0938
     22  N22       30.2230   53.3100   22.7910 N.3   1389  6261389    -0.2686
     23  C23       30.4030   54.5050   21.8920 C.3   1389  6261389     0.0938
     24  C24       31.8760   54.7840   21.4550 C.3   1389  6261389     0.1081
     25  C25       28.8320   53.2220   23.3170 C.3   1389  6261389     0.0897
     26  C26       34.1360   53.4210   21.2300 C.ar  1389  6261389     0.0479
     27  C27       41.4530   45.8970   19.5050 C.ar  1389  6261389     0.0351
     28  C28       40.8760   46.6880   20.4680 C.ar  1389  6261389     0.0072
     29  S29       42.7160   46.7230   18.6860 S.2   1389  6261389    -0.0903
     30  C30       41.4440   47.9610   20.5580 C.ar  1389  6261389     0.0032
     31  C31       42.4540   48.1200   19.6560 C.ar  1389  6261389     0.0165
     32  C32       43.3250   49.3760   19.4090 C.3   1389  6261389     0.1184
@<TRIPOS>BOND
     1     4     6    1
     2     4    15    2
     3     6     5    2
     4    15    18    1
     5    15    16    1
     6    18     3    1
     7     5    16    1
     8     5     7    1
     9    16    17    2
    10     2     1    2
    11     3     1   am
    12     3    17    1
    13     7     8   am
    14     1    32    1
    15    29    27   ar
    16    29    31   ar
    17     8    10    2
    18     8     9    1
    19    11     9   ar
    20    11    12   ar
    21    32    31    1
    22    27    28   ar
    23    31    30   ar
    24     9    14   ar
    25    12    26   ar
    26    28    30   ar
    27    14    13   ar
    28    26    13   ar
    29    26    19    1
    30    24    23    1
    31    24    19    1
    32    23    22    1
    33    19    20    1
    34    22    25    1
    35    22    21    1
    36    20    21    1
