@<TRIPOS>MOLECULE
2j50_627_A_1.pdb
 35 39 0 0 0
SMALL
GASTEIGER

@<TRIPOS>ATOM
      1  N1        26.1750   36.7030   24.3730 N.am  1390  6271390    -0.2489
      2  N2        27.9040   39.4280   26.1480 N.2   1390  6271390    -0.0365
      3  C3        25.8050   39.8180   26.3570 C.2   1390  6271390     0.3979
      4  N4        27.0480   40.2780   26.6680 N.2   1390  6271390     0.0844
      5  N5        24.7320   40.5390   26.7920 N.am  1390  6271390     0.0385
      6  C6        23.3860   40.2720   26.6200 C.2   1390  6271390     0.3756
      7  C7        22.3970   41.2730   27.1970 C.ar  1390  6271390     0.0821
      8  O8        22.9650   39.2870   26.0400 O.2   1390  6271390    -0.2377
      9  C9        22.7860   42.4430   27.8930 C.ar  1390  6271390     0.0082
     10  C10       21.8200   43.3460   28.4160 C.ar  1390  6271390     0.0147
     11  C11       20.0270   41.9220   27.5480 C.ar  1390  6271390     0.0147
     12  C12       20.9910   41.0300   27.0320 C.ar  1390  6271390     0.0082
     13  C13       27.3070   38.4420   25.5130 C.2   1390  6271390     0.1343
     14  C14       25.9790   38.6240   25.6050 C.2   1390  6271390     0.1225
     15  C15       25.1590   37.5880   24.9280 C.2   1390  6271390     0.0769
     16  C16       27.5230   37.1890   24.7220 C.3   1390  6271390     0.1482
     17  N17       19.3500   44.0150   28.7910 N.pl3 1390  6271390    -0.3046
     18  C18       18.1270   44.1130   27.8930 C.3   1390  6271390     0.1081
     19  C19       17.8010   45.4680   27.1860 C.3   1390  6271390     0.0938
     20  N20       18.0720   46.6500   28.0240 N.3   1390  6271390    -0.2686
     21  C21       19.4730   46.6410   28.4580 C.3   1390  6271390     0.0938
     22  C22       19.8610   45.3540   29.2440 C.3   1390  6271390     0.1081
     23  C23       17.7480   47.8910   27.3140 C.3   1390  6271390     0.0897
     24  C24       20.3960   43.1260   28.2660 C.ar  1390  6271390     0.0479
     25  C25       25.9940   35.5270   23.5830 C.2   1390  6271390     0.2612
     26  O26       26.9510   34.8780   23.1730 O.2   1390  6271390    -0.2715
     27  C27       23.8780   36.1590   22.2630 C.ar  1390  6271390     0.0134
     28  C28       22.5870   36.7000   22.5010 C.ar  1390  6271390    -0.0015
     29  C29       24.6160   36.6400   21.1350 C.ar  1390  6271390    -0.0015
     30  C31       22.0490   37.6890   21.6440 C.ar  1390  6271390    -0.0002
     31  C33       24.0850   37.6240   20.2800 C.ar  1390  6271390    -0.0002
     32  C20       24.4930   35.0940   23.2020 C.3   1390  6271390     0.2137
     33  C35       22.7960   38.1580   20.5290 C.ar  1390  6271390    -0.0000
     34  C36       23.3370   33.1330   22.3410 C.3   1390  6271390     0.1751
     35  O34       24.5810   33.7900   22.5560 O.3   1390  6271390    -0.3400
@<TRIPOS>BOND
     1    31    33   ar
     2    31    29   ar
     3    33    30   ar
     4    29    27   ar
     5    30    28   ar
     6    27    28   ar
     7    27    32    1
     8    34    35    1
     9    35    32    1
    10    26    25    2
    11    32    25    1
    12    25     1   am
    13     1    16    1
    14     1    15    1
    15    16    13    1
    16    15    14    2
    17    13    14    1
    18    13     2    2
    19    14     3    1
    20     8     6    2
    21     2     4    1
    22     3     4    2
    23     3     5    1
    24     6     5   am
    25     6     7    1
    26    12     7   ar
    27    12    11   ar
    28    19    18    1
    29    19    20    1
    30     7     9   ar
    31    23    20    1
    32    11    24   ar
    33    18    17    1
    34     9    10   ar
    35    20    21    1
    36    24    10   ar
    37    24    17    1
    38    21    22    1
    39    17    22    1
