@<TRIPOS>MOLECULE
2j51_DKI_A_1.pdb
 28 30 0 0 0
SMALL
GASTEIGER

@<TRIPOS>ATOM
      1  FAF      -28.5030   44.7060   -7.9820 F     1314  DKI1314    -0.2027
      2  CAU      -29.5610   44.7450   -8.7800 C.ar  1314  DKI1314     0.1575
      3  CAI      -29.5980   43.8440   -9.8390 C.ar  1314  DKI1314     0.0311
      4  CAH      -30.6950   43.8170  -10.6920 C.ar  1314  DKI1314     0.0047
      5  CAJ      -31.7520   44.6890  -10.4730 C.ar  1314  DKI1314     0.0311
      6  CAV      -31.7220   45.5910   -9.4040 C.ar  1314  DKI1314     0.1575
      7  FAG      -32.7850   46.4070   -9.2560 F     1314  DKI1314    -0.2027
      8  CAZ      -30.6020   45.6580   -8.5570 C.ar  1314  DKI1314     0.1271
      9  NAQ      -30.6320   46.3420   -7.3760 N.am  1314  DKI1314    -0.1854
     10  CAS      -31.2940   45.9350   -6.2500 C.2   1314  DKI1314     0.1862
     11  SAE      -32.2740   44.6970   -6.0590 S.2   1314  DKI1314    -0.0145
     12  NBA      -30.9300   46.7610   -5.1710 N.am  1314  DKI1314    -0.1152
     13  NAP      -30.2360   47.9590   -5.3900 N.2   1314  DKI1314    -0.0877
     14  CAT      -31.1400   46.6360   -3.8460 C.2   1314  DKI1314     0.3142
     15  NAA      -31.7760   45.6370   -3.1830 N.pl3 1314  DKI1314    -0.0755
     16  NAO      -30.5870   47.6490   -3.1560 N.2   1314  DKI1314    -0.2988
     17  CAX      -30.0550   48.4270   -4.1330 C.1   1314  DKI1314     0.1878
     18  NAR      -29.3850   49.5710   -3.7790 N.pl3 1314  DKI1314    -0.1347
     19  CAW      -28.6830   50.4480   -4.5740 C.ar  1314  DKI1314     0.0827
     20  CAL      -28.5970   50.3550   -5.9690 C.ar  1314  DKI1314     0.0187
     21  CAN      -27.8590   51.2850   -6.7020 C.ar  1314  DKI1314     0.0214
     22  CAK      -27.9920   51.4990   -3.9410 C.ar  1314  DKI1314     0.0187
     23  CAM      -27.2410   52.4250   -4.6750 C.ar  1314  DKI1314     0.0214
     24  CAY      -27.1730   52.3340   -6.0720 C.ar  1314  DKI1314     0.1251
     25  SBB      -26.3090   53.3670   -6.9760 S.O2  1314  DKI1314     0.0935
     26  OAC      -25.3280   52.5920   -7.6970 O.2   1314  DKI1314    -0.1503
     27  OAD      -25.5990   54.2920   -6.1300 O.2   1314  DKI1314    -0.1503
     28  NAB      -27.1520   54.1870   -8.0580 N.3   1314  DKI1314     0.0392
@<TRIPOS>BOND
     1     4     5   ar
     2     4     3   ar
     3     5     6   ar
     4     3     2   ar
     5     6     7    1
     6     6     8   ar
     7     2     8   ar
     8     2     1    1
     9     8     9    1
    10    28    25    1
    11    26    25    2
    12     9    10    1
    13    25    27    2
    14    25    24    1
    15    21    24   ar
    16    21    20   ar
    17    10    11    2
    18    10    12    1
    19    24    23   ar
    20    20    19   ar
    21    13    12    1
    22    13    17    2
    23    12    14    1
    24    23    22   ar
    25    19    22   ar
    26    19    18    1
    27    17    18    1
    28    17    16    2
    29    14    15    1
    30    14    16    2
