@<TRIPOS>MOLECULE
2j59_GTP_A_1.pdb
 32 34 0 0 0
SMALL
GASTEIGER

@<TRIPOS>ATOM
      1  PG         4.2090    9.2760   50.5090 P.3   1181  GTP1181     0.5373
      2  O1G        3.6810   10.3110   51.4470 O.3   1181  GTP1181    -0.1143
      3  O2G        5.5810    9.5930   49.9760 O.2   1181  GTP1181    -0.2221
      4  O3G        4.1960    7.9420   51.1760 O.3   1181  GTP1181    -0.1143
      5  O3B        3.1130    9.2510   49.3220 O.3   1181  GTP1181    -0.2258
      6  PB         3.0800    8.1990   48.1030 P.3   1181  GTP1181     0.2277
      7  O1B        3.7840    8.8650   46.9590 O.2   1181  GTP1181    -0.5168
      8  O2B        3.7200    6.8950   48.4640 O.3   1181  GTP1181    -0.4368
      9  O3A        1.5090    8.1470   47.7330 O.3   1181  GTP1181    -0.2700
     10  PA         0.5490    6.8480   47.7850 P.3   1181  GTP1181     0.2189
     11  O1A        1.1520    5.7610   46.9350 O.2   1181  GTP1181    -0.5170
     12  O2A        0.3670    6.4240   49.2290 O.3   1181  GTP1181    -0.4371
     13  O5'       -0.7760    7.4500   47.1390 O.3   1181  GTP1181    -0.3112
     14  C5'       -1.4850    8.5310   47.7090 C.3   1181  GTP1181     0.1813
     15  C4'       -2.9500    8.4420   47.2990 C.3   1181  GTP1181     0.1799
     16  O4'       -3.0960    8.6460   45.8910 O.3   1181  GTP1181    -0.3326
     17  C3'       -3.5510    7.0770   47.6100 C.3   1181  GTP1181     0.2158
     18  O3'       -4.8860    7.2900   47.9990 O.3   1181  GTP1181    -0.2175
     19  C2'       -3.5060    6.3620   46.2670 C.3   1181  GTP1181     0.2310
     20  O2'       -4.4380    5.3010   46.1280 O.3   1181  GTP1181    -0.2158
     21  C1'       -3.7380    7.5250   45.3060 C.3   1181  GTP1181     0.2293
     22  N9        -3.1960    7.2740   43.9510 N.pl3 1181  GTP1181    -0.2354
     23  C8        -1.9870    6.7390   43.6070 C.3   1181  GTP1181     0.2246
     24  N7        -1.9130    6.6950   42.2600 N.2   1181  GTP1181    -0.2322
     25  C5        -3.0580    7.1930   41.7400 C.2   1181  GTP1181     0.2182
     26  C6        -3.5110    7.3790   40.4340 C.1   1181  GTP1181     0.2372
     27  O6        -2.8200    7.0620   39.4570 O.2   1181  GTP1181    -0.2069
     28  N1        -4.7600    7.9330   40.2440 N.2   1181  GTP1181    -0.2485
     29  C2        -5.5550    8.3040   41.3190 C.1   1181  GTP1181     0.2531
     30  N2        -6.7580    8.8320   41.1110 N.pl3 1181  GTP1181    -0.0226
     31  N3        -5.1050    8.1120   42.6090 N.2   1181  GTP1181    -0.3074
     32  C4        -3.8720    7.5690   42.8060 C.2   1181  GTP1181     0.2300
@<TRIPOS>BOND
     1    27    26    2
     2    28    26    2
     3    28    29    2
     4    26    25    1
     5    30    29    1
     6    29    31    2
     7    25    24    2
     8    25    32    1
     9    24    23    1
    10    31    32    2
    11    32    22    1
    12    23    22    1
    13    22    21    1
    14    21    16    1
    15    21    19    1
    16    16    15    1
    17    20    19    1
    18    19    17    1
    19    11    10    2
    20     7     6    2
    21    13    14    1
    22    13    10    1
    23    15    17    1
    24    15    14    1
    25    17    18    1
    26     9    10    1
    27     9     6    1
    28    10    12    1
    29     6     8    1
    30     6     5    1
    31     5     1    1
    32     3     1    2
    33     1     4    1
    34     1     2    1
