@<TRIPOS>MOLECULE
2j5b_TYE_A_1.pdb
 12 12 0 0 0
SMALL
GASTEIGER

@<TRIPOS>ATOM
      1  N         47.2090   72.9960   39.3910 N.3   1336  TYE1336    -0.1241
      2  CA        48.2370   72.8540   40.4390 C.3   1336  TYE1336     0.1605
      3  C         49.4730   73.6460   40.0760 C.2   1336  TYE1336     0.2264
      4  O         49.5230   74.2810   39.0500 O.2   1336  TYE1336    -0.2867
      5  CB        48.6090   71.3710   40.6260 C.3   1336  TYE1336     0.0534
      6  CG        47.3910   70.5510   41.0050 C.ar  1336  TYE1336    -0.0201
      7  CD1       46.8630   69.6040   40.0950 C.ar  1336  TYE1336    -0.0009
      8  CD2       46.7860   70.7300   42.2680 C.ar  1336  TYE1336    -0.0009
      9  CE1       45.7300   68.8400   40.4510 C.ar  1336  TYE1336     0.0417
     10  CE2       45.6590   69.9730   42.6270 C.ar  1336  TYE1336     0.0417
     11  CZ        45.1250   69.0260   41.7210 C.ar  1336  TYE1336     0.1957
     12  OH        44.0340   68.2990   42.0730 O.3   1336  TYE1336    -0.2866
@<TRIPOS>BOND
     1     4     3    2
     2     1     2    1
     3     3     2    1
     4     7     9   ar
     5     7     6   ar
     6     2     5    1
     7     9    11   ar
     8     5     6    1
     9     6     8   ar
    10    11    12    1
    11    11    10   ar
    12     8    10   ar
