@<TRIPOS>MOLECULE
2j5f_DJK_A_1.pdb
 23 25 0 0 0
SMALL
GASTEIGER

@<TRIPOS>ATOM
      1  C51      -51.0280   -5.2040  -18.9560 C.3   3021  DJK3021     0.0101
      2  C11      -50.2440   -4.3720  -19.9690 C.3   3021  DJK3021     0.0872
      3  C10      -51.1650   -3.3720  -20.6510 C.2   3021  DJK3021     0.2455
      4  O61      -51.7210   -3.6590  -21.7060 O.2   3021  DJK3021    -0.2730
      5  N11      -51.3150   -2.2030  -20.0370 N.am  3021  DJK3021    -0.1795
      6  C9       -52.1380   -1.3100  -20.5720 C.2   3021  DJK3021     0.0698
      7  C8       -52.3380   -1.2790  -21.9450 C.2   3021  DJK3021     0.0250
      8  C13      -52.8170   -0.4280  -19.7550 C.2   3021  DJK3021    -0.0032
      9  C17      -53.6860    0.4910  -20.3070 C.3   3021  DJK3021     0.0731
     10  C18      -53.8740    0.5260  -21.6740 C.2   3021  DJK3021     0.0699
     11  C7       -53.2090   -0.3530  -22.4970 C.2   3021  DJK3021     0.1008
     12  C6       -53.4340   -0.2860  -23.8620 C.2   3021  DJK3021     0.3642
     13  N3       -54.2830    0.6260  -24.3250 N.2   3021  DJK3021    -0.0327
     14  C19      -54.9020    1.4490  -23.5080 C.3   3021  DJK3021     0.3917
     15  N2       -54.7100    1.4070  -22.2090 N.2   3021  DJK3021    -0.2225
     16  N1       -52.8270   -1.0980  -24.7180 N.pl3 3021  DJK3021    -0.0060
     17  C5       -52.8430   -0.8250  -26.0190 C.ar  3021  DJK3021     0.1839
     18  C4       -52.8510    0.4900  -26.4710 C.ar  3021  DJK3021     0.0511
     19  C20      -52.8500   -1.8560  -26.9350 C.ar  3021  DJK3021     0.0444
     20  C21      -52.8670   -1.5660  -28.2870 C.ar  3021  DJK3021     0.0041
     21  C22      -52.8760   -0.2520  -28.7330 C.ar  3021  DJK3021     0.0069
     22  C3       -52.8680    0.7810  -27.8270 C.ar  3021  DJK3021     0.0381
     23 BR        -52.8920    2.5800  -28.4310 Br    3021  DJK3021    -0.0489
@<TRIPOS>BOND
     1    21    20   ar
     2    21    22   ar
     3    23    22    1
     4    20    19   ar
     5    22    18   ar
     6    19    17   ar
     7    18    17   ar
     8    17    16    1
     9    16    12    1
    10    13    12    2
    11    13    14    1
    12    12    11    1
    13    14    15    1
    14    11     7    2
    15    11    10    1
    16    15    10    2
    17     7     6    1
    18     4     3    2
    19    10     9    1
    20     3     5   am
    21     3     2    1
    22     6     5    1
    23     6     8    2
    24     9     8    1
    25     2     1    1
