@<TRIPOS>MOLECULE
2j5m_MAN_A_10.pdb
 11 11 0 0 0
SMALL
GASTEIGER

@<TRIPOS>ATOM
      1  C1        32.1150   20.5400    1.3460 C.3   1318  MAN1318     0.1777
      2  C2        32.9640   21.5370    2.1340 C.3   1318  MAN1318     0.2141
      3  C3        33.8950   20.8190    3.1200 C.3   1318  MAN1318     0.2173
      4  C4        33.1890   19.7160    3.9170 C.3   1318  MAN1318     0.2142
      5  C5        32.2660   18.8690    3.0350 C.3   1318  MAN1318     0.1810
      6  C6        31.4130   17.9080    3.8570 C.3   1318  MAN1318     0.2141
      7  O2        32.1140   22.4260    2.8260 O.3   1318  MAN1318    -0.2176
      8  O3        34.4620   21.7530    4.0140 O.3   1318  MAN1318    -0.2175
      9  O4        34.1640   18.8840    4.5060 O.3   1318  MAN1318    -0.2176
     10  O5        31.4200   19.7000    2.2520 O.3   1318  MAN1318    -0.3481
     11  O6        31.4880   16.6240    3.2790 O.3   1318  MAN1318    -0.2176
@<TRIPOS>BOND
     1     1     2    1
     2     1    10    1
     3     2     7    1
     4     2     3    1
     5    10     5    1
     6     5     6    1
     7     5     4    1
     8     3     4    1
     9     3     8    1
    10    11     6    1
    11     4     9    1
