@<TRIPOS>MOLECULE
2j5m_HEM_A_1.pdb
 43 50 0 0 0
SMALL
GASTEIGER

@<TRIPOS>ATOM
      1 FE          9.2430   18.8690   -2.0400 Fe    1300  HEM1300     0.0000
      2  CHA       11.3000   21.4170   -3.1070 C.2   1300  HEM1300     0.0000
      3  CHB       11.1210   16.6210   -3.8360 C.2   1300  HEM1300     0.0000
      4  CHC        6.8910   16.4500   -1.4570 C.2   1300  HEM1300     0.0000
      5  CHD        7.3820   21.0780   -0.1810 C.2   1300  HEM1300     0.0000
      6  NA        10.8930   18.9980   -3.2540 N.ar  1300  HEM1300     0.0000
      7  C1A       11.6060   20.1500   -3.5460 C.ar  1300  HEM1300     0.0000
      8  C2A       12.7280   19.8020   -4.3980 C.ar  1300  HEM1300     0.0000
      9  C3A       12.6780   18.4710   -4.5920 C.ar  1300  HEM1300     0.0000
     10  C4A       11.5240   17.9420   -3.8830 C.ar  1300  HEM1300     0.0000
     11  CMA       13.6580   17.6200   -5.4290 C.3   1300  HEM1300     0.0000
     12  CAA       13.7930   20.8070   -4.9410 C.3   1300  HEM1300     0.0000
     13  CBA       13.2780   21.7790   -6.0080 C.3   1300  HEM1300     0.0000
     14  CGA       14.0090   23.1130   -5.9340 C.2   1300  HEM1300     0.0000
     15  O1A       15.0500   23.3560   -6.6300 O.co2 1300  HEM1300     0.0000
     16  O2A       13.5210   23.9620   -5.1450 O.co2 1300  HEM1300     0.0000
     17  NB         9.0290   16.9010   -2.5790 N.2   1300  HEM1300     0.0000
     18  C1B        9.9580   16.1400   -3.2600 C.2   1300  HEM1300     0.0000
     19  C2B        9.4930   14.7640   -3.2640 C.2   1300  HEM1300     0.0000
     20  C3B        8.3210   14.7170   -2.6010 C.2   1300  HEM1300     0.0000
     21  C4B        8.0100   16.0670   -2.1650 C.2   1300  HEM1300     0.0000
     22  CMB       10.2540   13.5950   -3.9300 C.3   1300  HEM1300     0.0000
     23  CAB        7.4070   13.4920   -2.3280 C.2   1300  HEM1300     0.0000
     24  CBB        7.8800   12.2550   -2.1410 C.2   1300  HEM1300     0.0000
     25  NC         7.4730   18.7830   -0.9770 N.ar  1300  HEM1300     0.0000
     26  C1C        6.6300   17.6900   -0.9150 C.ar  1300  HEM1300     0.0000
     27  C2C        5.4380   18.0750   -0.1830 C.ar  1300  HEM1300     0.0000
     28  C3C        5.5670   19.3610    0.1790 C.ar  1300  HEM1300     0.0000
     29  C4C        6.8520   19.8210   -0.3190 C.ar  1300  HEM1300     0.0000
     30  CMC        4.2420   17.1350    0.0990 C.3   1300  HEM1300     0.0000
     31  CAC        4.5820   20.2430    0.9890 C.2   1300  HEM1300     0.0000
     32  CBC        3.2670   20.0020    1.0870 C.2   1300  HEM1300     0.0000
     33  ND         9.3590   20.9180   -1.6620 N.2   1300  HEM1300     0.0000
     34  C1D        8.3910   21.6190   -0.9530 C.2   1300  HEM1300     0.0000
     35  C2D        8.6160   23.0350   -1.1440 C.2   1300  HEM1300     0.0000
     36  C3D        9.8380   23.1460   -2.0560 C.2   1300  HEM1300     0.0000
     37  C4D       10.2340   21.7830   -2.3230 C.2   1300  HEM1300     0.0000
     38  CMD        7.7850   24.1870   -0.5550 C.3   1300  HEM1300     0.0000
     39  CAD       10.4920   24.4430   -2.5740 C.3   1300  HEM1300     0.0000
     40  CBD       11.7370   24.7570   -1.7510 C.3   1300  HEM1300     0.0000
     41  CGD       12.3630   26.0390   -2.2370 C.2   1300  HEM1300     0.0000
     42  O1D       13.2430   26.5730   -1.5160 O.co2 1300  HEM1300     0.0000
     43  O2D       11.9870   26.5310   -3.3390 O.co2 1300  HEM1300     0.0000
@<TRIPOS>BOND
     1    15    14   ar
     2    13    14    1
     3    13    12    1
     4    14    16   ar
     5    11     9    1
     6    12     8    1
     7     9     8   ar
     8     9    10   ar
     9     8     7   ar
    10    22    19    1
    11    10     3    2
    12    10     6   ar
    13     3    18    1
    14     7     6   ar
    15     7     2    2
    16    43    41   ar
    17    19    18    1
    18    19    20    2
    19    18    17    2
    20     6     1    1
    21     2    37    1
    22    20    23    1
    23    20    21    1
    24    17    21    1
    25    17     1    1
    26    39    36    1
    27    39    40    1
    28    23    24    2
    29    37    36    1
    30    37    33    2
    31    41    40    1
    32    41    42   ar
    33    21     4    2
    34    36    35    2
    35     1    33    1
    36     1    25    1
    37    33    34    1
    38     4    26    1
    39    35    34    1
    40    35    38    1
    41    25    26   ar
    42    25    29   ar
    43    34     5    2
    44    26    27   ar
    45    29     5    1
    46    29    28   ar
    47    27    30    1
    48    27    28   ar
    49    28    31    1
    50    31    32    2
