@<TRIPOS>MOLECULE
2j5n_NAD_A_1.pdb
 44 48 0 0 0
SMALL
GASTEIGER

@<TRIPOS>ATOM
      1  PA        10.5200   33.8060   92.5700 P.3   1518  NAD1518     0.2189
      2  O1A        9.2690   34.0870   91.8430 O.2   1518  NAD1518    -0.5170
      3  O2A       10.5290   34.3340   93.9490 O.3   1518  NAD1518    -0.4371
      4  O5B       10.6950   32.2300   92.6410 O.3   1518  NAD1518    -0.3112
      5  C5B       11.8600   31.6350   93.1700 C.3   1518  NAD1518     0.1813
      6  C4B       11.5660   30.1880   93.5510 C.3   1518  NAD1518     0.1821
      7  O4B       10.5990   30.1650   94.5950 O.3   1518  NAD1518    -0.3135
      8  C3B       10.9880   29.3300   92.4200 C.3   1518  NAD1518     0.2184
      9  O3B       11.4870   28.0120   92.5710 O.3   1518  NAD1518    -0.2174
     10  C2B        9.4880   29.3640   92.6790 C.3   1518  NAD1518     0.2570
     11  O2B        8.7800   28.2470   92.1950 O.3   1518  NAD1518    -0.2130
     12  C1B        9.4810   29.3760   94.1970 C.3   1518  NAD1518     0.3186
     13  N9A        8.2680   29.9380   94.8020 N.pl3 1518  NAD1518    -0.1439
     14  C8A        7.3590   30.8460   94.3060 C.3   1518  NAD1518     0.3377
     15  N7A        6.4240   31.0720   95.2680 N.2   1518  NAD1518    -0.2095
     16  C5A        6.7420   30.3320   96.3580 C.2   1518  NAD1518     0.2526
     17  C6A        6.1590   30.1800   97.6210 C.2   1518  NAD1518     0.4393
     18  N6A        5.1380   30.9410   98.0370 N.pl3 1518  NAD1518     0.2180
     19  N1A        6.7520   29.3250   98.5130 N.2   1518  NAD1518     0.0021
     20  C2A        7.9040   28.6190   98.2000 C.3   1518  NAD1518     0.5254
     21  N3A        8.4860   28.7810   96.9680 N.2   1518  NAD1518    -0.0055
     22  C4A        7.9080   29.6250   96.0760 C.2   1518  NAD1518     0.3518
     23  O3        11.8420   34.3850   91.8630 O.3   1518  NAD1518    -0.2703
     24  PN        12.3660   34.1060   90.3680 P.3   1518  NAD1518     0.2189
     25  O1N       12.5540   32.6410   90.1780 O.3   1518  NAD1518    -0.4371
     26  O2N       11.4720   34.9060   89.4830 O.2   1518  NAD1518    -0.5170
     27  O5D       13.8280   34.7900   90.4360 O.3   1518  NAD1518    -0.3112
     28  C5D       13.9560   36.1900   90.2780 C.3   1518  NAD1518     0.1813
     29  C4D       14.1510   36.8680   91.6280 C.3   1518  NAD1518     0.1799
     30  O4D       15.2210   36.2210   92.3050 O.3   1518  NAD1518    -0.3327
     31  C3D       14.5620   38.3310   91.4980 C.3   1518  NAD1518     0.2158
     32  O3D       13.9240   39.1060   92.4900 O.3   1518  NAD1518    -0.2175
     33  C2D       16.0480   38.2850   91.7860 C.3   1518  NAD1518     0.2309
     34  O2D       16.5790   39.4980   92.2720 O.3   1518  NAD1518    -0.2158
     35  C1D       16.1260   37.1730   92.8060 C.3   1518  NAD1518     0.2263
     36  N1N       17.4870   36.6460   92.8610 N.pl3 1518  NAD1518    -0.2787
     37  C2N       18.2420   36.9480   93.9600 C.3   1518  NAD1518     0.1244
     38  C3N       19.5430   36.4790   94.0180 C.2   1518  NAD1518     0.0544
     39  C7N       20.4190   36.7530   95.2050 C.2   1518  NAD1518     0.2818
     40  O7N       21.6360   36.0810   95.2450 O.2   1518  NAD1518    -0.2670
     41  N7N       20.0600   37.6070   96.1650 N.am  1518  NAD1518    -0.0839
     42  C4N       20.0460   35.7160   92.9590 C.2   1518  NAD1518     0.0033
     43  C5N       19.2620   35.4120   91.8490 C.2   1518  NAD1518     0.0157
     44  C6N       17.9620   35.8900   91.8150 C.2   1518  NAD1518     0.0633
@<TRIPOS>BOND
     1    26    24    2
     2    25    24    1
     3    28    27    1
     4    28    29    1
     5    24    27    1
     6    24    23    1
     7    31    29    1
     8    31    33    1
     9    31    32    1
    10    29    30    1
    11    33    34    1
    12    33    35    1
    13    44    43    2
    14    44    36    1
    15     2     1    2
    16    43    42    1
    17    23     1    1
    18    11    10    1
    19    30    35    1
    20     8     9    1
    21     8    10    1
    22     8     6    1
    23     1     4    1
    24     1     3    1
    25     4     5    1
    26    10    12    1
    27    35    36    1
    28    36    37    1
    29    42    38    2
    30     5     6    1
    31     6     7    1
    32    37    38    1
    33    38    39    1
    34    12     7    1
    35    12    13    1
    36    14    13    1
    37    14    15    1
    38    13    22    1
    39    39    40    2
    40    39    41   am
    41    15    16    2
    42    22    16    1
    43    22    21    2
    44    16    17    1
    45    21    20    1
    46    17    18    1
    47    17    19    2
    48    20    19    1
