@<TRIPOS>MOLECULE
2j5s_KTA_A_1.pdb
 11 11 0 0 0
SMALL
GASTEIGER

@<TRIPOS>ATOM
      1  C8         6.8250  -21.6000    4.6610 C.2   1253  KTA1253     0.3649
      2  O1         6.2020  -20.8110    3.8890 O.co2 1253  KTA1253    -0.2457
      3  O2         6.5170  -22.7910    4.9200 O.co2 1253  KTA1253    -0.2457
      4  C7         8.0820  -21.0950    5.3760 C.3   1253  KTA1253     0.1145
      5  C1         9.0850  -20.6170    4.3370 C.3   1253  KTA1253     0.0186
      6  C2         9.5850  -21.8350    3.5570 C.3   1253  KTA1253     0.0651
      7  C3        10.6780  -21.3860    2.5770 C.2   1253  KTA1253     0.1507
      8  C4        11.8340  -20.4990    3.0610 C.3   1253  KTA1253     0.0645
      9  C5        11.3000  -19.3750    3.9640 C.3   1253  KTA1253     0.0078
     10  C6        10.2700  -19.8720    4.9980 C.3   1253  KTA1253     0.0014
     11  O3        10.6080  -21.7060    1.4020 O.2   1253  KTA1253    -0.2961
@<TRIPOS>BOND
     1    11     7    2
     2     7     8    1
     3     7     6    1
     4     8     9    1
     5     6     5    1
     6     2     1   ar
     7     9    10    1
     8     5    10    1
     9     5     4    1
    10     1     3   ar
    11     1     4    1
