@<TRIPOS>MOLECULE
2j5t_GLU_A_1.pdb
 10 9 0 0 0
SMALL
GASTEIGER

@<TRIPOS>ATOM
      1  N         93.8160  -74.6270   84.3160 N.3   1373  GLU1373    -0.1208
      2  CA        94.4820  -74.2600   85.5450 C.3   1373  GLU1373     0.1949
      3  C         93.5020  -74.2280   86.7120 C.2   1373  GLU1373     0.3819
      4  O         93.8180  -73.5930   87.7530 O.co2 1373  GLU1373    -0.2441
      5  CB        95.1410  -72.9170   85.2460 C.3   1373  GLU1373     0.0424
      6  CG        96.5480  -72.7420   85.8170 C.3   1373  GLU1373     0.1161
      7  CD        97.6040  -72.8590   84.7390 C.2   1373  GLU1373     0.3649
      8  OE1       97.3140  -72.6880   83.5220 O.co2 1373  GLU1373    -0.2457
      9  OE2       98.7550  -73.1480   85.1400 O.co2 1373  GLU1373    -0.2457
     10  OXT       92.4130  -74.8590   86.6230 O.co2 1373  GLU1373    -0.2441
@<TRIPOS>BOND
     1     8     7   ar
     2     1     2    1
     3     7     9   ar
     4     7     6    1
     5     5     2    1
     6     5     6    1
     7     2     3    1
     8    10     3   ar
     9     3     4   ar
