@<TRIPOS>MOLECULE
2j5v_RGP_A_1.pdb
 14 13 0 0 0
SMALL
GASTEIGER

@<TRIPOS>ATOM
      1  PA       -18.2590   25.2010  -19.2520 P.3   1370  RGP1370     0.5907
      2  OA1      -19.0940   25.8390  -18.1690 O.3   1370  RGP1370    -0.1039
      3  OA2      -16.7910   25.2660  -18.9810 O.3   1370  RGP1370    -0.1039
      4  OA3      -18.6090   25.5890  -20.6770 O.2   1370  RGP1370    -0.2114
      5  OE2      -18.5500   23.6340  -19.0770 O.3   1370  RGP1370    -0.3679
      6  CD       -19.8590   23.1150  -18.7240 C.2   1370  RGP1370     0.3239
      7  OE1      -20.4450   23.6370  -17.7980 O.2   1370  RGP1370    -0.2497
      8  CG       -20.4850   21.9460  -19.4650 C.3   1370  RGP1370     0.1120
      9  CB       -20.7090   20.8180  -18.4590 C.3   1370  RGP1370     0.0423
     10  CA       -21.5200   19.5960  -18.9130 C.3   1370  RGP1370     0.1949
     11  C        -22.9310   19.6890  -18.3720 C.2   1370  RGP1370     0.3819
     12  OXT      -23.6440   20.6950  -18.6400 O.co2 1370  RGP1370    -0.2441
     13  O        -23.3310   18.7320  -17.6590 O.co2 1370  RGP1370    -0.2441
     14  N        -21.5010   19.3690  -20.3590 N.3   1370  RGP1370    -0.1208
@<TRIPOS>BOND
     1     4     1    2
     2    14    10    1
     3     8     6    1
     4     8     9    1
     5     1     5    1
     6     1     3    1
     7     1     2    1
     8     5     6    1
     9    10     9    1
    10    10    11    1
    11     6     7    2
    12    12    11   ar
    13    11    13   ar
