@<TRIPOS>MOLECULE
2j5x_GSP_A_1.pdb
 32 34 0 0 0
SMALL
GASTEIGER

@<TRIPOS>ATOM
      1  PG        76.7480   29.4150   36.4510 P.3   190  GSP190      0.4340
      2  O3B       75.9490   28.6930   35.2730 O.3   190  GSP190     -0.2405
      3  S1G       78.3560   29.7660   35.9090 S.3   190  GSP190      0.0416
      4  O2G       76.7570   28.3960   37.5970 O.3   190  GSP190     -0.1305
      5  O3G       76.0690   30.7050   36.9220 O.2   190  GSP190     -0.2423
      6  PB        74.3940   28.3700   35.3800 P.3   190  GSP190      0.2262
      7  O1B       74.2080   26.9610   35.8060 O.2   190  GSP190     -0.5168
      8  O2B       73.7100   29.3290   36.2640 O.3   190  GSP190     -0.4369
      9  PA        72.9320   29.5910   33.1790 P.3   190  GSP190      0.2189
     10  O1A       71.5340   29.3780   33.6240 O.3   190  GSP190     -0.4371
     11  O2A       73.3490   31.0100   33.3740 O.2   190  GSP190     -0.5170
     12  O3A       73.9610   28.5260   33.8290 O.3   190  GSP190     -0.2701
     13  O5'       73.0040   29.1350   31.6330 O.3   190  GSP190     -0.3112
     14  C5'       73.9780   29.6060   30.7480 C.3   190  GSP190      0.1813
     15  C4'       73.4330   29.7710   29.3280 C.3   190  GSP190      0.1799
     16  O4'       72.8940   28.5630   28.8230 O.3   190  GSP190     -0.3326
     17  C3'       72.3630   30.8450   29.2260 C.3   190  GSP190      0.2158
     18  O3'       72.6900   31.6900   28.1490 O.3   190  GSP190     -0.2175
     19  C2'       71.0940   30.0670   28.9440 C.3   190  GSP190      0.2310
     20  O2'       70.1850   30.7640   28.1260 O.3   190  GSP190     -0.2158
     21  C1'       71.6110   28.8020   28.2750 C.3   190  GSP190      0.2293
     22  N9        70.7220   27.6630   28.5420 N.pl3 190  GSP190     -0.2354
     23  C8        70.2520   27.2540   29.7670 C.3   190  GSP190      0.2246
     24  N7        69.4680   26.1710   29.5910 N.2   190  GSP190     -0.2322
     25  C5        69.4270   25.8640   28.2530 C.2   190  GSP190      0.2182
     26  C6        68.7790   24.8550   27.4980 C.1   190  GSP190      0.2372
     27  O6        68.0560   23.9820   28.0080 O.2   190  GSP190     -0.2069
     28  N1        68.9660   24.8470   26.1250 N.2   190  GSP190     -0.2485
     29  C2        69.7620   25.7890   25.4940 C.1   190  GSP190      0.2531
     30  N2        69.9080   25.7540   24.1640 N.pl3 190  GSP190     -0.0226
     31  N3        70.3910   26.7590   26.2440 N.2   190  GSP190     -0.3074
     32  C4        70.2230   26.8120   27.5860 C.2   190  GSP190      0.2300
@<TRIPOS>BOND
     1    30    29    1
     2    29    28    2
     3    29    31    2
     4    28    26    2
     5    31    32    2
     6    26    27    2
     7    26    25    1
     8    32    25    1
     9    32    22    1
    10    20    19    1
    11    18    17    1
    12    25    24    2
    13    21    22    1
    14    21    16    1
    15    21    19    1
    16    22    23    1
    17    16    15    1
    18    19    17    1
    19    17    15    1
    20    15    14    1
    21    24    23    1
    22    14    13    1
    23    13     9    1
    24     9    11    2
    25     9    10    1
    26     9    12    1
    27    12     6    1
    28     2     6    1
    29     2     1    1
    30     6     7    2
    31     6     8    1
    32     3     1    1
    33     1     5    2
    34     1     4    1
