@<TRIPOS>MOLECULE
2j5z_GAL_A_1.pdb
 12 12 0 0 0
SMALL
GASTEIGER

@<TRIPOS>ATOM
      1  C1        17.5590   40.6020  116.1840 C.3   1278  GAL1278     0.3024
      2  C2        17.4410   39.3070  116.9720 C.3   1278  GAL1278     0.2434
      3  C3        15.9830   38.8910  117.1190 C.3   1278  GAL1278     0.2199
      4  C4        15.0400   40.0590  117.4130 C.3   1278  GAL1278     0.2144
      5  C5        15.4090   41.3320  116.6680 C.3   1278  GAL1278     0.1836
      6  C6        14.5740   42.5070  117.1620 C.3   1278  GAL1278     0.2142
      7  O1        18.9300   41.0050  116.0770 O.3   1278  GAL1278    -0.1869
      8  O2        18.1650   38.2630  116.3050 O.3   1278  GAL1278    -0.2148
      9  O3        15.8910   37.9370  118.1790 O.3   1278  GAL1278    -0.2174
     10  O4        15.0320   40.3320  118.8170 O.3   1278  GAL1278    -0.2176
     11  O5        16.7960   41.5830  116.8760 O.3   1278  GAL1278    -0.3236
     12  O6        14.0970   43.2610  116.0410 O.3   1278  GAL1278    -0.2176
@<TRIPOS>BOND
     1    12     6    1
     2     7     1    1
     3     1    11    1
     4     1     2    1
     5     8     2    1
     6     5    11    1
     7     5     6    1
     8     5     4    1
     9     2     3    1
    10     3     4    1
    11     3     9    1
    12     4    10    1
