@<TRIPOS>MOLECULE
2j60_ABE_A_1.pdb
 10 10 0 0 0
SMALL
GASTEIGER

@<TRIPOS>ATOM
      1  C1       -16.2910  -40.4620  -55.3470 C.3   1277  ABE1277     0.3003
      2  C2       -16.0450  -39.0830  -55.9540 C.3   1277  ABE1277     0.2182
      3  C3       -15.8890  -39.1510  -57.4660 C.3   1277  ABE1277     0.1053
      4  C4       -14.8830  -40.2340  -57.8490 C.2   1277  ABE1277     0.1803
      5  C5       -15.2510  -41.5520  -57.1670 C.3   1277  ABE1277     0.1749
      6  C6       -14.2990  -42.6860  -57.5410 C.3   1277  ABE1277     0.0402
      7  O1       -17.5720  -40.9870  -55.7490 O.3   1277  ABE1277    -0.1870
      8  O2       -17.1180  -38.1920  -55.6400 O.3   1277  ABE1277    -0.2171
      9  O4       -13.9450  -39.7070  -58.1540 O.2   1277  ABE1277    -0.2934
     10  O5       -15.2460  -41.3490  -55.7540 O.3   1277  ABE1277    -0.3216
@<TRIPOS>BOND
     1     9     4    2
     2     4     3    1
     3     4     5    1
     4     6     5    1
     5     3     2    1
     6     5    10    1
     7     2     8    1
     8     2     1    1
     9    10     1    1
    10     7     1    1
