@<TRIPOS>MOLECULE
2j61_NAG_A_1.pdb
 15 15 0 0 0
SMALL
GASTEIGER

@<TRIPOS>ATOM
      1  C1        -8.7900   38.8880   -3.4290 C.3   1290  NAG1290     0.2917
      2  C2        -9.2170   39.3630   -2.0330 C.3   1290  NAG1290     0.1871
      3  C3       -10.3950   38.5380   -1.4630 C.3   1290  NAG1290     0.2095
      4  C4       -11.0360   37.5230   -2.4240 C.3   1290  NAG1290     0.2136
      5  C5       -10.6130   37.5240   -3.8960 C.3   1290  NAG1290     0.1835
      6  C6       -11.9270   37.2600   -4.6140 C.3   1290  NAG1290     0.2142
      7  C7        -8.1130   39.8540    0.0880 C.2   1290  NAG1290     0.2421
      8  C8        -8.7270   38.9060    1.0910 C.3   1290  NAG1290     0.0964
      9  N2        -8.0530   39.3500   -1.1410 N.am  1290  NAG1290    -0.1991
     10  O1        -7.7980   39.7660   -3.9350 O.3   1290  NAG1290    -0.1879
     11  O3       -11.4400   39.3330   -0.9100 O.3   1290  NAG1290    -0.2183
     12  O4       -10.8130   36.2030   -1.9370 O.3   1290  NAG1290    -0.2176
     13  O5        -9.9190   38.7090   -4.2990 O.3   1290  NAG1290    -0.3242
     14  O6       -12.7660   36.6600   -3.6390 O.3   1290  NAG1290    -0.2176
     15  O7        -7.6860   41.0080    0.3300 O.2   1290  NAG1290    -0.2733
@<TRIPOS>BOND
     1     6     5    1
     2     6    14    1
     3    13     5    1
     4    13     1    1
     5    10     1    1
     6     5     4    1
     7     1     2    1
     8     4    12    1
     9     4     3    1
    10     2     3    1
    11     2     9    1
    12     3    11    1
    13     9     7   am
    14     7    15    2
    15     7     8    1
