@<TRIPOS>MOLECULE
2j62_GSZ_A_1.pdb
 27 29 0 0 0
SMALL
GASTEIGER

@<TRIPOS>ATOM
      1  CAZ       37.1090   40.4740   22.5240 C.3   1626  GSZ1626     0.0096
      2  CAN       36.5190   41.7320   21.8600 C.3   1626  GSZ1626     0.0782
      3  CBA       37.0330   42.9790   22.5650 C.3   1626  GSZ1626     0.0096
      4  CAL       34.9720   41.7350   21.8580 C.2   1626  GSZ1626     0.2413
      5  OAM       34.3250   40.7810   22.3200 O.2   1626  GSZ1626    -0.2733
      6  NAK       34.4150   42.8330   21.3140 N.am  1626  GSZ1626    -0.1958
      7  CAC       32.9330   43.0140   21.2010 C.3   1626  GSZ1626     0.1941
      8  CAB       32.2780   43.1860   22.5720 C.3   1626  GSZ1626     0.2117
      9  OAG       32.2910   44.5600   22.8210 O.3   1626  GSZ1626    -0.2180
     10  CAA       30.8330   42.6510   22.6560 C.3   1626  GSZ1626     0.2049
     11  OAH       30.3000   42.8810   23.9690 O.3   1626  GSZ1626    -0.2185
     12  CAF       30.8690   41.1540   22.3300 C.3   1626  GSZ1626     0.1410
     13  CAI       29.5680   40.3700   22.6510 C.3   1626  GSZ1626     0.2044
     14  OAJ       28.5320   40.8310   21.8280 O.3   1626  GSZ1626    -0.2185
     15  NAE       31.2900   41.0200   20.9070 N.pl3 1626  GSZ1626    -0.2758
     16  CAQ       30.9460   40.1880   19.9240 C.3   1626  GSZ1626     0.1477
     17  CAD       32.2770   41.8850   20.3670 C.2   1626  GSZ1626     0.1822
     18  NAO       32.4450   41.5340   19.0930 N.2   1626  GSZ1626    -0.3965
     19  CAP       31.6290   40.5070   18.8130 C.2   1626  GSZ1626     0.1082
     20  CAR       31.5430   39.7580   17.4630 C.3   1626  GSZ1626     0.0609
     21  CAS       31.3720   40.7370   16.3070 C.3   1626  GSZ1626     0.0335
     22  CAT       29.9540   41.3460   16.2500 C.ar  1626  GSZ1626    -0.0218
     23  CAU       28.8900   40.6290   15.6690 C.ar  1626  GSZ1626    -0.0043
     24  CAV       27.6060   41.1840   15.5930 C.ar  1626  GSZ1626    -0.0003
     25  CAW       27.4000   42.4620   16.1150 C.ar  1626  GSZ1626    -0.0000
     26  CAX       28.4610   43.1830   16.6960 C.ar  1626  GSZ1626    -0.0003
     27  CAY       29.7370   42.6290   16.7710 C.ar  1626  GSZ1626    -0.0043
@<TRIPOS>BOND
     1    24    23   ar
     2    24    25   ar
     3    23    22   ar
     4    25    26   ar
     5    22    21    1
     6    22    27   ar
     7    21    20    1
     8    26    27   ar
     9    20    19    1
    10    19    18    2
    11    19    16    1
    12    18    17    2
    13    16    15    1
    14    17    15    1
    15    17     7    1
    16    15    12    1
    17     7     6    1
    18     7     8    1
    19     6     4   am
    20    14    13    1
    21     4     2    1
    22     4     5    2
    23     2     1    1
    24     2     3    1
    25    12    13    1
    26    12    10    1
    27     8    10    1
    28     8     9    1
    29    10    11    1
