@<TRIPOS>MOLECULE
2j65_UDP_A_1.pdb
 25 26 0 0 0
SMALL
GASTEIGER

@<TRIPOS>ATOM
      1  N1         9.3090   12.9290    2.8720 N.am  402  UDP402     -0.1766
      2  C2         9.6290   14.2660    2.7530 C.1   402  UDP402      0.2845
      3  N3         8.7020   15.2340    3.0840 N.2   402  UDP402     -0.2452
      4  C4         7.4520   14.8650    3.5350 C.1   402  UDP402      0.2182
      5  C5         7.1320   13.5180    3.6550 C.2   402  UDP402      0.1242
      6  C6         8.0620   12.5540    3.2830 C.2   402  UDP402      0.0929
      7  O2        10.7430   14.5970    2.3500 O.2   402  UDP402     -0.1918
      8  O4         6.6240   15.7240    3.8310 O.2   402  UDP402     -0.2085
      9  C1'       10.3050   11.9000    2.5170 C.3   402  UDP402      0.2401
     10  C2'       10.3020   10.8050    3.5730 C.3   402  UDP402      0.2319
     11  O2'       11.5950   10.6780    4.1230 O.3   402  UDP402     -0.2157
     12  C3'        9.9350    9.5250    2.8440 C.3   402  UDP402      0.2158
     13  C4'        9.7330    9.9200    1.3880 C.3   402  UDP402      0.1799
     14  O4'        9.9560   11.3130    1.2770 O.3   402  UDP402     -0.3320
     15  O3'       11.0020    8.6080    2.9380 O.3   402  UDP402     -0.2175
     16  C5'        8.3180    9.5940    0.9250 C.3   402  UDP402      0.1813
     17  O5'        7.7320    8.6740    1.8180 O.3   402  UDP402     -0.3111
     18  PA         6.1470    8.3930    1.7790 P.3   402  UDP402      0.2231
     19  O1A        5.5800    8.9110    0.5140 O.2   402  UDP402     -0.5169
     20  O2A        5.4730    8.9920    2.9520 O.3   402  UDP402     -0.4370
     21  O3A        6.0350    6.7870    1.8060 O.3   402  UDP402     -0.2261
     22  PB         7.0410    5.8820    0.9330 P.3   402  UDP402      0.5373
     23  O1B        6.5470    4.4880    0.8890 O.3   402  UDP402     -0.1143
     24  O2B        7.1330    6.4230   -0.4420 O.2   402  UDP402     -0.2221
     25  O3B        8.3750    5.9180    1.5730 O.3   402  UDP402     -0.1143
@<TRIPOS>BOND
     1    24    22    2
     2    19    18    2
     3    23    22    1
     4    16    13    1
     5    16    17    1
     6    22    25    1
     7    22    21    1
     8    14    13    1
     9    14     9    1
    10    13    12    1
    11    18    21    1
    12    18    17    1
    13    18    20    1
    14     7     2    2
    15     9     1    1
    16     9    10    1
    17     2     1   am
    18     2     3    2
    19    12    15    1
    20    12    10    1
    21     1     6    1
    22     3     4    2
    23     6     5    2
    24     4     5    1
    25     4     8    2
    26    10    11    1
