@<TRIPOS>MOLECULE
2j66_PLP_A_1.pdb
 15 15 0 0 0
SMALL
GASTEIGER

@<TRIPOS>ATOM
      1  N1        -4.2090  -19.8000   33.4710 N.ar  1419  PLP1419    -0.2452
      2  C2        -5.0870  -18.7360   33.4860 C.ar  1419  PLP1419     0.0978
      3  C2A       -6.5670  -19.1170   33.4640 C.3   1419  PLP1419     0.0555
      4  C3        -4.5610  -17.4430   33.5240 C.ar  1419  PLP1419     0.2049
      5  O3        -5.4700  -16.4250   33.5410 O.3   1419  PLP1419    -0.2857
      6  C4        -3.1840  -17.1920   33.5480 C.ar  1419  PLP1419     0.0182
      7  C4A       -2.5730  -15.7710   33.5990 C.3   1419  PLP1419     0.0342
      8  C5        -2.2960  -18.2860   33.5350 C.ar  1419  PLP1419     0.0261
      9  C6        -2.8510  -19.5560   33.4950 C.ar  1419  PLP1419     0.0965
     10  C5A       -0.8020  -18.1720   33.5790 C.3   1419  PLP1419     0.1815
     11  O4P       -0.3350  -17.7990   34.8520 O.3   1419  PLP1419    -0.2653
     12  P          1.1690  -17.7760   35.1890 P.3   1419  PLP1419     0.5329
     13  O1P        1.1470  -17.3630   36.6190 O.3   1419  PLP1419    -0.1145
     14  O2P        1.8090  -16.7450   34.3170 O.2   1419  PLP1419    -0.2224
     15  O3P        1.7110  -19.1170   34.9770 O.3   1419  PLP1419    -0.1145
@<TRIPOS>BOND
     1     3     2    1
     2     1     2   ar
     3     1     9   ar
     4     2     4   ar
     5     9     8   ar
     6     4     5    1
     7     4     6   ar
     8     8     6   ar
     9     8    10    1
    10     6     7    1
    11    10    11    1
    12    14    12    2
    13    11    12    1
    14    15    12    1
    15    12    13    1
