@<TRIPOS>MOLECULE
2j68_GDP_A_1.pdb
 28 30 0 0 0
SMALL
GASTEIGER

@<TRIPOS>ATOM
      1  PB         9.4220    6.2830  -50.8980 P.3   999  GDP999      0.5373
      2  O1B        9.7580    7.5410  -51.5700 O.2   999  GDP999     -0.2221
      3  O2B        8.4680    6.6060  -49.6590 O.3   999  GDP999     -0.1143
      4  O3B       10.7560    5.5290  -50.3840 O.3   999  GDP999     -0.1143
      5  O3A        8.6180    5.3000  -51.8410 O.3   999  GDP999     -0.2261
      6  PA         9.4280    4.8550  -53.1740 P.3   999  GDP999      0.2231
      7  O1A        9.7220    5.9580  -54.1240 O.2   999  GDP999     -0.5169
      8  O2A       10.8040    4.1330  -52.7650 O.3   999  GDP999     -0.4370
      9  O5'        8.4090    3.8220  -53.8430 O.3   999  GDP999     -0.3111
     10  C5'        8.9860    3.3500  -55.0120 C.3   999  GDP999      0.1813
     11  C4'        8.0450    2.3380  -55.6020 C.3   999  GDP999      0.1799
     12  O4'        6.7690    2.9450  -55.8280 O.3   999  GDP999     -0.3326
     13  C3'        8.6590    1.8540  -56.9040 C.3   999  GDP999      0.2158
     14  O3'        8.8910    0.4310  -56.8830 O.3   999  GDP999     -0.2175
     15  C2'        7.6810    2.2770  -57.9880 C.3   999  GDP999      0.2310
     16  O2'        7.2460    1.1420  -58.7490 O.3   999  GDP999     -0.2158
     17  C1'        6.5090    2.9550  -57.2400 C.3   999  GDP999      0.2293
     18  N9         6.2760    4.3190  -57.7150 N.pl3 999  GDP999     -0.2354
     19  C8         6.8570    5.4800  -57.2720 C.3   999  GDP999      0.2246
     20  N7         6.3860    6.4940  -57.9420 N.2   999  GDP999     -0.2322
     21  C5         5.4850    6.0420  -58.8480 C.2   999  GDP999      0.2182
     22  C6         4.6550    6.6510  -59.8440 C.1   999  GDP999      0.2372
     23  O6         4.6680    7.8610  -60.0220 O.2   999  GDP999     -0.2069
     24  N1         3.8440    5.8350  -60.6020 N.2   999  GDP999     -0.2485
     25  C2         3.8290    4.4650  -60.4040 C.1   999  GDP999      0.2531
     26  N2         3.0220    3.6760  -61.1690 N.pl3 999  GDP999     -0.0226
     27  N3         4.5850    3.9060  -59.4870 N.2   999  GDP999     -0.3074
     28  C4         5.4130    4.6400  -58.7040 C.2   999  GDP999      0.2300
@<TRIPOS>BOND
     1    26    25    1
     2    24    25    2
     3    24    22    2
     4    25    27    2
     5    23    22    2
     6    22    21    1
     7    27    28    2
     8    21    28    1
     9    21    20    2
    10    16    15    1
    11    28    18    1
    12    15    17    1
    13    15    13    1
    14    20    19    1
    15    18    19    1
    16    18    17    1
    17    17    12    1
    18    13    14    1
    19    13    11    1
    20    12    11    1
    21    11    10    1
    22    10     9    1
    23     7     6    2
    24     9     6    1
    25     6     8    1
    26     6     5    1
    27     5     1    1
    28     2     1    2
    29     1     4    1
    30     1     3    1
