@<TRIPOS>MOLECULE
2j6e_BMA_A_1.pdb
 11 11 0 0 0
SMALL
GASTEIGER

@<TRIPOS>ATOM
      1  C1        48.3860   26.1950   41.3870 C.3   1456  BMA1456     0.1777
      2  C2        47.5890   25.1710   40.5640 C.3   1456  BMA1456     0.2141
      3  C3        48.2800   23.8000   40.6180 C.3   1456  BMA1456     0.2173
      4  C4        49.6950   23.9500   40.1410 C.3   1456  BMA1456     0.2142
      5  C5        50.4100   24.9350   41.0290 C.3   1456  BMA1456     0.1810
      6  C6        51.8340   25.1210   40.5770 C.3   1456  BMA1456     0.2141
      7  O2        47.5180   25.6190   39.2230 O.3   1456  BMA1456    -0.2176
      8  O3        47.6450   22.8370   39.7610 O.3   1456  BMA1456    -0.2175
      9  O4        50.3470   22.6950   40.1630 O.3   1456  BMA1456    -0.2176
     10  O5        49.7620   26.2220   40.9550 O.3   1456  BMA1456    -0.3481
     11  O6        52.5810   25.7490   41.6260 O.3   1456  BMA1456    -0.2176
@<TRIPOS>BOND
     1     7     2    1
     2     8     3    1
     3     4     9    1
     4     4     3    1
     5     4     5    1
     6     2     3    1
     7     2     1    1
     8     6     5    1
     9     6    11    1
    10    10     5    1
    11    10     1    1
