@<TRIPOS>MOLECULE
2j6e_GAL_A_1.pdb
 11 11 0 0 0
SMALL
GASTEIGER

@<TRIPOS>ATOM
      1  C1        60.0000   23.2140   45.1140 C.3   1459  GAL1459     0.1777
      2  C2        60.9370   24.4190   45.3070 C.3   1459  GAL1459     0.2141
      3  C3        62.3790   23.9260   45.3710 C.3   1459  GAL1459     0.2173
      4  C4        62.5030   22.8760   46.4650 C.3   1459  GAL1459     0.2142
      5  C5        61.5310   21.7470   46.2080 C.3   1459  GAL1459     0.1810
      6  C6        61.5990   20.7340   47.3220 C.3   1459  GAL1459     0.2141
      7  O2        60.7950   25.3450   44.2320 O.3   1459  GAL1459    -0.2176
      8  O3        63.2310   25.0230   45.6560 O.3   1459  GAL1459    -0.2175
      9  O4        62.1770   23.4590   47.7180 O.3   1459  GAL1459    -0.2176
     10  O5        60.1880   22.2650   46.1800 O.3   1459  GAL1459    -0.3481
     11  O6        62.9300   20.2630   47.5040 O.3   1459  GAL1459    -0.2176
@<TRIPOS>BOND
     1     7     2    1
     2     1     2    1
     3     1    10    1
     4     2     3    1
     5     3     8    1
     6     3     4    1
     7    10     5    1
     8     5     4    1
     9     5     6    1
    10     4     9    1
    11     6    11    1
