@<TRIPOS>MOLECULE
2j6e_MAN_B_1.pdb
 11 11 0 0 0
SMALL
GASTEIGER

@<TRIPOS>ATOM
      1  C1        43.0110   17.4390   28.9190 C.3   1454  MAN1454     0.1777
      2  C2        41.5810   17.2040   28.4060 C.3   1454  MAN1454     0.2141
      3  C3        40.7570   16.3650   29.3920 C.3   1454  MAN1454     0.2173
      4  C4        41.5260   15.1120   29.8260 C.3   1454  MAN1454     0.2142
      5  C5        42.9190   15.4710   30.3600 C.3   1454  MAN1454     0.1810
      6  C6        44.0480   14.7340   29.6660 C.3   1454  MAN1454     0.2141
      7  O2        41.6180   16.5650   27.1130 O.3   1454  MAN1454    -0.2176
      8  O3        39.5230   15.9930   28.7960 O.3   1454  MAN1454    -0.2175
      9  O4        40.7980   14.4420   30.8440 O.3   1454  MAN1454    -0.2176
     10  O5        43.1740   16.8920   30.2320 O.3   1454  MAN1454    -0.3481
     11  O6        45.3060   15.3150   29.9780 O.3   1454  MAN1454    -0.2176
@<TRIPOS>BOND
     1     7     2    1
     2     2     1    1
     3     2     3    1
     4     8     3    1
     5     1    10    1
     6     3     4    1
     7     6    11    1
     8     6     5    1
     9     4     5    1
    10     4     9    1
    11    10     5    1
