@<TRIPOS>MOLECULE
2j6h_G6Q_A_1.pdb
 16 15 0 0 0
SMALL
GASTEIGER

@<TRIPOS>ATOM
      1  C1        16.7220   36.0670   72.9390 C.3   1610  G6Q1610     0.2175
      2  C2        15.3910   35.6120   72.5170 C.3   1610  G6Q1610     0.2175
      3  C3        14.3790   36.6140   73.1290 C.3   1610  G6Q1610     0.2175
      4  C4        12.9850   36.4480   72.5400 C.3   1610  G6Q1610     0.2174
      5  C5        11.9260   37.1230   73.4170 C.3   1610  G6Q1610     0.2147
      6  C6        10.5650   36.8250   72.8230 C.3   1610  G6Q1610     0.1892
      7  O1        17.4150   36.5210   71.9870 O.3   1610  G6Q1610    -0.2175
      8  O2        15.5650   35.7850   71.0880 O.3   1610  G6Q1610    -0.2175
      9  O3        14.7170   37.9900   72.9170 O.3   1610  G6Q1610    -0.2175
     10  O4        12.9400   36.9640   71.1780 O.3   1610  G6Q1610    -0.2175
     11  O5        11.9490   36.6900   74.7670 O.3   1610  G6Q1610    -0.2176
     12  O6        10.3690   35.4360   72.6610 O.3   1610  G6Q1610    -0.2674
     13  P          9.4100   34.8560   71.5230 P.3   1610  G6Q1610     0.5327
     14  O1P       10.0220   35.0720   70.1890 O.2   1610  G6Q1610    -0.2224
     15  O2P        9.3160   33.3580   71.7330 O.3   1610  G6Q1610    -0.1145
     16  O3P        8.0560   35.5180   71.7690 O.3   1610  G6Q1610    -0.1145
@<TRIPOS>BOND
     1    14    13    2
     2     8     2    1
     3    10     4    1
     4    13    15    1
     5    13    16    1
     6    13    12    1
     7     7     1    1
     8     2     1    1
     9     2     3    1
    10     4     3    1
    11     4     5    1
    12    12     6    1
    13     6     5    1
    14     9     3    1
    15     5    11    1
