@<TRIPOS>MOLECULE
2j6h_ONL_A_1.pdb
 10 9 0 0 0
SMALL
GASTEIGER

@<TRIPOS>ATOM
      1  N          6.6620   33.4110   90.6810 N.3   1609  ONL1609    -0.1208
      2  CA         7.1550   32.0090   90.8220 C.3   1609  ONL1609     0.1948
      3  C          8.6320   31.8800   91.1960 C.2   1609  ONL1609     0.3819
      4  O          9.0560   30.7200   91.4680 O.co2 1609  ONL1609    -0.2441
      5  OXT        9.3680   32.8960   91.2390 O.co2 1609  ONL1609    -0.2441
      6  CB         6.7920   31.2620   89.5600 C.3   1609  ONL1609     0.0384
      7  CG         7.5020   31.9440   88.4000 C.3   1609  ONL1609     0.0666
      8  CD         7.1910   31.3020   87.0420 C.2   1609  ONL1609     0.1511
      9  OD         6.0450   31.1830   86.5230 O.2   1609  ONL1609    -0.2960
     10  CE         8.4170   30.9220   86.3640 C.3   1609  ONL1609     0.0722
@<TRIPOS>BOND
     1    10     8    1
     2     9     8    2
     3     8     7    1
     4     7     6    1
     5     6     2    1
     6     1     2    1
     7     2     3    1
     8     3     5   ar
     9     3     4   ar
