@<TRIPOS>MOLECULE
2j6l_NAI_A_1.pdb
 44 48 0 0 0
SMALL
GASTEIGER

@<TRIPOS>ATOM
      1  PA        57.6460   69.9560   33.2690 P.3   1501  NAI1501     0.2189
      2  O1A       56.4260   69.9930   34.1090 O.3   1501  NAI1501    -0.4371
      3  O2A       58.2620   71.3060   33.0830 O.2   1501  NAI1501    -0.5170
      4  O5B       57.2590   69.4920   31.8700 O.3   1501  NAI1501    -0.3112
      5  C5B       56.6780   68.1890   31.6590 C.3   1501  NAI1501     0.1813
      6  C4B       56.0450   68.0990   30.2770 C.3   1501  NAI1501     0.1821
      7  O4B       54.9510   69.0230   30.2470 O.3   1501  NAI1501    -0.3135
      8  C3B       56.9000   68.4910   29.0740 C.3   1501  NAI1501     0.2184
      9  O3B       56.5820   67.7230   27.9120 O.3   1501  NAI1501    -0.2174
     10  C2B       56.5300   69.9380   28.8240 C.3   1501  NAI1501     0.2570
     11  O2B       56.7390   70.3910   27.4780 O.3   1501  NAI1501    -0.2130
     12  C1B       55.0380   69.9040   29.1330 C.3   1501  NAI1501     0.3186
     13  N9A       54.4520   71.1980   29.4760 N.pl3 1501  NAI1501    -0.1439
     14  C8A       55.0650   72.3000   29.9810 C.3   1501  NAI1501     0.3377
     15  N7A       54.1640   73.2820   30.2360 N.2   1501  NAI1501    -0.2095
     16  C5A       52.9610   72.7660   29.9170 C.2   1501  NAI1501     0.2526
     17  C6A       51.5820   73.2460   29.9190 C.2   1501  NAI1501     0.4393
     18  N6A       51.3240   74.5130   30.3980 N.pl3 1501  NAI1501     0.2180
     19  N1A       50.6210   72.3790   29.5780 N.2   1501  NAI1501     0.0021
     20  C2A       50.8560   71.1080   29.1490 C.3   1501  NAI1501     0.5254
     21  N3A       52.1030   70.5950   29.0600 N.2   1501  NAI1501    -0.0055
     22  C4A       53.1400   71.3680   29.4300 C.2   1501  NAI1501     0.3518
     23  O3        58.5940   68.7920   33.8330 O.3   1501  NAI1501    -0.2703
     24  PN        60.0470   68.2110   33.4540 P.3   1501  NAI1501     0.2189
     25  O1N       60.0840   67.8330   31.9380 O.2   1501  NAI1501    -0.5170
     26  O2N       61.0590   69.2500   33.8830 O.3   1501  NAI1501    -0.4371
     27  O5D       60.2400   66.9200   34.2960 O.3   1501  NAI1501    -0.3112
     28  C5D       60.5450   66.9600   35.6990 C.3   1501  NAI1501     0.1813
     29  C4D       59.3010   66.8210   36.5790 C.3   1501  NAI1501     0.1799
     30  O4D       58.5380   65.6690   36.1920 O.3   1501  NAI1501    -0.3327
     31  C3D       59.5560   66.5680   38.0670 C.3   1501  NAI1501     0.2158
     32  O3D       58.6200   67.2200   38.9020 O.3   1501  NAI1501    -0.2175
     33  C2D       59.4720   65.0640   38.1970 C.3   1501  NAI1501     0.2309
     34  O2D       59.3120   64.5660   39.5260 O.3   1501  NAI1501    -0.2158
     35  C1D       58.3010   64.7830   37.2880 C.3   1501  NAI1501     0.2263
     36  N1N       58.2320   63.3720   36.9250 N.pl3 1501  NAI1501    -0.2787
     37  C2N       57.3130   62.5620   37.4930 C.3   1501  NAI1501     0.1244
     38  C3N       57.2900   61.2190   37.1840 C.2   1501  NAI1501     0.0544
     39  C7N       56.2500   60.2870   37.7280 C.2   1501  NAI1501     0.2818
     40  O7N       56.1200   59.2140   37.1150 O.2   1501  NAI1501    -0.2670
     41  N7N       55.4700   60.6340   38.7850 N.am  1501  NAI1501    -0.0839
     42  C4N       58.2940   60.7100   36.3260 C.2   1501  NAI1501     0.0033
     43  C5N       59.2490   61.5550   35.7850 C.2   1501  NAI1501     0.0157
     44  C6N       59.1960   62.9060   36.1070 C.2   1501  NAI1501     0.0633
@<TRIPOS>BOND
     1    11    10    1
     2     9     8    1
     3    10     8    1
     4    10    12    1
     5    21    20    1
     6    21    22    2
     7     8     6    1
     8    12    13    1
     9    12     7    1
    10    20    19    1
    11    22    13    1
    12    22    16    1
    13    13    14    1
    14    19    17    2
    15    16    17    1
    16    16    15    2
    17    17    18    1
    18    14    15    1
    19     7     6    1
    20     6     5    1
    21     5     4    1
    22     4     1    1
    23    25    24    2
    24     3     1    2
    25     1    23    1
    26     1     2    1
    27    24    23    1
    28    24    26    1
    29    24    27    1
    30    27    28    1
    31    28    29    1
    32    43    44    2
    33    43    42    1
    34    44    36    1
    35    30    29    1
    36    30    35    1
    37    42    38    2
    38    29    31    1
    39    36    35    1
    40    36    37    1
    41    40    39    2
    42    38    37    1
    43    38    39    1
    44    35    33    1
    45    39    41   am
    46    31    33    1
    47    31    32    1
    48    33    34    1
