@<TRIPOS>MOLECULE
2j6m_AEE_A_1.pdb
 33 37 0 0 0
SMALL
GASTEIGER

@<TRIPOS>ATOM
      1  CAQ      -50.7820   -0.6920  -12.4130 C.3   2021  AEE2021     0.0899
      2  CAO      -49.4830   -1.0040  -11.6760 C.3   2021  AEE2021     0.0897
      3  NBF      -49.1860   -2.4340  -11.7620 N.3   2021  AEE2021    -0.2703
      4  CAN      -50.2950   -3.2120  -11.2020 C.3   2021  AEE2021     0.0722
      5  CAA      -50.3250   -3.0340   -9.6850 C.3   2021  AEE2021     0.0188
      6  CAP      -48.9970   -2.7720  -13.1700 C.3   2021  AEE2021     0.0897
      7  CAR      -50.3000   -2.5340  -13.9180 C.3   2021  AEE2021     0.0899
      8  NBG      -50.6950   -1.1260  -13.8110 N.3   2021  AEE2021    -0.2665
      9  CAS      -49.8460   -0.2520  -14.6260 C.3   2021  AEE2021     0.0992
     10  CAX      -50.5050   -0.0850  -15.9900 C.ar  2021  AEE2021    -0.0061
     11  CAI      -51.5450    0.8070  -16.1470 C.ar  2021  AEE2021    -0.0028
     12  CAK      -52.1510    0.9550  -17.3830 C.ar  2021  AEE2021     0.0023
     13  CAJ      -50.0770   -0.8310  -17.0690 C.ar  2021  AEE2021    -0.0028
     14  CAL      -50.6790   -0.6800  -18.3070 C.ar  2021  AEE2021     0.0023
     15  CAY      -51.7220    0.2090  -18.4630 C.ar  2021  AEE2021     0.0305
     16  CBA      -52.3280    0.3730  -19.6960 C.2   2021  AEE2021     0.1437
     17  NAW      -53.3660    1.1590  -19.9400 N.2   2021  AEE2021    -0.3503
     18  CAM      -51.9570   -0.2180  -20.8220 C.2   2021  AEE2021     0.0516
     19  C5       -52.7630    0.1890  -21.7830 C.2   2021  AEE2021     0.1615
     20  C4       -53.6530    1.0650  -21.2250 C.1   2021  AEE2021     0.0942
     21  N3       -54.5870    1.6230  -21.9920 N.2   2021  AEE2021    -0.1548
     22  C2       -54.6590    1.3430  -23.2760 C.3   2021  AEE2021     0.4013
     23  N1       -53.8170    0.5090  -23.8430 N.2   2021  AEE2021    -0.0317
     24  C6       -52.8630   -0.0780  -23.1290 C.2   2021  AEE2021     0.3689
     25  NAV      -52.0340   -0.9090  -23.7250 N.pl3 2021  AEE2021    -0.0307
     26  CBE      -52.3410   -1.3270  -25.0890 C.3   2021  AEE2021     0.2274
     27  CAB      -51.2870   -2.3080  -25.5730 C.3   2021  AEE2021     0.0603
     28  CAZ      -52.3440   -0.1220  -26.0010 C.ar  2021  AEE2021     0.0239
     29  CAG      -52.2240    1.1440  -25.4670 C.ar  2021  AEE2021    -0.0003
     30  CAD      -52.2300    2.2450  -26.3050 C.ar  2021  AEE2021    -0.0002
     31  CAC      -52.3550    2.0790  -27.6710 C.ar  2021  AEE2021    -0.0000
     32  CAE      -52.4720    0.8110  -28.2030 C.ar  2021  AEE2021    -0.0002
     33  CAH      -52.4670   -0.2920  -27.3680 C.ar  2021  AEE2021    -0.0003
@<TRIPOS>BOND
     1    32    31   ar
     2    32    33   ar
     3    31    30   ar
     4    33    28   ar
     5    30    29   ar
     6    28    29   ar
     7    28    26    1
     8    27    26    1
     9    26    25    1
    10    23    22    1
    11    23    24    2
    12    25    24    1
    13    22    21    1
    14    24    19    1
    15    21    20    2
    16    19    20    1
    17    19    18    2
    18    20    17    2
    19    18    16    1
    20    17    16    2
    21    16    15    1
    22    15    14   ar
    23    15    12   ar
    24    14    13   ar
    25    12    11   ar
    26    13    10   ar
    27    11    10   ar
    28    10     9    1
    29     9     8    1
    30     7     8    1
    31     7     6    1
    32     8     1    1
    33     6     3    1
    34     1     2    1
    35     3     2    1
    36     3     4    1
    37     4     5    1
