@<TRIPOS>MOLECULE
2j6s_DTP_A_1.pdb
 30 32 0 0 0
SMALL
GASTEIGER

@<TRIPOS>ATOM
      1  PG        23.5580   39.6560    2.6440 P.3   1000  DTP1000     0.5373
      2  O1G       22.1030   40.0220    2.6460 O.3   1000  DTP1000    -0.1143
      3  O2G       24.3560   40.7580    1.9850 O.3   1000  DTP1000    -0.1143
      4  O3G       23.7960   38.3890    1.8700 O.2   1000  DTP1000    -0.2221
      5  PB        25.4020   40.3220    4.8170 P.3   1000  DTP1000     0.2277
      6  O1B       25.0270   41.5690    5.5380 O.3   1000  DTP1000    -0.4368
      7  O2B       26.4650   40.6210    3.8510 O.2   1000  DTP1000    -0.5168
      8  O3B       24.1050   39.5750    4.1520 O.3   1000  DTP1000    -0.2258
      9  PA        25.0440   38.3490    6.8990 P.3   1000  DTP1000     0.2189
     10  O1A       23.8560   37.6500    6.4200 O.2   1000  DTP1000    -0.5170
     11  O2A       25.9230   37.4240    7.6010 O.3   1000  DTP1000    -0.4371
     12  O3A       25.8800   39.1200    5.7150 O.3   1000  DTP1000    -0.2700
     13  O5'       24.5500   39.4480    7.8900 O.3   1000  DTP1000    -0.3112
     14  C5'       25.3720   40.4120    8.6140 C.3   1000  DTP1000     0.1813
     15  C4'       26.8530   40.2970    8.8440 C.3   1000  DTP1000     0.1795
     16  O4'       27.3220   39.1560    9.5450 O.3   1000  DTP1000    -0.3155
     17  C3'       27.8350   40.4090    7.7210 C.3   1000  DTP1000     0.1883
     18  O3'       27.6210   41.6120    6.9910 O.3   1000  DTP1000    -0.2202
     19  C2'       29.1030   40.3640    8.5490 C.3   1000  DTP1000     0.1151
     20  C1'       28.7520   39.1840    9.4570 C.3   1000  DTP1000     0.2873
     21  N9        29.3070   37.9380    8.9630 N.pl3 1000  DTP1000    -0.1460
     22  C8        28.7400   36.9680    8.1900 C.3   1000  DTP1000     0.3377
     23  N7        29.5340   35.9770    7.9120 N.2   1000  DTP1000    -0.2095
     24  C5        30.7090   36.3030    8.5390 C.2   1000  DTP1000     0.2526
     25  C6        31.9420   35.6510    8.6120 C.2   1000  DTP1000     0.4393
     26  N6        32.1440   34.4920    7.9970 N.pl3 1000  DTP1000     0.2180
     27  N1        32.9590   36.2450    9.3430 N.2   1000  DTP1000     0.0021
     28  C2        32.7130   37.4350    9.9540 C.3   1000  DTP1000     0.5254
     29  N3        31.5610   38.1500    9.9410 N.2   1000  DTP1000    -0.0055
     30  C4        30.5920   37.5180    9.2070 C.2   1000  DTP1000     0.3518
@<TRIPOS>BOND
     1     4     1    2
     2     3     1    1
     3     1     2    1
     4     1     8    1
     5     7     5    2
     6     8     5    1
     7     5     6    1
     8     5    12    1
     9    12     9    1
    10    10     9    2
    11     9    11    1
    12     9    13    1
    13    18    17    1
    14    17    19    1
    15    17    15    1
    16    13    14    1
    17    23    22    1
    18    23    24    2
    19    26    25    1
    20    22    21    1
    21    24    25    1
    22    24    30    1
    23    19    20    1
    24    25    27    2
    25    14    15    1
    26    15    16    1
    27    21    30    1
    28    21    20    1
    29    30    29    2
    30    27    28    1
    31    20    16    1
    32    29    28    1
