@<TRIPOS>MOLECULE
2j6t_DTP_A_1.pdb
 30 32 0 0 0
SMALL
GASTEIGER

@<TRIPOS>ATOM
      1  PG        23.7070   39.2940    2.7200 P.3   1000  DTP1000     0.5373
      2  O1G       22.4510   39.1810    3.5540 O.3   1000  DTP1000    -0.1143
      3  O2G       23.7980   40.7010    2.1490 O.3   1000  DTP1000    -0.1143
      4  O3G       23.6840   38.3210    1.5560 O.2   1000  DTP1000    -0.2221
      5  PB        25.7100   40.0140    4.8040 P.3   1000  DTP1000     0.2277
      6  O1B       24.8550   41.1260    5.2600 O.3   1000  DTP1000    -0.4368
      7  O2B       26.9960   40.5580    4.3190 O.2   1000  DTP1000    -0.5168
      8  O3B       25.0730   39.0820    3.6100 O.3   1000  DTP1000    -0.2258
      9  PA        25.0850   37.9870    6.8500 P.3   1000  DTP1000     0.2189
     10  O1A       23.9840   37.2880    6.1490 O.2   1000  DTP1000    -0.5170
     11  O2A       25.8940   37.0110    7.6130 O.3   1000  DTP1000    -0.4371
     12  O3A       26.0680   38.9240    5.9110 O.3   1000  DTP1000    -0.2700
     13  O5'       24.4660   39.0680    7.7870 O.3   1000  DTP1000    -0.3112
     14  C5'       25.2330   40.0210    8.6490 C.3   1000  DTP1000     0.1813
     15  C4'       26.7490   40.0810    8.8880 C.3   1000  DTP1000     0.1795
     16  O4'       27.3150   38.9850    9.6100 O.3   1000  DTP1000    -0.3155
     17  C3'       27.7780   40.2730    7.7770 C.3   1000  DTP1000     0.1883
     18  O3'       27.5070   41.3960    6.9350 O.3   1000  DTP1000    -0.2202
     19  C2'       29.0150   40.3760    8.6610 C.3   1000  DTP1000     0.1151
     20  C1'       28.7480   39.1510    9.5610 C.3   1000  DTP1000     0.2873
     21  N9        29.4240   37.9300    9.0910 N.pl3 1000  DTP1000    -0.1460
     22  C8        28.9820   36.9430    8.2400 C.3   1000  DTP1000     0.3377
     23  N7        29.8580   35.9980    8.0230 N.2   1000  DTP1000    -0.2095
     24  C5        30.9470   36.3740    8.7690 C.2   1000  DTP1000     0.2526
     25  C6        32.2260   35.7890    8.9570 C.2   1000  DTP1000     0.4393
     26  N6        32.5920   34.6440    8.3560 N.pl3 1000  DTP1000     0.2180
     27  N1        33.1230   36.4360    9.7960 N.2   1000  DTP1000     0.0021
     28  C2        32.7420   37.5940   10.3980 C.3   1000  DTP1000     0.5254
     29  N3        31.5440   38.2290   10.2760 N.2   1000  DTP1000    -0.0055
     30  C4        30.6940   37.5650    9.4420 C.2   1000  DTP1000     0.3518
@<TRIPOS>BOND
     1     4     1    2
     2     3     1    1
     3     1     2    1
     4     1     8    1
     5     8     5    1
     6     7     5    2
     7     5     6    1
     8     5    12    1
     9    12     9    1
    10    10     9    2
    11     9    11    1
    12     9    13    1
    13    18    17    1
    14    17    19    1
    15    17    15    1
    16    13    14    1
    17    23    22    1
    18    23    24    2
    19    22    21    1
    20    26    25    1
    21    14    15    1
    22    19    20    1
    23    24    25    1
    24    24    30    1
    25    15    16    1
    26    25    27    2
    27    21    30    1
    28    21    20    1
    29    30    29    2
    30    20    16    1
    31    27    28    1
    32    29    28    1
