@<TRIPOS>MOLECULE
2j6u_DGT_P_1.pdb
 31 33 0 0 0
SMALL
GASTEIGER

@<TRIPOS>ATOM
      1  PG        23.4890   39.3350    2.8360 P.3   1016  DGT1016     0.5373
      2  O1G       23.5650   38.2550    1.6450 O.2   1016  DGT1016    -0.2221
      3  O2G       22.1370   39.0070    3.6430 O.3   1016  DGT1016    -0.1143
      4  O3G       23.5390   40.7270    2.3350 O.3   1016  DGT1016    -0.1143
      5  O3B       24.6880   38.9760    3.8420 O.3   1016  DGT1016    -0.2258
      6  PB        25.4490   40.1000    4.7070 P.3   1016  DGT1016     0.2277
      7  O1B       24.6950   40.8670    5.7220 O.3   1016  DGT1016    -0.4368
      8  O2B       26.8110   40.4660    4.2590 O.2   1016  DGT1016    -0.5168
      9  O3A       25.8880   38.8580    5.6280 O.3   1016  DGT1016    -0.2700
     10  PA        24.9640   38.2650    6.8050 P.3   1016  DGT1016     0.2189
     11  O1A       25.0460   36.6670    6.6720 O.2   1016  DGT1016    -0.5170
     12  O2A       23.5580   38.7190    6.7560 O.3   1016  DGT1016    -0.4371
     13  O5'       25.7440   38.6910    8.1480 O.3   1016  DGT1016    -0.3112
     14  C5'       25.7060   40.0470    8.5990 C.3   1016  DGT1016     0.1812
     15  C4'       27.0920   40.5040    9.0580 C.3   1016  DGT1016     0.1772
     16  O4'       27.6810   39.5720    9.9810 O.3   1016  DGT1016    -0.3347
     17  C3'       28.0490   40.4730    7.8690 C.3   1016  DGT1016     0.1857
     18  O3'       27.8390   41.6370    7.0670 O.3   1016  DGT1016    -0.2203
     19  C2'       29.3450   40.6290    8.6600 C.3   1016  DGT1016     0.0865
     20  C1'       29.1060   39.5970    9.7680 C.3   1016  DGT1016     0.1981
     21  N9        29.5310   38.2540    9.3020 N.pl3 1016  DGT1016    -0.2374
     22  C8        28.8150   37.3770    8.5980 C.3   1016  DGT1016     0.2245
     23  N7        29.5670   36.3040    8.3670 N.2   1016  DGT1016    -0.2322
     24  C5        30.7660   36.4840    8.9170 C.2   1016  DGT1016     0.2182
     25  C6        31.9140   35.7030    8.9690 C.1   1016  DGT1016     0.2372
     26  O6        31.9700   34.6030    8.4150 O.2   1016  DGT1016    -0.2069
     27  N1        33.0220   36.2290    9.6460 N.2   1016  DGT1016    -0.2485
     28  C2        32.9470   37.5000   10.2340 C.1   1016  DGT1016     0.2531
     29  N2        34.0040   37.9870   10.8760 N.pl3 1016  DGT1016    -0.0226
     30  N3        31.8180   38.2210   10.1570 N.2   1016  DGT1016    -0.3074
     31  C4        30.7400   37.7400    9.5190 C.2   1016  DGT1016     0.2299
@<TRIPOS>BOND
     1     2     1    2
     2     4     1    1
     3     1     3    1
     4     1     5    1
     5     5     6    1
     6     8     6    2
     7     6     9    1
     8     6     7    1
     9     9    10    1
    10    11    10    2
    11    12    10    1
    12    10    13    1
    13    18    17    1
    14    17    19    1
    15    17    15    1
    16    13    14    1
    17    23    22    1
    18    23    24    2
    19    26    25    2
    20    22    21    1
    21    14    15    1
    22    19    20    1
    23    24    25    1
    24    24    31    1
    25    25    27    2
    26    15    16    1
    27    21    31    1
    28    21    20    1
    29    31    30    2
    30    27    28    2
    31    20    16    1
    32    30    28    2
    33    28    29    1
