@<TRIPOS>MOLECULE
2j6x_FMN_A_1.pdb
 31 33 0 0 0
SMALL
GASTEIGER

@<TRIPOS>ATOM
      1  N1        10.6980  117.4870   17.8770 N.2   1375  FMN1375    -0.2887
      2  C2         9.3430  117.6290   18.1190 C.1   1375  FMN1375     0.3669
      3  O2         8.9050  117.5430   19.2760 O.2   1375  FMN1375    -0.1744
      4  N3         8.4850  117.8700   17.0600 N.2   1375  FMN1375    -0.2300
      5  C4         8.9810  117.9700   15.7630 C.1   1375  FMN1375     0.2513
      6  O4         8.1930  118.1810   14.8300 O.2   1375  FMN1375    -0.2057
      7  C4A       10.3630  117.8730   15.5250 C.2   1375  FMN1375     0.2706
      8  N5        10.8570  117.8870   14.2250 N.2   1375  FMN1375    -0.3841
      9  C5A       12.1810  117.5280   13.9790 C.2   1375  FMN1375     0.1452
     10  C6        12.6330  117.4090   12.6640 C.2   1375  FMN1375     0.0252
     11  C7        13.9110  116.9130   12.3750 C.2   1375  FMN1375    -0.0375
     12  C7M       14.3050  116.7780   10.9170 C.3   1375  FMN1375     0.0268
     13  C8        14.7570  116.5300   13.4230 C.3   1375  FMN1375     0.0417
     14  C8M       16.1400  116.0000   13.1690 C.3   1375  FMN1375     0.0091
     15  C9        14.3140  116.6640   14.7510 C.2   1375  FMN1375    -0.0049
     16  C9A       13.0300  117.1810   15.0360 C.2   1375  FMN1375     0.0795
     17  N10       12.5450  117.2300   16.3370 N.pl3 1375  FMN1375    -0.2545
     18  C10       11.2200  117.5880   16.5900 C.2   1375  FMN1375     0.2449
     19  C1'       13.4770  116.9240   17.4690 C.3   1375  FMN1375     0.1336
     20  C2'       13.4150  115.4210   17.7480 C.3   1375  FMN1375     0.2048
     21  O2'       12.1890  115.1530   18.3900 O.3   1375  FMN1375    -0.2185
     22  C3'       14.5860  114.9360   18.5970 C.3   1375  FMN1375     0.2165
     23  O3'       14.6990  115.7600   19.7590 O.3   1375  FMN1375    -0.2175
     24  C4'       15.9050  114.9070   17.8080 C.3   1375  FMN1375     0.2147
     25  O4'       15.7570  114.2670   16.5590 O.3   1375  FMN1375    -0.2176
     26  C5'       17.0290  114.1740   18.5240 C.3   1375  FMN1375     0.1892
     27  O5'       18.2370  114.4760   17.8630 O.3   1375  FMN1375    -0.2674
     28  P         18.9850  113.3710   16.9540 P.3   1375  FMN1375     0.5327
     29  O1P       17.9780  112.9060   15.9130 O.2   1375  FMN1375    -0.2224
     30  O2P       20.1860  113.9760   16.2660 O.3   1375  FMN1375    -0.1145
     31  O3P       19.4260  112.2500   17.8410 O.3   1375  FMN1375    -0.1145
@<TRIPOS>BOND
     1    12    11    1
     2    11    10    2
     3    11    13    1
     4    10     9    1
     5    14    13    1
     6    13    15    1
     7     9     8    2
     8     9    16    1
     9     8     7    2
    10    15    16    2
    11     6     5    2
    12    16    17    1
    13     7     5    1
    14     7    18    1
    15     5     4    2
    16    29    28    2
    17    30    28    1
    18    17    18    1
    19    17    19    1
    20    25    24    1
    21    18     1    2
    22    28    31    1
    23    28    27    1
    24     4     2    2
    25    19    20    1
    26    20    21    1
    27    20    22    1
    28    24    26    1
    29    24    22    1
    30    27    26    1
    31     1     2    2
    32     2     3    2
    33    22    23    1
