@<TRIPOS>MOLECULE
2j72_GLC_A_1.pdb
 11 11 0 0 0
SMALL
GASTEIGER

@<TRIPOS>ATOM
      1  C1        42.9410  -12.1300   -2.9360 C.3   1108  GLC1108     0.1777
      2  C2        44.0360  -13.1710   -2.7760 C.3   1108  GLC1108     0.2141
      3  C3        44.1970  -14.0070   -4.0450 C.3   1108  GLC1108     0.2173
      4  C4        42.8220  -14.5580   -4.4450 C.3   1108  GLC1108     0.2142
      5  C5        41.6920  -13.5000   -4.4060 C.3   1108  GLC1108     0.1810
      6  C6        40.2620  -14.0400   -4.4710 C.3   1108  GLC1108     0.2141
      7  O2        45.1910  -12.5340   -2.2670 O.3   1108  GLC1108    -0.2176
      8  O3        45.1540  -15.0630   -3.7520 O.3   1108  GLC1108    -0.2175
      9  O4        42.8420  -15.1170   -5.7380 O.3   1108  GLC1108    -0.2176
     10  O5        41.7910  -12.8540   -3.1580 O.3   1108  GLC1108    -0.3481
     11  O6        40.0960  -15.0990   -3.5150 O.3   1108  GLC1108    -0.2176
@<TRIPOS>BOND
     1     9     4    1
     2     6     5    1
     3     6    11    1
     4     4     5    1
     5     4     3    1
     6     5    10    1
     7     3     8    1
     8     3     2    1
     9    10     1    1
    10     1     2    1
    11     2     7    1
