@<TRIPOS>MOLECULE
2j73_GLC_A_1.pdb
 11 11 0 0 0
SMALL
GASTEIGER

@<TRIPOS>ATOM
      1  C1        29.6910   -1.3390   -9.0090 C.3   1108  GLC1108     0.1777
      2  C2        28.3640   -1.9480   -8.5990 C.3   1108  GLC1108     0.2141
      3  C3        28.0430   -3.1260   -9.5150 C.3   1108  GLC1108     0.2173
      4  C4        28.1190   -2.6450  -10.9640 C.3   1108  GLC1108     0.2142
      5  C5        29.4650   -1.9690  -11.2330 C.3   1108  GLC1108     0.1810
      6  C6        29.6060   -1.4760  -12.6660 C.3   1108  GLC1108     0.2141
      7  O2        28.5000   -2.3500   -7.2440 O.3   1108  GLC1108    -0.2176
      8  O3        26.7580   -3.6270   -9.2210 O.3   1108  GLC1108    -0.2175
      9  O4        27.9750   -3.7460  -11.8420 O.3   1108  GLC1108    -0.2176
     10  O5        29.6260   -0.8830  -10.3500 O.3   1108  GLC1108    -0.3481
     11  O6        30.0950   -2.5640  -13.4400 O.3   1108  GLC1108    -0.2176
@<TRIPOS>BOND
     1    11     6    1
     2     6     5    1
     3     9     4    1
     4     5     4    1
     5     5    10    1
     6     4     3    1
     7    10     1    1
     8     3     8    1
     9     3     2    1
    10     1     2    1
    11     2     7    1
