@<TRIPOS>MOLECULE
2j74_B2G_A_1.pdb
 23 24 0 0 0
SMALL
GASTEIGER

@<TRIPOS>ATOM
      1  C1A       16.4260  -15.1720   32.8660 C.3   1398  B2G1398     0.3023
      2  C2A       17.1140  -14.3490   31.7600 C.3   1398  B2G1398     0.2433
      3  C3A       18.3280  -13.6400   32.3790 C.3   1398  B2G1398     0.2168
      4  C4A       17.8500  -12.7060   33.4940 C.3   1398  B2G1398     0.1804
      5  C5A       17.1080  -13.5280   34.5760 C.3   1398  B2G1398     0.1804
      6  C6A       16.5590  -12.6490   35.7070 C.3   1398  B2G1398     0.2141
      7  O2A       17.5460  -15.2380   30.7140 O.3   1398  B2G1398    -0.2148
      8  O3A       18.9980  -12.8530   31.3770 O.3   1398  B2G1398    -0.2175
      9  O4A       16.9440  -11.7130   32.9260 O.3   1398  B2G1398    -0.3257
     10  O5A       16.0020  -14.2730   33.9520 O.3   1398  B2G1398    -0.3237
     11  O6A       16.2260  -13.4690   36.8280 O.3   1398  B2G1398    -0.2176
     12  C1B       17.4480  -10.3840   32.9420 C.3   1398  B2G1398     0.2695
     13  C2B       16.5940   -9.5250   32.0130 C.3   1398  B2G1398     0.2406
     14  C3B       17.1440   -8.0980   32.0770 C.3   1398  B2G1398     0.2198
     15  C4B       17.0210   -7.5880   33.5170 C.3   1398  B2G1398     0.2144
     16  C5B       17.8370   -8.5020   34.4500 C.3   1398  B2G1398     0.1835
     17  C6B       17.7210   -8.0720   35.9030 C.3   1398  B2G1398     0.2142
     18  O2B       16.7150  -10.0310   30.6730 O.3   1398  B2G1398    -0.2149
     19  O3B       16.3650   -7.2470   31.2210 O.3   1398  B2G1398    -0.2174
     20  O4B       15.6420   -7.6440   33.9190 O.3   1398  B2G1398    -0.2176
     21  O5B       17.3520   -9.8770   34.3110 O.3   1398  B2G1398    -0.3256
     22  O6B       18.5270   -6.9020   36.0940 O.3   1398  B2G1398    -0.2176
     23  O1A       15.3120  -15.8320   32.3410 O.3   1398  B2G1398    -0.1869
@<TRIPOS>BOND
     1    18    13    1
     2     7     2    1
     3    19    14    1
     4     8     3    1
     5     2     3    1
     6     2     1    1
     7    13    14    1
     8    13    12    1
     9    14    15    1
    10    23     1    1
    11     3     4    1
    12     1    10    1
    13     9    12    1
    14     9     4    1
    15    12    21    1
    16     4     5    1
    17    15    20    1
    18    15    16    1
    19    10     5    1
    20    21    16    1
    21    16    17    1
    22     5     6    1
    23     6    11    1
    24    17    22    1
