@<TRIPOS>MOLECULE
2j74_B4G_A_1.pdb
 34 36 0 0 0
SMALL
GASTEIGER

@<TRIPOS>ATOM
      1  O1        17.1490   -4.9330   37.1070 O.3   1397  B4G1397    -0.1869
      2  O2        15.5600   -6.8270   38.4630 O.3   1397  B4G1397    -0.2148
      3  O3        16.5120   -7.6520   41.0570 O.3   1397  B4G1397    -0.2175
      4  O4        19.1510   -6.7610   40.7330 O.3   1397  B4G1397    -0.3257
      5  O5        18.3400   -4.4560   39.0580 O.3   1397  B4G1397    -0.3237
      6  CJ1       19.6120   -7.5570   41.8240 C.3   1397  B4G1397     0.2695
      7  CJ2       19.8570   -8.9760   41.3400 C.3   1397  B4G1397     0.2404
      8  CJ3       20.3780   -9.7940   42.5170 C.3   1397  B4G1397     0.2167
      9  CJ4       21.6940   -9.1980   43.0180 C.3   1397  B4G1397     0.1804
     10  CJ5       21.4340   -7.7230   43.4620 C.3   1397  B4G1397     0.1803
     11  CJ6       22.6960   -7.0050   43.9750 C.3   1397  B4G1397     0.2141
     12  OJ5       20.8540   -6.9690   42.3270 O.3   1397  B4G1397    -0.3257
     13  OJ2       18.6140   -9.5240   40.8830 O.3   1397  B4G1397    -0.2149
     14  OJ3       20.6200  -11.1370   42.0890 O.3   1397  B4G1397    -0.2175
     15  OJ4       22.6740   -9.2470   41.9270 O.3   1397  B4G1397    -0.3257
     16  OJ6       23.5380   -6.6670   42.8830 O.3   1397  B4G1397    -0.2176
     17  CQ1       23.9230   -9.8610   42.2620 C.3   1397  B4G1397     0.2695
     18  CQ2       24.4110  -10.7470   41.0980 C.3   1397  B4G1397     0.2406
     19  CQ3       25.7580  -11.3350   41.5040 C.3   1397  B4G1397     0.2198
     20  CQ4       26.7340  -10.1750   41.7260 C.3   1397  B4G1397     0.2144
     21  CQ5       26.2170   -9.2650   42.8490 C.3   1397  B4G1397     0.1835
     22  CQ6       27.1390   -8.0610   43.0840 C.3   1397  B4G1397     0.2142
     23  OQ5       24.8820   -8.7880   42.4880 O.3   1397  B4G1397    -0.3256
     24  OQ2       23.4830  -11.8200   40.8860 O.3   1397  B4G1397    -0.2149
     25  OQ3       26.2510  -12.1640   40.4330 O.3   1397  B4G1397    -0.2174
     26  OQ4       26.8110   -9.4020   40.5200 O.3   1397  B4G1397    -0.2176
     27  OQ6       26.4750   -7.0880   43.9180 O.3   1397  B4G1397    -0.2176
     28  C1A       17.0760   -4.9420   38.4990 C.3   1397  B4G1397     0.3023
     29  C2A       16.8140   -6.3670   39.0020 C.3   1397  B4G1397     0.2433
     30  C3A       16.7500   -6.3320   40.5410 C.3   1397  B4G1397     0.2168
     31  C4A       18.0820   -5.8310   41.0960 C.3   1397  B4G1397     0.1804
     32  C5A       18.3710   -4.4200   40.5260 C.3   1397  B4G1397     0.1804
     33  C6A       19.7150   -3.8590   40.9830 C.3   1397  B4G1397     0.2141
     34  O6        20.2460   -3.0300   39.9400 O.3   1397  B4G1397    -0.2176
@<TRIPOS>BOND
     1     1    28    1
     2     2    29    1
     3    28    29    1
     4    28     5    1
     5    29    30    1
     6     5    32    1
     7    34    33    1
     8    25    19    1
     9    26    20    1
    10    32    33    1
    11    32    31    1
    12    30     3    1
    13    30    31    1
    14     4    31    1
    15     4     6    1
    16    13     7    1
    17    24    18    1
    18    18    19    1
    19    18    17    1
    20     7     6    1
    21     7     8    1
    22    19    20    1
    23    20    21    1
    24     6    12    1
    25    15    17    1
    26    15     9    1
    27    14     8    1
    28    17    23    1
    29    12    10    1
    30    23    21    1
    31     8     9    1
    32    21    22    1
    33    16    11    1
    34     9    10    1
    35    22    27    1
    36    10    11    1
