@<TRIPOS>MOLECULE
2j75_NOY_A_1.pdb
 11 11 0 0 0
SMALL
GASTEIGER

@<TRIPOS>ATOM
      1  O4        -1.6710   10.6170    6.8920 O.3   1446  NOY1446    -0.2201
      2  C4        -1.1700   10.4880    8.2180 C.3   1446  NOY1446     0.1901
      3  C3        -0.4290   11.7620    8.6050 C.3   1446  NOY1446     0.2291
      4  O3         0.6620   12.0020    7.7220 O.3   1446  NOY1446    -0.2161
      5  C2         0.1360   11.6520   10.0140 C.3   1446  NOY1446     0.2586
      6  N         -0.8990   11.2140   10.9700 N.3   1446  NOY1446    -0.1868
      7  C7        -1.7170   10.0580   10.6180 C.3   1446  NOY1446     0.0966
      8  C5        -2.3230   10.2650    9.2230 C.3   1446  NOY1446     0.0836
      9  C6        -3.2310    9.1000    8.8570 C.3   1446  NOY1446     0.1861
     10  O2         0.5860   12.9450   10.3860 O.3   1446  NOY1446    -0.2007
     11  O6        -2.5760    7.8160    8.9700 O.3   1446  NOY1446    -0.2203
@<TRIPOS>BOND
     1     1     2    1
     2     4     3    1
     3     2     3    1
     4     2     8    1
     5     3     5    1
     6     9    11    1
     7     9     8    1
     8     8     7    1
     9     5    10    1
    10     5     6    1
    11     7     6    1
