@<TRIPOS>MOLECULE
2j77_NOJ_A_1.pdb
 11 11 0 0 0
SMALL
GASTEIGER

@<TRIPOS>ATOM
      1  C1        -0.9120   11.1330   10.9470 C.3   1446  NOJ1446     0.1243
      2  C2         0.1350   11.6360    9.9430 C.3   1446  NOJ1446     0.2020
      3  O2         0.4720   12.9340   10.3860 O.3   1446  NOJ1446    -0.2188
      4  C3        -0.4860   11.7580    8.5440 C.3   1446  NOJ1446     0.2151
      5  O3         0.5770   12.0530    7.6640 O.3   1446  NOJ1446    -0.2176
      6  C4        -1.3080   10.5040    8.1440 C.3   1446  NOJ1446     0.2031
      7  O4        -1.7400   10.7230    6.8160 O.3   1446  NOJ1446    -0.2187
      8  C5        -2.4700   10.3840    9.1460 C.3   1446  NOJ1446     0.1386
      9  N5        -1.8910   10.1580   10.4680 N.3   1446  NOJ1446    -0.2113
     10  C6        -3.4120    9.1980    8.8830 C.3   1446  NOJ1446     0.2020
     11  O6        -2.7160    7.9670    9.0060 O.3   1446  NOJ1446    -0.2188
@<TRIPOS>BOND
     1     7     6    1
     2     5     4    1
     3     6     4    1
     4     6     8    1
     5     4     2    1
     6    10    11    1
     7    10     8    1
     8     8     9    1
     9     2     3    1
    10     2     1    1
    11     9     1    1
