@<TRIPOS>MOLECULE
2j78_GOX_A_1.pdb
 13 13 0 0 0
SMALL
GASTEIGER

@<TRIPOS>ATOM
      1  C1         0.1250   11.4600   10.3170 C.2   1451  GOX1451     0.4163
      2  N1         0.5030   11.3590   11.5760 N.4   1451  GOX1451     0.1455
      3  C2         1.1740   12.1210    9.4020 C.3   1451  GOX1451     0.2978
      4  N5        -1.1350   10.9800    9.9070 N.2   1451  GOX1451    -0.0582
      5  O7        -0.3610   10.7420   12.4840 O.3   1451  GOX1451     0.0696
      6  O2         1.6700   13.3100    9.9680 O.3   1451  GOX1451    -0.2066
      7  C3         0.5390   12.4040    8.0430 C.3   1451  GOX1451     0.2291
      8  O3         1.6100   12.6700    7.1400 O.3   1451  GOX1451    -0.2168
      9  C4        -0.2660   11.1900    7.5690 C.3   1451  GOX1451     0.2365
     10  O4        -0.6380   11.3320    6.2030 O.3   1451  GOX1451    -0.2155
     11  C5        -1.5140   11.1240    8.4950 C.3   1451  GOX1451     0.2803
     12  C6        -2.4280    9.9260    8.1640 C.3   1451  GOX1451     0.2377
     13  O6        -1.7790    8.6990    8.4330 O.3   1451  GOX1451    -0.2155
@<TRIPOS>BOND
     1    10     9    1
     2     8     7    1
     3     9     7    1
     4     9    11    1
     5     7     3    1
     6    12    13    1
     7    12    11    1
     8    11     4    1
     9     3     6    1
    10     3     1    1
    11     4     1    2
    12     1     2    1
    13     2     5    1
