@<TRIPOS>MOLECULE
2j79_GTL_A_1.pdb
 13 13 0 0 0
SMALL
GASTEIGER

@<TRIPOS>ATOM
      1  C1        -1.0040   10.7130   10.5590 C.2   1446  GTL1446     0.4163
      2  N1        -0.6590   10.3720   11.8000 N.4   1446  GTL1446     0.1455
      3  C2         0.0820   11.4610    9.7580 C.3   1446  GTL1446     0.2978
      4  N5        -2.3020   10.3820   10.0750 N.2   1446  GTL1446    -0.0582
      5  O7        -1.4930    9.5120   12.5330 O.3   1446  GTL1446     0.0696
      6  O2         0.4940   12.6670   10.3580 O.3   1446  GTL1446    -0.2066
      7  C3        -0.4750   11.8970    8.4000 C.3   1446  GTL1446     0.2291
      8  O3         0.6520   12.1630    7.5930 O.3   1446  GTL1446    -0.2168
      9  C4        -1.4350   10.8530    7.7670 C.3   1446  GTL1446     0.2365
     10  O4        -0.6840    9.6660    7.6480 O.3   1446  GTL1446    -0.2155
     11  C5        -2.6640   10.6690    8.6850 C.3   1446  GTL1446     0.2803
     12  C6        -3.6670    9.5670    8.2980 C.3   1446  GTL1446     0.2377
     13  O6        -3.2150    8.2790    8.6280 O.3   1446  GTL1446    -0.2155
@<TRIPOS>BOND
     1     8     7    1
     2    10     9    1
     3     9     7    1
     4     9    11    1
     5    12    13    1
     6    12    11    1
     7     7     3    1
     8    11     4    1
     9     3     6    1
    10     3     1    1
    11     4     1    2
    12     1     2    1
    13     2     5    1
