@<TRIPOS>MOLECULE
2j7a_HEM_A_1.pdb
 43 50 0 0 0
SMALL
GASTEIGER

@<TRIPOS>ATOM
      1 FE         -6.8960   30.1070   70.6280 Fe    1001  HEM1001     0.0000
      2  CHA       -3.9840   29.6590   68.8830 C.2   1001  HEM1001     0.0000
      3  CHB       -7.6800   26.7590   70.2770 C.2   1001  HEM1001     0.0000
      4  CHC       -9.3780   30.3830   72.9790 C.2   1001  HEM1001     0.0000
      5  CHD       -6.4990   33.5030   70.5420 C.2   1001  HEM1001     0.0000
      6  NA        -6.0070   28.5000   69.7770 N.ar  1001  HEM1001     0.0000
      7  C1A       -4.8180   28.5560   69.0390 C.ar  1001  HEM1001     0.0000
      8  C2A       -4.6160   27.2350   68.4600 C.ar  1001  HEM1001     0.0000
      9  C3A       -5.6230   26.4500   68.8500 C.ar  1001  HEM1001     0.0000
     10  C4A       -6.5180   27.2190   69.6870 C.ar  1001  HEM1001     0.0000
     11  CMA       -5.8010   24.9610   68.4800 C.3   1001  HEM1001     0.0000
     12  CAA       -3.4330   26.8100   67.5690 C.3   1001  HEM1001     0.0000
     13  CBA       -2.1800   26.8290   68.4360 C.3   1001  HEM1001     0.0000
     14  CGA       -2.1840   25.6550   69.3810 C.2   1001  HEM1001     0.0000
     15  O1A       -2.1160   24.4910   68.8960 O.co2 1001  HEM1001     0.0000
     16  O2A       -2.2420   25.8630   70.6190 O.co2 1001  HEM1001     0.0000
     17  NB        -8.3470   28.7970   71.4320 N.2   1001  HEM1001     0.0000
     18  C1B       -8.3900   27.4290   71.2400 C.2   1001  HEM1001     0.0000
     19  C2B       -9.2710   26.8600   72.2360 C.2   1001  HEM1001     0.0000
     20  C3B       -9.7120   27.8750   73.0090 C.2   1001  HEM1001     0.0000
     21  C4B       -9.1570   29.1110   72.5030 C.2   1001  HEM1001     0.0000
     22  CMB       -9.5800   25.3550   72.3840 C.3   1001  HEM1001     0.0000
     23  CAB      -10.6570   27.7780   74.2370 C.2   1001  HEM1001     0.0000
     24  CBB      -10.1790   27.4040   75.4470 C.2   1001  HEM1001     0.0000
     25  NC        -7.7330   31.6470   71.6190 N.ar  1001  HEM1001     0.0000
     26  C1C       -8.8290   31.5510   72.4820 C.ar  1001  HEM1001     0.0000
     27  C2C       -9.2800   32.8980   72.7740 C.ar  1001  HEM1001     0.0000
     28  C3C       -8.4740   33.7490   72.1080 C.ar  1001  HEM1001     0.0000
     29  C4C       -7.4940   32.9840   71.3580 C.ar  1001  HEM1001     0.0000
     30  CMC      -10.4850   33.2750   73.6940 C.3   1001  HEM1001     0.0000
     31  CAC       -8.5640   35.2950   72.1280 C.2   1001  HEM1001     0.0000
     32  CBC       -8.5130   35.9750   73.2940 C.2   1001  HEM1001     0.0000
     33  ND        -5.4380   31.4190   69.8110 N.2   1001  HEM1001     0.0000
     34  C1D       -5.4780   32.8090   69.9400 C.2   1001  HEM1001     0.0000
     35  C2D       -4.2570   33.3720   69.3860 C.2   1001  HEM1001     0.0000
     36  C3D       -3.4690   32.1610   68.8780 C.2   1001  HEM1001     0.0000
     37  C4D       -4.2800   30.9850   69.1810 C.2   1001  HEM1001     0.0000
     38  CMD       -3.8450   34.8560   69.3120 C.3   1001  HEM1001     0.0000
     39  CAD       -2.0890   32.1930   68.1930 C.3   1001  HEM1001     0.0000
     40  CBD       -1.0180   32.5190   69.2390 C.3   1001  HEM1001     0.0000
     41  CGD       -0.5590   31.3240   70.0240 C.2   1001  HEM1001     0.0000
     42  O1D       -1.0970   30.2120   69.8500 O.co2 1001  HEM1001     0.0000
     43  O2D        0.3710   31.4880   70.8510 O.co2 1001  HEM1001     0.0000
@<TRIPOS>BOND
     1    12    13    1
     2    12     8    1
     3    39    36    1
     4    39    40    1
     5    13    14    1
     6     8     9   ar
     7     8     7   ar
     8    11     9    1
     9     9    10   ar
    10    36    37    1
    11    36    35    2
    12     2     7    2
    13     2    37    1
    14    15    14   ar
    15     7     6   ar
    16    37    33    2
    17    40    41    1
    18    38    35    1
    19    14    16   ar
    20    35    34    1
    21    10     6   ar
    22    10     3    2
    23     6     1    1
    24    33    34    1
    25    33     1    1
    26    42    41   ar
    27    34     5    2
    28    41    43   ar
    29     3    18    1
    30     5    29    1
    31     1    17    1
    32     1    25    1
    33    18    17    2
    34    18    19    1
    35    29    25   ar
    36    29    28   ar
    37    17    21    1
    38    25    26   ar
    39    28    31    1
    40    28    27   ar
    41    31    32    2
    42    19    22    1
    43    19    20    2
    44    26    27   ar
    45    26     4    1
    46    21     4    2
    47    21    20    1
    48    27    30    1
    49    20    23    1
    50    23    24    2
