@<TRIPOS>MOLECULE
2j7b_NTZ_A_1.pdb
 14 15 0 0 0
SMALL
GASTEIGER

@<TRIPOS>ATOM
      1  C1        34.3030   24.4830   38.9730 C.ar  1446  NTZ1446     0.1940
      2  C2        35.0210   23.4660   38.1460 C.3   1446  NTZ1446     0.2439
      3  C3        35.2650   24.0260   36.7490 C.3   1446  NTZ1446     0.2217
      4  C4        34.0460   24.8430   36.2670 C.3   1446  NTZ1446     0.2100
      5  C5        33.8810   26.1370   37.1030 C.3   1446  NTZ1446     0.1739
      6  C6        32.6400   26.9400   36.7370 C.3   1446  NTZ1446     0.2091
      7  N1        33.8200   25.6260   38.4860 N.ar  1446  NTZ1446    -0.2113
      8  N17       33.1480   26.3780   39.4370 N.ar  1446  NTZ1446    -0.0430
      9  N18       33.2300   25.6160   40.5920 N.ar  1446  NTZ1446    -0.0229
     10  N21       33.9810   24.4530   40.2830 N.ar  1446  NTZ1446    -0.1100
     11  O2        36.2560   23.0390   38.7230 O.3   1446  NTZ1446    -0.2120
     12  O3        35.5150   22.9010   35.8850 O.3   1446  NTZ1446    -0.2171
     13  O4        34.2130   25.2280   34.9140 O.3   1446  NTZ1446    -0.2181
     14  O6        31.4470   26.1970   37.0270 O.3   1446  NTZ1446    -0.2182
@<TRIPOS>BOND
     1    13     4    1
     2    12     3    1
     3     4     3    1
     4     4     5    1
     5     6    14    1
     6     6     5    1
     7     3     2    1
     8     5     7    1
     9     2    11    1
    10     2     1    1
    11     7     1   ar
    12     7     8   ar
    13     1    10   ar
    14     8     9   ar
    15    10     9   ar
