@<TRIPOS>MOLECULE
2j7c_IDE_A_1.pdb
 22 24 0 0 0
SMALL
GASTEIGER

@<TRIPOS>ATOM
      1  O6B       -2.9320    8.0380    8.5930 O.3   1446  IDE1446    -0.2185
      2  C6B       -3.4480    9.3330    8.2700 C.3   1446  IDE1446     0.2044
      3  C5B       -2.4950   10.4410    8.6700 C.3   1446  IDE1446     0.1410
      4  C4B       -1.2510   10.5590    7.7960 C.3   1446  IDE1446     0.2057
      5  O4B       -1.5750   10.6840    6.3980 O.3   1446  IDE1446    -0.2184
      6  C3B       -0.3970   11.7440    8.3250 C.3   1446  IDE1446     0.2222
      7  O3B        0.7250   12.0160    7.4920 O.3   1446  IDE1446    -0.2171
      8  C2B        0.1590   11.4950    9.7240 C.3   1446  IDE1446     0.2504
      9  O2B        0.5210   12.7370   10.3730 O.3   1446  IDE1446    -0.2111
     10  N1B       -1.9710   10.1610   10.0230 N.pl3 1446  IDE1446    -0.2751
     11  C8B       -2.5270    9.3750   10.9500 C.3   1446  IDE1446     0.1495
     12  C7B       -1.6880    9.3920   12.0550 C.2   1446  IDE1446     0.1297
     13  N2B       -0.6340   10.1720   11.7340 N.2   1446  IDE1446    -0.3939
     14  C1B       -0.8010   10.6420   10.4870 C.2   1446  IDE1446     0.1930
     15  C7        -1.9310    8.6700   13.3590 C.3   1446  IDE1446     0.1679
     16  N1        -0.8170    7.7750   13.6810 N.pl3 1446  IDE1446    -0.2303
     17  C1        -0.2640    6.8760   12.7960 C.ar  1446  IDE1446     0.0658
     18  C6         0.7820    7.2550   11.9300 C.ar  1446  IDE1446     0.0161
     19  C5         1.3340    6.3290   11.0330 C.ar  1446  IDE1446     0.0013
     20  C4         0.8690    5.0160   10.9780 C.ar  1446  IDE1446     0.0001
     21  C3        -0.1700    4.6340   11.8360 C.ar  1446  IDE1446     0.0013
     22  C2        -0.7330    5.5560   12.7380 C.ar  1446  IDE1446     0.0161
@<TRIPOS>BOND
     1     5     4    1
     2     7     6    1
     3     4     6    1
     4     4     3    1
     5     2     1    1
     6     2     3    1
     7     6     8    1
     8     3    10    1
     9     8     9    1
    10     8    14    1
    11    10    14    1
    12    10    11    1
    13    14    13    2
    14    11    12    1
    15    20    19   ar
    16    20    21   ar
    17    19    18   ar
    18    13    12    2
    19    21    22   ar
    20    18    17   ar
    21    12    15    1
    22    22    17   ar
    23    17    16    1
    24    15    16    1
