@<TRIPOS>MOLECULE
2j7d_GI1_A_1.pdb
 18 19 0 0 0
SMALL
GASTEIGER

@<TRIPOS>ATOM
      1  C1        -0.8960   10.5930   10.5900 C.2   1446  GI11446     0.1931
      2  C2         0.0790   11.3970    9.8090 C.3   1446  GI11446     0.2504
      3  O2         0.3250   12.6490   10.4320 O.3   1446  GI11446    -0.2111
      4  C3        -0.4530   11.6990    8.4080 C.3   1446  GI11446     0.2222
      5  O3         0.6740   11.9900    7.5790 O.3   1446  GI11446    -0.2171
      6  C4        -1.3380   10.5470    7.8970 C.3   1446  GI11446     0.2057
      7  C80       -2.6760    9.4050   11.1250 C.3   1446  GI11446     0.1530
      8  N10       -2.1030   10.1490   10.1590 N.pl3 1446  GI11446    -0.2750
      9  O4        -1.6680   10.6890    6.5180 O.3   1446  GI11446    -0.2184
     10  C5        -2.6030   10.4470    8.7850 C.3   1446  GI11446     0.1410
     11  C6        -3.5510    9.3730    8.3240 C.3   1446  GI11446     0.2044
     12  O6        -3.0290    8.0670    8.5650 O.3   1446  GI11446    -0.2185
     13  N1        -0.7000   10.1480   11.8460 N.2   1446  GI11446    -0.3906
     14  C7        -1.7760    9.4130   12.1750 C.2   1446  GI11446     0.1666
     15  C8        -2.1320    8.7220   13.4410 C.3   1446  GI11446     0.3198
     16  O8        -2.8830    7.5150   13.2500 O.3   1446  GI11446    -0.1820
     17  C9        -0.1880    7.3170   14.0820 C.3   1446  GI11446     0.1773
     18  O9        -0.9590    8.5300   14.2460 O.3   1446  GI11446    -0.3208
@<TRIPOS>BOND
     1     9     6    1
     2     5     4    1
     3     6     4    1
     4     6    10    1
     5    11    12    1
     6    11    10    1
     7     4     2    1
     8    10     8    1
     9     2     3    1
    10     2     1    1
    11     8     1    1
    12     8     7    1
    13     1    13    2
    14     7    14    1
    15    13    14    2
    16    14    15    1
    17    16    15    1
    18    15    18    1
    19    17    18    1
