@<TRIPOS>MOLECULE
2j7e_GI2_A_1.pdb
 19 20 0 0 0
SMALL
GASTEIGER

@<TRIPOS>ATOM
      1  C1        -1.6080    8.8230   13.6050 C.3   1446  GI21446     0.1655
      2  C2        -0.5400    7.7680   13.7940 C.2   1446  GI21446     0.3240
      3  C4         0.4590    6.0810   15.1020 C.3   1446  GI21446     0.2556
      4  C1B       -0.6490   10.6230   10.5800 C.2   1446  GI21446     0.1929
      5  C2B        0.2760   11.4620    9.6810 C.3   1446  GI21446     0.2504
      6  C3B       -0.3370   11.7040    8.3010 C.3   1446  GI21446     0.2222
      7  C4B       -1.2340   10.5090    7.8680 C.3   1446  GI21446     0.2057
      8  C5B       -2.4210   10.3920    8.8390 C.3   1446  GI21446     0.1410
      9  C6B       -3.4050    9.3070    8.4490 C.3   1446  GI21446     0.2044
     10  O2B        0.5560   12.7200   10.2880 O.3   1446  GI21446    -0.2111
     11  O3B        0.7340   11.9810    7.4100 O.3   1446  GI21446    -0.2171
     12  O4B       -1.7040   10.6370    6.5310 O.3   1446  GI21446    -0.2184
     13  N1B       -1.8940   10.1120   10.1860 N.pl3 1446  GI21446    -0.2752
     14  O6B       -2.8380    8.0000    8.5580 O.3   1446  GI21446    -0.2185
     15  N2B       -0.4590   10.1820   11.8220 N.2   1446  GI21446    -0.3951
     16  C7B       -1.4940    9.4490   12.2250 C.2   1446  GI21446     0.1192
     17  C8B       -2.3720    9.3950   11.2170 C.3   1446  GI21446     0.1483
     18  O1        -0.2830    7.3260   15.0490 O.3   1446  GI21446    -0.4441
     19  O5         0.0810    7.3100   12.8320 O.2   1446  GI21446    -0.2496
@<TRIPOS>BOND
     1    12     7    1
     2    11     6    1
     3     7     6    1
     4     7     8    1
     5     6     5    1
     6     9    14    1
     7     9     8    1
     8     8    13    1
     9     5    10    1
    10     5     4    1
    11    13     4    1
    12    13    17    1
    13     4    15    2
    14    17    16    1
    15    15    16    2
    16    16     1    1
    17    19     2    2
    18     1     2    1
    19     2    18    1
    20    18     3    1
