@<TRIPOS>MOLECULE
2j7f_GI3_A_1.pdb
 17 18 0 0 0
SMALL
GASTEIGER

@<TRIPOS>ATOM
      1  C1        34.1380   24.1570   38.7180 C.2   1446  GI31446     0.1936
      2  C2        35.0250   23.1910   38.0220 C.3   1446  GI31446     0.2504
      3  O2        36.2280   23.0440   38.8040 O.3   1446  GI31446    -0.2111
      4  C3        35.3170   23.7160   36.6100 C.3   1446  GI31446     0.2222
      5  C80       32.9540   25.9430   39.1670 C.3   1446  GI31446     0.1594
      6  O3        35.6440   22.5790   35.8160 O.3   1446  GI31446    -0.2171
      7  C4        34.1310   24.6110   36.1080 C.3   1446  GI31446     0.2057
      8  N10       33.7460   25.3550   38.2580 N.pl3 1446  GI31446    -0.2747
      9  O4        34.0640   24.9460   34.7060 O.3   1446  GI31446    -0.2184
     10  C5        34.1140   25.8840   36.9380 C.3   1446  GI31446     0.1410
     11  C6        33.0860   26.9090   36.4980 C.3   1446  GI31446     0.2044
     12  O6        31.7510   26.4240   36.6590 O.3   1446  GI31446    -0.2185
     13  N1        33.5970   23.9810   39.9400 N.2   1446  GI31446    -0.3847
     14  C7        32.8710   25.0760   40.2380 C.2   1446  GI31446     0.2093
     15  C8        32.1390   25.3010   41.4940 C.2   1446  GI31446     0.4144
     16  O8        31.1390   25.9920   41.5040 O.co2 1446  GI31446    -0.2380
     17  O9        32.6270   24.7710   42.5960 O.co2 1446  GI31446    -0.2380
@<TRIPOS>BOND
     1     9     7    1
     2     6     4    1
     3     7     4    1
     4     7    10    1
     5    11    12    1
     6    11    10    1
     7     4     2    1
     8    10     8    1
     9     2     1    1
    10     2     3    1
    11     8     1    1
    12     8     5    1
    13     1    13    2
    14     5    14    1
    15    13    14    2
    16    14    15    1
    17    15    16   ar
    18    15    17   ar
