@<TRIPOS>MOLECULE
2j7g_GI4_A_1.pdb
 18 19 0 0 0
SMALL
GASTEIGER

@<TRIPOS>ATOM
      1  C1        -2.0290    9.3280   13.8130 C.3   1446  GI41446     0.1700
      2  C1B       -0.9850   10.7530   10.6690 C.2   1446  GI41446     0.1929
      3  C2B        0.0050   11.5230    9.7990 C.3   1446  GI41446     0.2504
      4  C3B       -0.5790   11.7990    8.4110 C.3   1446  GI41446     0.2222
      5  C4B       -1.3710   10.5560    7.9290 C.3   1446  GI41446     0.2057
      6  C5B       -2.6280   10.3660    8.8320 C.3   1446  GI41446     0.1410
      7  C6B       -3.5440    9.2260    8.4010 C.3   1446  GI41446     0.2044
      8  O2B        0.3680   12.7580   10.4240 O.3   1446  GI41446    -0.2111
      9  O3B        0.5410   12.0790    7.5940 O.3   1446  GI41446    -0.2171
     10  O4B       -1.8180   10.7610    6.6050 O.3   1446  GI41446    -0.2184
     11  N1B       -2.2060   10.1920   10.2360 N.pl3 1446  GI41446    -0.2752
     12  O6B       -2.9030    7.9790    8.6380 O.3   1446  GI41446    -0.2185
     13  N2B       -0.8660   10.4410   11.9350 N.2   1446  GI41446    -0.3951
     14  C7B       -1.9140    9.7170   12.3320 C.2   1446  GI41446     0.1193
     15  C8B       -2.7480    9.5700   11.2990 C.3   1446  GI41446     0.1483
     16  C2        -1.4910    7.9810   14.2360 C.2   1446  GI41446     0.3716
     17  O1        -0.3590    7.6630   13.8490 O.co2 1446  GI41446    -0.2452
     18  O5        -2.2270    7.3170   14.9960 O.co2 1446  GI41446    -0.2452
@<TRIPOS>BOND
     1    10     5    1
     2     9     4    1
     3     5     4    1
     4     5     6    1
     5     7    12    1
     6     7     6    1
     7     4     3    1
     8     6    11    1
     9     3     8    1
    10     3     2    1
    11    11     2    1
    12    11    15    1
    13     2    13    2
    14    15    14    1
    15    13    14    2
    16    14     1    1
    17     1    16    1
    18    17    16   ar
    19    16    18   ar
