@<TRIPOS>MOLECULE
2j7h_AZF_A_1.pdb
 10 10 0 0 0
SMALL
GASTEIGER

@<TRIPOS>ATOM
      1  O4        -1.6300   10.6580    6.7330 O.3   1446  AZF1446    -0.2187
      2  C4        -1.1360   10.6320    8.0810 C.3   1446  AZF1446     0.2036
      3  C3        -0.3170   11.9080    8.4230 C.3   1446  AZF1446     0.2026
      4  O3         0.8150   12.0560    7.5660 O.3   1446  AZF1446    -0.2188
      5  C2         0.1820   11.9810    9.8740 C.3   1446  AZF1446     0.1447
      6  N         -0.8370   11.4630   10.8000 N.3   1446  AZF1446    -0.1285
      7  C5        -2.3020   10.5360    9.0620 C.3   1446  AZF1446     0.1575
      8  C6        -3.2410    9.3710    8.7770 C.3   1446  AZF1446     0.2036
      9  O6        -2.5130    8.1500    8.9590 O.3   1446  AZF1446    -0.2187
     10  N2        -1.6760   10.4190   10.3790 N.3   1446  AZF1446    -0.1274
@<TRIPOS>BOND
     1     1     2    1
     2     4     3    1
     3     2     3    1
     4     2     7    1
     5     3     5    1
     6     8     9    1
     7     8     7    1
     8     7    10    1
     9     5     6    1
    10    10     6    1
