@<TRIPOS>MOLECULE
2j7l_XC2_A_1.pdb
 34 39 0 0 0
SMALL
GASTEIGER

@<TRIPOS>ATOM
      1  S6        32.3580   28.8890   38.1830 S.3   1216  XC21216    -0.0944
      2  C5        30.8860   28.2540   39.0050 C.3   1216  XC21216     0.0978
      3  C11       29.7360   28.5990   38.0410 C.3   1216  XC21216     0.2029
      4  N10       30.2870   28.4150   36.6840 N.ar  1216  XC21216    -0.2815
      5  C6        31.6060   28.5350   36.5840 C.ar  1216  XC21216     0.0847
      6  C7        32.2770   28.4190   35.4010 C.ar  1216  XC21216    -0.0044
      7  C8        31.4480   28.1020   34.1580 C.ar  1216  XC21216    -0.0180
      8  C9        30.0790   27.9720   34.2880 C.ar  1216  XC21216     0.0462
      9  C10       29.4920   28.1440   35.6560 C.ar  1216  XC21216     0.2586
     10  O25       28.2750   28.0260   35.7730 O.2   1216  XC21216    -0.2673
     11  C26       29.1710   27.6600   33.1120 C.3   1216  XC21216     0.1037
     12  N5        29.3860   26.2740   32.6360 N.3   1216  XC21216    -0.2645
     13  C1        28.9940   26.1810   31.2080 C.3   1216  XC21216     0.1049
     14  C2        29.2060   24.7200   30.7100 C.3   1216  XC21216     0.1595
     15  O3        28.4690   23.7920   31.5450 O.3   1216  XC21216    -0.3508
     16  C34       28.8550   23.8610   32.9320 C.3   1216  XC21216     0.1595
     17  C4        28.5930   25.3210   33.4650 C.3   1216  XC21216     0.1049
     18  C24       32.1300   27.9560   32.7880 C.3   1216  XC21216     0.0522
     19  C15       32.6660   26.5150   32.4790 C.ar  1216  XC21216    -0.0178
     20  C20       32.6850   25.4950   33.4940 C.ar  1216  XC21216    -0.0039
     21  C19       33.1700   24.1970   33.2230 C.ar  1216  XC21216    -0.0003
     22  C18       33.6550   23.8760   31.9260 C.ar  1216  XC21216    -0.0000
     23  C17       33.6530   24.8560   30.8920 C.ar  1216  XC21216    -0.0003
     24  C21       34.1420   24.5250   29.5940 C.ar  1216  XC21216    -0.0000
     25  C27       34.1420   25.4990   28.5510 C.ar  1216  XC21216    -0.0000
     26  C28       33.6570   26.8110   28.7970 C.ar  1216  XC21216    -0.0000
     27  C29       33.1660   27.1580   30.0920 C.ar  1216  XC21216    -0.0003
     28  C16       33.1590   26.1880   31.1590 C.ar  1216  XC21216    -0.0036
     29  C22       33.7910   28.5440   35.1750 C.3   1216  XC21216     0.0240
     30  C31       34.2650   30.0150   35.3030 C.3   1216  XC21216     0.0047
     31  C30       34.8880   28.8620   36.1650 C.3   1216  XC21216     0.0047
     32  C23       29.3100   30.0750   38.2480 C.2   1216  XC21216     0.3860
     33  O33       28.7850   30.3840   39.4340 O.co2 1216  XC21216    -0.2435
     34  O32       29.4410   30.9180   37.3720 O.co2 1216  XC21216    -0.2435
@<TRIPOS>BOND
     1    25    26   ar
     2    25    24   ar
     3    26    27   ar
     4    24    23   ar
     5    27    28   ar
     6    14    13    1
     7    14    15    1
     8    23    28   ar
     9    23    22   ar
    10    28    19   ar
    11    13    12    1
    12    15    16    1
    13    22    21   ar
    14    19    18    1
    15    19    20   ar
    16    12    11    1
    17    12    17    1
    18    18     7    1
    19    16    17    1
    20    11     8    1
    21    21    20   ar
    22     7     8   ar
    23     7     6   ar
    24     8     9   ar
    25    29    30    1
    26    29     6    1
    27    29    31    1
    28    30    31    1
    29     6     5   ar
    30     9    10    2
    31     9     4   ar
    32     5     4   ar
    33     5     1    1
    34     4     3    1
    35    34    32   ar
    36     3    32    1
    37     3     2    1
    38     1     2    1
    39    32    33   ar
