@<TRIPOS>MOLECULE
2j7m_GAL_A_1.pdb
 11 11 0 0 0
SMALL
GASTEIGER

@<TRIPOS>ATOM
      1  C1        33.8720   20.5190   19.4410 C.3   1770  GAL1770     0.1777
      2  C2        35.3090   20.4270   19.9910 C.3   1770  GAL1770     0.2141
      3  C3        36.3560   21.0300   19.0540 C.3   1770  GAL1770     0.2173
      4  C4        36.1830   20.4330   17.6640 C.3   1770  GAL1770     0.2142
      5  C5        34.7540   20.7750   17.2230 C.3   1770  GAL1770     0.1810
      6  C6        34.4610   20.3920   15.7940 C.3   1770  GAL1770     0.2141
      7  O2        35.4160   21.0440   21.2610 O.3   1770  GAL1770    -0.2176
      8  O3        37.6530   20.7600   19.5370 O.3   1770  GAL1770    -0.2175
      9  O4        36.4820   19.0400   17.6820 O.3   1770  GAL1770    -0.2176
     10  O5        33.7840   20.1710   18.0630 O.3   1770  GAL1770    -0.3481
     11  O6        33.1050   20.6840   15.5890 O.3   1770  GAL1770    -0.2176
@<TRIPOS>BOND
     1    11     6    1
     2     6     5    1
     3     5     4    1
     4     5    10    1
     5     4     9    1
     6     4     3    1
     7    10     1    1
     8     3     8    1
     9     3     2    1
    10     1     2    1
    11     2     7    1
