@<TRIPOS>MOLECULE
2j7m_NDG_A_1.pdb
 15 15 0 0 0
SMALL
GASTEIGER

@<TRIPOS>ATOM
      1  C1        28.8180   19.5380   20.9230 C.3   1769  NDG1769     0.2917
      2  C2        29.4210   18.4610   20.0020 C.3   1769  NDG1769     0.1871
      3  C3        30.9800   18.4570   20.0120 C.3   1769  NDG1769     0.2095
      4  C4        31.6070   19.8560   19.9530 C.3   1769  NDG1769     0.2136
      5  C5        30.8670   20.8340   20.9010 C.3   1769  NDG1769     0.1835
      6  C6        31.2900   22.2890   20.7100 C.3   1769  NDG1769     0.2142
      7  C7        27.7580   16.6230   19.7680 C.2   1769  NDG1769     0.2421
      8  C8        27.1160   15.4280   20.4190 C.3   1769  NDG1769     0.0964
      9  O         29.4470   20.7950   20.7600 O.3   1769  NDG1769    -0.3242
     10  O3        31.5300   17.6880   18.9530 O.3   1769  NDG1769    -0.2183
     11  O4        32.9960   19.7270   20.2720 O.3   1769  NDG1769    -0.2176
     12  O6        31.7370   22.7850   21.9580 O.3   1769  NDG1769    -0.2176
     13  O7        27.2750   17.0630   18.7200 O.2   1769  NDG1769    -0.2733
     14  N2        28.8350   17.1620   20.3700 N.am  1769  NDG1769    -0.1991
     15  O1L       28.9740   19.1500   22.2650 O.3   1769  NDG1769    -0.1879
@<TRIPOS>BOND
     1    13     7    2
     2    10     3    1
     3     7    14   am
     4     7     8    1
     5     4     3    1
     6     4    11    1
     7     4     5    1
     8     2     3    1
     9     2    14    1
    10     2     1    1
    11     6     5    1
    12     6    12    1
    13     9     5    1
    14     9     1    1
    15     1    15    1
