@<TRIPOS>MOLECULE
2j7p_GNP_A_1.pdb
 32 34 0 0 0
SMALL
GASTEIGER

@<TRIPOS>ATOM
      1  PG         6.2620   21.6180   32.2790 P.3   1400  GNP1400     0.4884
      2  O1G        5.7240   21.1070   30.9710 O.2   1400  GNP1400    -0.2331
      3  O2G        7.5560   22.3540   32.1510 O.3   1400  GNP1400    -0.1240
      4  O3G        6.2810   20.5260   33.2800 O.3   1400  GNP1400    -0.1240
      5  N3B        5.1070   22.6960   32.8670 N.3   1400  GNP1400    -0.0163
      6  PB         4.3710   23.8660   31.9080 P.3   1400  GNP1400     0.4669
      7  O1B        5.3850   24.9580   31.7070 O.3   1400  GNP1400    -0.1253
      8  O2B        3.7900   23.2800   30.6720 O.2   1400  GNP1400    -0.2351
      9  O3A        3.2190   24.4550   32.8300 O.3   1400  GNP1400    -0.2360
     10  PA         1.6380   24.0820   32.8570 P.3   1400  GNP1400     0.2220
     11  O1A        0.9560   24.5550   31.6190 O.2   1400  GNP1400    -0.5170
     12  O2A        1.5920   22.6690   33.3100 O.3   1400  GNP1400    -0.4370
     13  O5'        1.2360   25.0890   34.0290 O.3   1400  GNP1400    -0.3111
     14  C5'        1.7490   24.9940   35.3690 C.3   1400  GNP1400     0.1813
     15  C4'        0.6280   25.3680   36.3550 C.3   1400  GNP1400     0.1799
     16  O4'        0.4610   26.7800   36.3020 O.3   1400  GNP1400    -0.3326
     17  C3'       -0.6900   24.7480   35.9310 C.3   1400  GNP1400     0.2158
     18  O3'       -1.2770   24.4670   37.2200 O.3   1400  GNP1400    -0.2175
     19  C2'       -1.5610   25.8510   35.3740 C.3   1400  GNP1400     0.2310
     20  O2'       -2.9260   25.7240   35.6140 O.3   1400  GNP1400    -0.2158
     21  C1'       -0.8500   27.1190   35.8450 C.3   1400  GNP1400     0.2293
     22  N9        -0.8170   28.3190   35.0070 N.pl3 1400  GNP1400    -0.2354
     23  C8        -0.3090   28.5160   33.7620 C.3   1400  GNP1400     0.2246
     24  N7        -0.4640   29.8170   33.3560 N.2   1400  GNP1400    -0.2322
     25  C5        -1.0560   30.4630   34.3830 C.2   1400  GNP1400     0.2182
     26  C6        -1.5330   31.8110   34.7320 C.1   1400  GNP1400     0.2372
     27  O6        -1.4150   32.7410   33.9190 O.2   1400  GNP1400    -0.2069
     28  N1        -2.1050   32.0160   35.9110 N.2   1400  GNP1400    -0.2485
     29  C2        -2.2820   31.0720   36.8580 C.1   1400  GNP1400     0.2531
     30  N2        -2.8620   31.4340   38.0180 N.pl3 1400  GNP1400    -0.0226
     31  N3        -1.9180   29.7900   36.6790 N.2   1400  GNP1400    -0.3074
     32  C4        -1.2640   29.4830   35.4270 C.2   1400  GNP1400     0.2300
@<TRIPOS>BOND
     1     8     6    2
     2     2     1    2
     3    11    10    2
     4     7     6    1
     5     6     9    1
     6     6     5    1
     7     3     1    1
     8     1     5    1
     9     1     4    1
    10     9    10    1
    11    10    12    1
    12    10    13    1
    13    24    23    1
    14    24    25    2
    15    23    22    1
    16    27    26    2
    17    13    14    1
    18    25    26    1
    19    25    32    1
    20    26    28    2
    21    22    32    1
    22    22    21    1
    23    14    15    1
    24    19    20    1
    25    19    21    1
    26    19    17    1
    27    32    31    2
    28    21    16    1
    29    28    29    2
    30    17    15    1
    31    17    18    1
    32    16    15    1
    33    31    29    2
    34    29    30    1
