@<TRIPOS>MOLECULE
2j7t_274_A_1.pdb
 39 43 0 0 0
SMALL
GASTEIGER

@<TRIPOS>ATOM
      1  C22       -0.9910   33.8400   20.6400 C.2   1324  2741324     0.2510
      2  O4        -1.1150   32.6180   20.5860 O.2   1324  2741324    -0.2698
      3  C19       -2.2030   34.7370   20.9730 C.2   1324  2741324     0.0771
      4  C18       -3.2940   34.9350   20.1450 C.2   1324  2741324     0.0104
      5  C21       -3.4920   34.2950   18.7600 C.3   1324  2741324     0.0336
      6  C20       -2.4190   35.4970   22.1270 C.2   1324  2741324     0.1131
      7  C23       -1.5220   35.5440   23.1900 C.3   1324  2741324     0.0665
      8  N3        -3.5890   36.1090   21.9790 N.2   1324  2741324    -0.4104
      9  C17       -4.1630   35.8080   20.8020 C.2   1324  2741324     0.1100
     10  C16       -5.3670   36.2030   20.2090 C.3   1324  2741324     0.0978
     11  C14       -6.4940   36.6750   20.8900 C.2   1324  2741324     0.0820
     12  C12       -7.7600   36.7890   20.3330 C.ar  1324  2741324     0.0402
     13  C9        -8.2830   36.5200   19.0760 C.ar  1324  2741324     0.0232
     14  C15       -6.6070   37.1150   22.2020 C.1   1324  2741324     0.2010
     15  O3        -5.7250   37.1910   23.0530 O.2   1324  2741324    -0.2096
     16  N2        -7.8530   37.4750   22.4400 N.2   1324  2741324    -0.3331
     17  C13       -8.5820   37.2850   21.3390 C.ar  1324  2741324     0.1448
     18  C11       -9.9280   37.4970   21.0910 C.ar  1324  2741324     0.0344
     19  C10      -10.4550   37.2170   19.8430 C.ar  1324  2741324     0.0228
     20  C8        -9.6370   36.7300   18.8310 C.ar  1324  2741324     0.1256
     21  S1       -10.3180   36.4090   17.2440 S.O2  1324  2741324     0.0766
     22  O1        -9.5990   35.2460   16.6150 O.2   1324  2741324    -0.1497
     23  O2       -11.7740   36.1170   17.3660 O.2   1324  2741324    -0.1497
     24  N1        -9.9470   37.7480   16.2590 N.pl3 1324  2741324    -0.1888
     25  C7        -8.9830   37.5840   15.1590 C.3   1324  2741324     0.1392
     26  C3       -10.4720   38.9810   16.4430 C.ar  1324  2741324     0.0697
     27  C1       -11.6050   39.3380   15.7300 C.ar  1324  2741324     0.0275
     28  C2       -12.1630   40.5930   15.9000 C.ar  1324  2741324     0.0590
     29 CL1       -13.5860   40.9640   15.0020 Cl    1324  2741324    -0.0822
     30  C4       -11.5950   41.5180   16.7710 C.ar  1324  2741324     0.0115
     31  C5       -10.4500   41.1710   17.4860 C.ar  1324  2741324     0.0022
     32  C6        -9.8830   39.9100   17.3120 C.ar  1324  2741324     0.0162
     33  C24        1.3530   33.6180   19.9140 C.3   1324  2741324     0.1110
     34  C27        2.6330   34.2180   20.5070 C.3   1324  2741324     0.0939
     35  N5         2.6850   35.6740   20.2820 N.3   1324  2741324    -0.2686
     36  C28        3.9400   36.1840   20.8570 C.3   1324  2741324     0.0897
     37  C26        1.5620   36.2900   21.0050 C.3   1324  2741324     0.0939
     38  C25        0.2620   35.9010   20.3080 C.3   1324  2741324     0.1110
     39  N4         0.1620   34.4200   20.2930 N.am  1324  2741324    -0.2732
@<TRIPOS>BOND
     1    29    28    1
     2    25    24    1
     3    27    28   ar
     4    27    26   ar
     5    28    30   ar
     6    24    26    1
     7    24    21    1
     8    26    32   ar
     9    22    21    2
    10    30    31   ar
    11    21    23    2
    12    21    20    1
    13    32    31   ar
    14     5     4    1
    15    20    13   ar
    16    20    19   ar
    17    13    12   ar
    18    19    18   ar
    19    33    39    1
    20    33    34    1
    21     4     9    1
    22     4     3    2
    23    10     9    1
    24    10    11    1
    25    35    34    1
    26    35    36    1
    27    35    37    1
    28    39    38    1
    29    39     1   am
    30    38    37    1
    31    12    11    2
    32    12    17   ar
    33     2     1    2
    34     1     3    1
    35     9     8    2
    36    11    14    1
    37     3     6    1
    38    18    17   ar
    39    17    16    2
    40     8     6    2
    41     6     7    1
    42    14    16    2
    43    14    15    2
