@<TRIPOS>MOLECULE
2j7w_GTP_A_1.pdb
 13 12 0 0 0
SMALL
GASTEIGER

@<TRIPOS>ATOM
      1  PG        19.5690   68.4070   13.1810 P.3   1886  GTP1886     0.5373
      2  O1G       19.3460   69.8550   13.5550 O.3   1886  GTP1886    -0.1143
      3  O2G       18.8920   67.8560   11.9480 O.2   1886  GTP1886    -0.2221
      4  O3G       21.1640   68.1440   13.1600 O.3   1886  GTP1886    -0.1143
      5  O3B       19.1390   67.4990   14.4390 O.3   1886  GTP1886    -0.2257
      6  PB        19.0940   65.8820   14.4470 P.3   1886  GTP1886     0.2317
      7  O1B       18.4750   65.3780   13.1640 O.2   1886  GTP1886    -0.5167
      8  O2B       20.4370   65.3570   14.9200 O.3   1886  GTP1886    -0.4368
      9  O3A       17.9900   65.6550   15.5940 O.3   1886  GTP1886    -0.2257
     10  PA        16.8050   66.7350   15.7760 P.3   1886  GTP1886     0.5373
     11  O1A       17.4470   67.9020   16.4990 O.3   1886  GTP1886    -0.1143
     12  O2A       16.3640   67.0410   14.3610 O.2   1886  GTP1886    -0.2221
     13  O5'       15.7780   65.9950   16.6000 O.3   1886  GTP1886    -0.1143
@<TRIPOS>BOND
     1     3     1    2
     2     4     1    1
     3     7     6    2
     4     1     2    1
     5     1     5    1
     6    12    10    2
     7     5     6    1
     8     6     8    1
     9     6     9    1
    10     9    10    1
    11    10    11    1
    12    10    13    1
