@<TRIPOS>MOLECULE
2j7x_EST_A_1.pdb
 20 23 0 0 0
SMALL
GASTEIGER

@<TRIPOS>ATOM
      1  C1        50.3610   31.3800   79.3660 C.ar  1454  EST1454    -0.0013
      2  C2        51.0470   32.3200   80.1530 C.ar  1454  EST1454     0.0417
      3  C3        51.6670   33.4430   79.5740 C.ar  1454  EST1454     0.1954
      4  O3        52.3070   34.3290   80.3980 O.3   1454  EST1454    -0.2866
      5  C4        51.6170   33.6210   78.1890 C.ar  1454  EST1454     0.0375
      6  C5        50.9550   32.6910   77.3540 C.ar  1454  EST1454    -0.0230
      7  C6        50.9070   32.8990   75.8520 C.3   1454  EST1454     0.0261
      8  C7        50.5480   31.6030   75.1140 C.3   1454  EST1454     0.0050
      9  C8        49.2480   31.0270   75.6980 C.3   1454  EST1454     0.0044
     10  C9        49.5470   30.4930   77.1110 C.3   1454  EST1454     0.0220
     11  C10       50.2650   31.5150   77.9730 C.ar  1454  EST1454    -0.0263
     12  C11       48.2330   29.9840   77.7130 C.3   1454  EST1454     0.0044
     13  C12       47.6230   28.8520   76.8540 C.3   1454  EST1454     0.0028
     14  C13       47.3450   29.3400   75.4350 C.3   1454  EST1454     0.0282
     15  C14       48.6650   29.8620   74.8790 C.3   1454  EST1454     0.0028
     16  C15       48.3690   30.0280   73.3980 C.3   1454  EST1454     0.0027
     17  C16       47.4060   28.8730   73.0710 C.3   1454  EST1454     0.0329
     18  C17       46.9670   28.2630   74.4140 C.3   1454  EST1454     0.1519
     19  O17       45.5580   27.9440   74.4380 O.3   1454  EST1454    -0.2232
     20  C18       46.2600   30.4400   75.4350 C.3   1454  EST1454     0.0025
@<TRIPOS>BOND
     1    17    16    1
     2    17    18    1
     3    16    15    1
     4    18    19    1
     5    18    14    1
     6    15    14    1
     7    15     9    1
     8     8     9    1
     9     8     7    1
    10    20    14    1
    11    14    13    1
    12     9    10    1
    13     7     6    1
    14    13    12    1
    15    10    12    1
    16    10    11    1
    17     6    11   ar
    18     6     5   ar
    19    11     1   ar
    20     5     3   ar
    21     1     2   ar
    22     3     2   ar
    23     3     4    1
