@<TRIPOS>MOLECULE
2j7y_E3O_A_1.pdb
 21 24 0 0 0
SMALL
GASTEIGER

@<TRIPOS>ATOM
      1  C2        49.7830   31.9000   76.2760 C.3   1454  E3O1454     0.0220
      2  C3        50.4290   31.8970   74.8960 C.3   1454  E3O1454     0.0044
      3  C4        49.5510   31.2760   73.8090 C.3   1454  E3O1454     0.0029
      4  C5        49.1450   29.8680   74.2640 C.3   1454  E3O1454     0.0308
      5  C6        50.3860   28.9680   74.3150 C.3   1454  E3O1454     0.0026
      6  C7        48.0930   29.1700   73.4030 C.3   1454  E3O1454     0.1819
      7  O1        47.0650   30.0820   73.0190 O.3   1454  E3O1454    -0.2204
      8  C8        47.5330   28.0790   74.3380 C.3   1454  E3O1454     0.1821
      9  O2        46.1110   27.9650   74.2300 O.3   1454  E3O1454    -0.2204
     10  C9        47.8970   28.4930   75.7650 C.3   1454  E3O1454     0.0356
     11  C10       48.4480   29.9240   75.6110 C.3   1454  E3O1454     0.0054
     12  C12       49.3460   30.4820   76.7230 C.3   1454  E3O1454     0.0045
     13  C14       48.6870   30.5540   78.0810 C.3   1454  E3O1454     0.0050
     14  C15       49.6690   30.9490   79.1890 C.3   1454  E3O1454     0.0261
     15  C16       50.5210   32.1570   78.7970 C.ar  1454  E3O1454    -0.0230
     16  C17       51.2310   32.8500   79.7450 C.ar  1454  E3O1454     0.0375
     17  C18       52.0110   33.9680   79.3860 C.ar  1454  E3O1454     0.1954
     18  O3        52.6850   34.6570   80.3410 O.3   1454  E3O1454    -0.2866
     19  C19       52.0590   34.3770   78.0560 C.ar  1454  E3O1454     0.0417
     20  C20       51.3660   33.7260   77.0470 C.ar  1454  E3O1454    -0.0013
     21  C21       50.6010   32.6040   77.3390 C.ar  1454  E3O1454    -0.0263
@<TRIPOS>BOND
     1     7     6    1
     2     6     4    1
     3     6     8    1
     4     3     4    1
     5     3     2    1
     6     9     8    1
     7     4     5    1
     8     4    11    1
     9     8    10    1
    10     2     1    1
    11    11    10    1
    12    11    12    1
    13     1    12    1
    14     1    21    1
    15    12    13    1
    16    20    21   ar
    17    20    19   ar
    18    21    15   ar
    19    19    17   ar
    20    13    14    1
    21    15    14    1
    22    15    16   ar
    23    17    16   ar
    24    17    18    1
