@<TRIPOS>MOLECULE
2j80_FLC_A_1.pdb
 13 12 0 0 0
SMALL
GASTEIGER

@<TRIPOS>ATOM
      1  CAC       26.6870   28.9040  -11.2230 C.2   1133  FLC1133     0.3680
      2  CA        26.4140   27.4680  -11.6580 C.3   1133  FLC1133     0.1560
      3  CB        27.6830   26.8370  -12.2320 C.3   1133  FLC1133     0.2402
      4  CBC       28.1330   27.6220  -13.4970 C.2   1133  FLC1133     0.3927
      5  CG        27.3500   25.3620  -12.5390 C.3   1133  FLC1133     0.1560
      6  CGC       28.5280   24.4820  -12.8620 C.2   1133  FLC1133     0.3680
      7  OA1       26.7000   29.1660   -9.9920 O.co2 1133  FLC1133    -0.2455
      8  OA2       26.9380   29.8210  -12.0550 O.co2 1133  FLC1133    -0.2455
      9  OB1       27.3970   27.6850  -14.5390 O.co2 1133  FLC1133    -0.2429
     10  OB2       29.2480   28.2230  -13.5010 O.co2 1133  FLC1133    -0.2429
     11  OG1       28.3820   23.2100  -12.7850 O.co2 1133  FLC1133    -0.2455
     12  OG2       29.6390   25.0030  -13.1940 O.co2 1133  FLC1133    -0.2455
     13  OHB       28.7020   26.9080  -11.1690 O.3   1133  FLC1133    -0.2129
@<TRIPOS>BOND
     1     9     4   ar
     2    10     4   ar
     3     4     3    1
     4    12     6   ar
     5     6    11   ar
     6     6     5    1
     7     5     3    1
     8     3     2    1
     9     3    13    1
    10     8     1   ar
    11     2     1    1
    12     1     7   ar
