@<TRIPOS>MOLECULE
2j83_BAT_A_1.pdb
 32 33 0 0 0
SMALL
GASTEIGER

@<TRIPOS>ATOM
      1  C1        25.7170   48.9420   99.0180 C.3   996  BAT996      0.0651
      2  C2        24.9690   47.6350   99.2020 C.2   996  BAT996      0.0878
      3  C3        27.1960   48.6780   98.6970 C.3   996  BAT996      0.0694
      4  C4        29.4320   47.2100   99.3910 C.ar  996  BAT996      0.0546
      5  C5        30.6700   47.7160   99.7270 C.ar  996  BAT996      0.0132
      6  C6        31.6250   46.9970   99.0330 C.ar  996  BAT996      0.0080
      7  C7        31.0940   46.0040   98.2180 C.ar  996  BAT996      0.0359
      8  C8        25.0010   49.8430   97.9940 C.3   996  BAT996      0.0850
      9  C9        23.5370   50.0930   98.3930 C.3   996  BAT996      0.0096
     10  C10       22.6700   50.6100   97.2500 C.3   996  BAT996      0.0005
     11  C11       22.6350   52.1330   97.2330 C.3   996  BAT996      0.0000
     12  C12       21.2470   50.0750   97.3190 C.3   996  BAT996      0.0000
     13  C13       25.7030   51.1740   97.8650 C.2   996  BAT996      0.2417
     14  C14       27.0760   52.6360   96.4240 C.3   996  BAT996      0.1770
     15  C15       26.3740   53.9710   96.3550 C.2   996  BAT996      0.2616
     16  C16       26.8040   56.3670   96.7760 C.3   996  BAT996      0.1386
     17  C17       27.9710   52.4180   95.1970 C.3   996  BAT996      0.0574
     18  C18       28.9160   51.2690   95.4920 C.ar  996  BAT996     -0.0200
     19  C19       30.0460   51.4740   96.2880 C.ar  996  BAT996     -0.0042
     20  C20       30.9100   50.4170   96.5760 C.ar  996  BAT996     -0.0003
     21  C21       30.6390   49.1460   96.0680 C.ar  996  BAT996     -0.0000
     22  C22       29.5120   48.9330   95.2690 C.ar  996  BAT996     -0.0003
     23  C23       28.6530   50.0000   94.9850 C.ar  996  BAT996     -0.0042
     24  N1        24.3680   47.4860  100.3700 N.am  996  BAT996     -0.2029
     25  N2        26.1770   51.4980   96.6530 N.am  996  BAT996     -0.1974
     26  N3        26.9600   54.9510   97.0540 N.am  996  BAT996     -0.2021
     27  O1        24.9120   46.7780   98.3290 O.2   996  BAT996     -0.5395
     28  O2        23.7010   46.2970  100.6560 O.3   996  BAT996     -0.4026
     29  O3        25.7880   51.9040   98.8450 O.2   996  BAT996     -0.2733
     30  O4        25.3450   54.1150   95.7130 O.2   996  BAT996     -0.2715
     31  S1        27.9600   47.8540  100.0630 S.3   996  BAT996     -0.1068
     32  S2        29.3420   45.8920   98.2710 S.2   996  BAT996     -0.0802
@<TRIPOS>BOND
     1    23    22   ar
     2    23    18   ar
     3    17    18    1
     4    17    14    1
     5    22    21   ar
     6    18    19   ar
     7    30    15    2
     8    21    20   ar
     9    19    20   ar
    10    15    14    1
    11    15    26   am
    12    14    25    1
    13    25    13   am
    14    16    26    1
    15    11    10    1
    16    10    12    1
    17    10     9    1
    18    13     8    1
    19    13    29    2
    20     8     9    1
    21     8     1    1
    22     7    32   ar
    23     7     6   ar
    24    32     4   ar
    25    27     2    2
    26     3     1    1
    27     3    31    1
    28     1     2    1
    29     6     5   ar
    30     2    24   am
    31     4     5   ar
    32     4    31    1
    33    24    28    1
