@<TRIPOS>MOLECULE
2j87_TTP_A_1.pdb
 29 30 0 0 0
SMALL
GASTEIGER

@<TRIPOS>ATOM
      1  PA        -8.6000  -10.6670  -15.0020 P.3   300  TTP300      0.2189
      2  O1A       -9.7920  -10.8910  -14.1020 O.3   300  TTP300     -0.4371
      3  O2A       -7.3770  -10.0670  -14.3230 O.2   300  TTP300     -0.5170
      4  O3A       -9.0520   -9.7060  -16.2010 O.3   300  TTP300     -0.2700
      5  PB        -9.7550   -8.3250  -15.7660 P.3   300  TTP300      0.2277
      6  O1B       -8.7270   -7.3160  -15.2890 O.3   300  TTP300     -0.4368
      7  O2B      -10.6430   -7.7640  -16.8540 O.2   300  TTP300     -0.5168
      8  O3B      -10.6840   -8.7800  -14.5530 O.3   300  TTP300     -0.2258
      9  PG       -11.6690   -7.6590  -14.0300 P.3   300  TTP300      0.5373
     10  O1G      -11.0700   -6.2960  -14.2960 O.3   300  TTP300     -0.1143
     11  O2G      -11.8430   -7.9270  -12.5500 O.3   300  TTP300     -0.1143
     12  O3G      -12.9470   -7.7870  -14.8300 O.2   300  TTP300     -0.2221
     13  O5'       -8.2510  -12.0550  -15.7030 O.3   300  TTP300     -0.3112
     14  C5'       -7.1870  -12.8540  -15.2150 C.3   300  TTP300      0.1812
     15  C4'       -7.0490  -14.0650  -16.1160 C.3   300  TTP300      0.1773
     16  O4'       -6.4370  -15.1080  -15.3610 O.3   300  TTP300     -0.3339
     17  C3'       -8.3950  -14.5820  -16.6350 C.3   300  TTP300      0.1857
     18  O3'       -8.5200  -14.4770  -18.0710 O.3   300  TTP300     -0.2203
     19  C2'       -8.4630  -16.0380  -16.2120 C.3   300  TTP300      0.0874
     20  C1'       -7.0850  -16.3540  -15.6370 C.3   300  TTP300      0.2090
     21  N1        -7.1990  -17.1420  -14.4130 N.am  300  TTP300     -0.1794
     22  C2        -6.3650  -18.2720  -14.1880 C.1   300  TTP300      0.2844
     23  O2        -5.5280  -18.6110  -15.0390 O.2   300  TTP300     -0.1918
     24  N3        -6.4440  -19.0030  -13.0710 N.2   300  TTP300     -0.2455
     25  C4        -7.3380  -18.6770  -12.1310 C.1   300  TTP300      0.2134
     26  O4        -7.4200  -19.3600  -11.0910 O.2   300  TTP300     -0.2088
     27  C5        -8.2300  -17.4950  -12.3360 C.2   300  TTP300      0.0891
     28  C5M       -9.2540  -17.0700  -11.3130 C.3   300  TTP300      0.0462
     29  C6        -8.1030  -16.7650  -13.5060 C.2   300  TTP300      0.0877
@<TRIPOS>BOND
     1    18    17    1
     2     7     5    2
     3    17    19    1
     4    17    15    1
     5    19    20    1
     6     4     5    1
     7     4     1    1
     8    15    16    1
     9    15    14    1
    10     5     6    1
    11     5     8    1
    12    13    14    1
    13    13     1    1
    14    20    16    1
    15    20    21    1
    16    23    22    2
    17     1     3    2
    18     1     2    1
    19    12     9    2
    20     8     9    1
    21    21    22   am
    22    21    29    1
    23    10     9    1
    24    22    24    2
    25     9    11    1
    26    29    27    2
    27    24    25    2
    28    27    25    1
    29    27    28    1
    30    25    26    2
