@<TRIPOS>MOLECULE
2j8c_SPO_M_1.pdb
 42 41 0 0 0
SMALL
GASTEIGER

@<TRIPOS>ATOM
      1  CM1       42.7930   82.6420   55.5650 C.3   1310  SPO1310     0.1739
      2  O1        43.7680   83.5760   55.0980 O.3   1310  SPO1310    -0.3559
      3  C1        44.5030   83.3610   53.8880 C.3   1310  SPO1310     0.0933
      4  C2        43.8360   82.3160   52.9900 C.3   1310  SPO1310     0.0296
      5  C3        45.9330   82.9340   54.2070 C.3   1310  SPO1310     0.0296
      6  C4        44.4970   84.6670   53.1360 C.3   1310  SPO1310     0.0319
      7  C5        43.0490   85.0500   52.9000 C.3   1310  SPO1310     0.0278
      8  C6        42.7040   85.6180   51.6140 C.2   1310  SPO1310    -0.0342
      9  C7        41.5370   86.4980   51.4640 C.2   1310  SPO1310    -0.0438
     10  C8        40.4790   86.5990   52.5270 C.3   1310  SPO1310     0.0264
     11  C9        41.4880   87.2780   50.2280 C.3   1310  SPO1310     0.0476
     12  C10       40.2230   87.7590   49.7030 C.2   1310  SPO1310    -0.0221
     13  C11       40.2800   88.4130   48.4210 C.2   1310  SPO1310    -0.0088
     14  C12       39.0990   89.1490   47.9470 C.2   1310  SPO1310    -0.0261
     15  C13       37.9130   89.3390   48.8400 C.3   1310  SPO1310     0.0307
     16  C14       39.1570   89.6740   46.5930 C.2   1310  SPO1310    -0.0257
     17  C15       37.9890   90.2340   45.9250 C.3   1310  SPO1310     0.0510
     18  C16       38.2930   90.8540   44.6620 C.2   1310  SPO1310    -0.0296
     19  C17       37.2820   91.6030   43.9340 C.2   1310  SPO1310    -0.0435
     20  C18       35.8320   91.5560   44.3510 C.3   1310  SPO1310     0.0264
     21  C19       37.7550   92.3690   42.7820 C.3   1310  SPO1310     0.0477
     22  C20       36.7720   93.0280   41.9470 C.2   1310  SPO1310    -0.0218
     23  C21       37.2260   93.9040   40.8970 C.2   1310  SPO1310    -0.0049
     24  C22       38.6430   94.0340   40.6750 C.2   1310  SPO1310    -0.0088
     25  C23       39.1210   94.8040   39.5320 C.2   1310  SPO1310    -0.0436
     26  C24       38.1780   95.3530   38.4960 C.3   1310  SPO1310     0.0264
     27  C25       40.5690   94.9980   39.4560 C.3   1310  SPO1310     0.0267
     28  C26       41.2780   95.5860   38.3380 C.3   1310  SPO1310     0.0297
     29  C27       42.7410   95.5520   38.4740 C.2   1310  SPO1310    -0.0342
     30  C28       43.6120   95.8970   37.3400 C.2   1310  SPO1310    -0.0478
     31  C29       43.0880   96.0970   35.9530 C.3   1310  SPO1310     0.0260
     32  C30       45.0930   96.0360   37.5960 C.3   1310  SPO1310     0.0263
     33  C31       45.4840   97.4750   37.3220 C.3   1310  SPO1310     0.0297
     34  C32       46.9550   97.6040   37.6360 C.2   1310  SPO1310    -0.0342
     35  C33       47.5380   98.6220   38.5300 C.2   1310  SPO1310    -0.0478
     36  C34       46.7140   99.7330   39.1190 C.3   1310  SPO1310     0.0260
     37  C35       49.0240   98.5240   38.8370 C.3   1310  SPO1310     0.0263
     38  C36       49.7330   99.6460   38.0910 C.3   1310  SPO1310     0.0297
     39  C37       51.2320   99.4300   38.1060 C.2   1310  SPO1310    -0.0342
     40  C38       51.9870   98.8680   36.9520 C.2   1310  SPO1310    -0.0478
     41  C39       51.3060   98.2470   35.7520 C.3   1310  SPO1310     0.0260
     42  C40       53.4880   98.9120   37.0000 C.3   1310  SPO1310     0.0260
@<TRIPOS>BOND
     1    41    40    1
     2    31    30    1
     3    40    42    1
     4    40    39    2
     5    33    32    1
     6    33    34    1
     7    30    32    1
     8    30    29    2
     9    34    35    2
    10    38    39    1
    11    38    37    1
    12    28    29    1
    13    28    27    1
    14    26    25    1
    15    35    37    1
    16    35    36    1
    17    27    25    1
    18    25    24    2
    19    24    23    1
    20    23    22    2
    21    22    21    1
    22    21    19    1
    23    19    20    1
    24    19    18    2
    25    18    17    1
    26    17    16    1
    27    16    14    2
    28    14    13    1
    29    14    15    1
    30    13    12    2
    31    12    11    1
    32    11     9    1
    33     9     8    2
    34     9    10    1
    35     8     7    1
    36     7     6    1
    37     4     3    1
    38     6     3    1
    39     3     5    1
    40     3     2    1
    41     2     1    1
