@<TRIPOS>MOLECULE
2j8c_U10_L_1.pdb
 23 23 0 0 0
SMALL
GASTEIGER

@<TRIPOS>ATOM
      1  C1        34.3750   73.1600   27.1420 C.2   1287  U101287     0.0142
      2  C2        33.8470   72.4610   26.0300 C.2   1287  U101287     0.1987
      3  C3        34.0070   71.0690   25.9120 C.3   1287  U101287     0.2104
      4  C4        34.7070   70.3910   26.9180 C.3   1287  U101287     0.2104
      5  C5        35.2300   71.0870   28.0210 C.2   1287  U101287     0.1987
      6  C6        35.0560   72.4710   28.1410 C.2   1287  U101287     0.0139
      7  C1M       34.2280   74.6550   27.3010 C.3   1287  U101287     0.0339
      8  C3M       33.3860   70.7290   23.5790 C.3   1287  U101287     0.1747
      9  C4M       36.2000   69.3260   25.5210 C.3   1287  U101287     0.1747
     10  C7        35.7380   73.2640   29.2530 C.3   1287  U101287     0.0291
     11  C8        35.7010   72.5670   30.6030 C.3   1287  U101287     0.0048
     12  C9        35.7200   73.3360   31.8570 C.3   1287  U101287     0.0003
     13  C10       36.8940   73.2250   32.7940 C.3   1287  U101287     0.0000
     14  C11       34.5520   74.2370   32.2050 C.3   1287  U101287     0.0000
     15  C12       34.9130   75.6960   31.9160 C.3   1287  U101287     0.0000
     16  C13       33.7500   76.6110   32.2260 C.3   1287  U101287     0.0000
     17  C14       33.6520   77.3270   33.5080 C.3   1287  U101287     0.0000
     18  C15       34.8710   77.6730   34.3250 C.3   1287  U101287     0.0000
     19  C16       32.2890   77.7180   34.0000 C.3   1287  U101287     0.0000
     20  O2        33.5230   73.0720   25.0280 O.2   1287  U101287    -0.2890
     21  O3        33.4870   70.3960   24.9800 O.3   1287  U101287    -0.3429
     22  O4        35.2840   69.3420   26.5900 O.3   1287  U101287    -0.3429
     23  O5        36.2250   70.6160   28.5700 O.2   1287  U101287    -0.2890
@<TRIPOS>BOND
     1     8    21    1
     2    21     3    1
     3    20     2    2
     4     9    22    1
     5     3     2    1
     6     3     4    1
     7     2     1    1
     8    22     4    1
     9     4     5    1
    10     1     7    1
    11     1     6    2
    12     5     6    1
    13     5    23    2
    14     6    10    1
    15    10    11    1
    16    11    12    1
    17    12    14    1
    18    12    13    1
    19    15    14    1
    20    15    16    1
    21    16    17    1
    22    17    19    1
    23    17    18    1
