@<TRIPOS>MOLECULE
2j8d_U10_L_1.pdb
 23 23 0 0 0
SMALL
GASTEIGER

@<TRIPOS>ATOM
      1  C1        34.5650   74.3590   27.0170 C.3   1288  U101288     0.0672
      2  C2        34.0750   73.9420   25.7590 C.2   1288  U101288     0.1804
      3  C3        34.1070   72.6210   25.3230 C.3   1288  U101288     0.2061
      4  C4        34.6460   71.6750   26.2270 C.3   1288  U101288     0.2061
      5  C5        35.1280   72.0780   27.4930 C.2   1288  U101288     0.1804
      6  C6        35.0990   73.4230   27.9010 C.3   1288  U101288     0.0672
      7  C1M       34.5410   75.8100   27.4410 C.3   1288  U101288     0.0083
      8  C3M       33.4420   71.8050   23.1810 C.3   1288  U101288     0.1747
      9  C4M       36.3510   70.2430   25.5430 C.3   1288  U101288     0.1747
     10  C7        36.1170   73.9400   28.9120 C.3   1288  U101288     0.0078
     11  C8        35.7580   73.6030   30.3450 C.3   1288  U101288     0.0004
     12  C9        35.7250   74.5920   31.4430 C.3   1288  U101288     0.0000
     13  C10       36.8480   74.6080   32.4570 C.3   1288  U101288     0.0000
     14  C11       34.5430   75.5500   31.5660 C.3   1288  U101288     0.0000
     15  C12       34.9660   76.9680   31.9770 C.3   1288  U101288     0.0000
     16  C13       33.8130   77.7770   32.5450 C.3   1288  U101288     0.0000
     17  C14       33.9050   78.3730   33.8950 C.3   1288  U101288     0.0000
     18  C15       35.1620   79.0580   34.3680 C.3   1288  U101288     0.0000
     19  C16       32.7260   78.2910   34.8340 C.3   1288  U101288     0.0000
     20  O2        33.6170   74.7350   24.9730 O.2   1288  U101288    -0.2934
     21  O3        34.2900   72.4930   24.0800 O.3   1288  U101288    -0.3432
     22  O4        35.0020   70.5740   25.7810 O.3   1288  U101288    -0.3432
     23  O5        35.7280   71.2530   28.1920 O.2   1288  U101288    -0.2934
@<TRIPOS>BOND
     1     8    21    1
     2    21     3    1
     3    20     2    2
     4     3     2    1
     5     3     4    1
     6     9    22    1
     7     2     1    1
     8    22     4    1
     9     4     5    1
    10     1     7    1
    11     1     6    1
    12     5     6    1
    13     5    23    2
    14     6    10    1
    15    10    11    1
    16    11    12    1
    17    12    14    1
    18    12    13    1
    19    14    15    1
    20    15    16    1
    21    16    17    1
    22    17    18    1
    23    17    19    1
