@<TRIPOS>MOLECULE
2j8d_SPO_M_1.pdb
 42 41 0 0 0
SMALL
GASTEIGER

@<TRIPOS>ATOM
      1  CM1       42.8580   83.8130   55.4140 C.3   1319  SPO1319     0.1739
      2  O1        43.6990   84.9710   55.2730 O.3   1319  SPO1319    -0.3555
      3  C1        44.6570   85.1230   54.2080 C.3   1319  SPO1319     0.0970
      4  C2        45.6880   84.0070   54.2660 C.3   1319  SPO1319     0.0300
      5  C3        45.3820   86.4570   54.3610 C.3   1319  SPO1319     0.0300
      6  C4        43.9670   85.0750   52.8420 C.3   1319  SPO1319     0.0529
      7  C5        42.7160   85.9250   52.8040 C.2   1319  SPO1319    -0.0280
      8  C6        42.6840   87.1280   51.9850 C.2   1319  SPO1319    -0.0266
      9  C7        41.4180   87.7860   51.6040 C.3   1319  SPO1319     0.0433
     10  C8        40.2180   87.7470   52.5050 C.3   1319  SPO1319     0.0094
     11  C9        41.3640   88.4930   50.3110 C.2   1319  SPO1319    -0.0267
     12  C10       40.1900   89.2850   49.9400 C.2   1319  SPO1319    -0.0304
     13  C11       39.9930   89.6090   48.5320 C.3   1319  SPO1319     0.0257
     14  C12       38.8520   90.4030   48.0620 C.3   1319  SPO1319     0.0047
     15  C13       37.6100   90.6000   48.8870 C.3   1319  SPO1319     0.0004
     16  C14       38.9940   91.0300   46.7510 C.3   1319  SPO1319     0.0050
     17  C15       37.8340   91.5760   46.0600 C.3   1319  SPO1319     0.0257
     18  C16       38.1260   92.1620   44.7710 C.2   1319  SPO1319    -0.0304
     19  C17       37.0850   92.8330   43.9780 C.2   1319  SPO1319    -0.0261
     20  C18       35.6390   92.6440   44.3470 C.3   1319  SPO1319     0.0307
     21  C19       37.5560   93.6420   42.8400 C.2   1319  SPO1319    -0.0046
     22  C20       36.6230   94.3820   42.0020 C.2   1319  SPO1319    -0.0007
     23  C21       37.0640   95.2580   40.9310 C.2   1319  SPO1319    -0.0043
     24  C22       38.4490   95.2800   40.5370 C.2   1319  SPO1319    -0.0221
     25  C23       38.9350   96.2180   39.5240 C.3   1319  SPO1319     0.0440
     26  C24       38.0560   96.9230   38.5300 C.3   1319  SPO1319     0.0094
     27  C25       40.3770   96.4420   39.5640 C.2   1319  SPO1319    -0.0221
     28  C26       41.1400   96.8080   38.3980 C.2   1319  SPO1319    -0.0049
     29  C27       42.5780   96.9210   38.5570 C.2   1319  SPO1319    -0.0088
     30  C28       43.4040   97.3060   37.4150 C.2   1319  SPO1319    -0.0436
     31  C29       42.7650   97.5740   36.0910 C.3   1319  SPO1319     0.0264
     32  C30       44.8980   97.4040   37.6070 C.3   1319  SPO1319     0.0267
     33  C31       45.3010   98.8450   37.4020 C.3   1319  SPO1319     0.0297
     34  C32       46.7410   98.9920   37.8460 C.2   1319  SPO1319    -0.0343
     35  C33       47.2100  100.0950   38.7020 C.2   1319  SPO1319    -0.0482
     36  C34       46.2990  101.2060   39.1170 C.3   1319  SPO1319     0.0260
     37  C35       48.6460  100.0930   39.1740 C.3   1319  SPO1319     0.0217
     38  C36       49.4760  101.0550   38.3300 C.3   1319  SPO1319     0.0043
     39  C37       50.7930  100.3860   38.0030 C.3   1319  SPO1319     0.0003
     40  C38       51.4130  100.4780   36.6540 C.3   1319  SPO1319     0.0000
     41  C39       51.0970   99.4600   35.5780 C.3   1319  SPO1319     0.0000
     42  C40       52.3740  101.6020   36.3680 C.3   1319  SPO1319     0.0000
@<TRIPOS>BOND
     1    41    40    1
     2    31    30    1
     3    42    40    1
     4    40    39    1
     5    33    32    1
     6    33    34    1
     7    30    32    1
     8    30    29    2
     9    34    35    2
    10    39    38    1
    11    38    37    1
    12    28    29    1
    13    28    27    2
    14    26    25    1
    15    35    36    1
    16    35    37    1
    17    25    27    1
    18    25    24    1
    19    24    23    2
    20    23    22    1
    21    22    21    2
    22    21    19    1
    23    19    20    1
    24    19    18    2
    25    18    17    1
    26    17    16    1
    27    16    14    1
    28    14    13    1
    29    14    15    1
    30    13    12    1
    31    12    11    2
    32    11     9    1
    33     9     8    1
    34     9    10    1
    35     8     7    2
    36     7     6    1
    37     6     3    1
    38     3     4    1
    39     3     5    1
    40     3     2    1
    41     2     1    1
