@<TRIPOS>MOLECULE
2j8f_AMV_A_1.pdb
 20 20 0 0 0
SMALL
GASTEIGER

@<TRIPOS>ATOM
      1  C1        56.2650  -12.5230   27.9560 C.3   1341  AMV1341     0.2585
      2  C2        55.9320  -11.1250   27.3650 C.3   1341  AMV1341     0.1810
      3  C3        57.0310  -10.6370   26.3950 C.3   1341  AMV1341     0.1732
      4  C4        58.3440  -10.6150   27.1900 C.3   1341  AMV1341     0.2103
      5  C5        58.6660  -12.0230   27.7210 C.3   1341  AMV1341     0.1833
      6  C6        59.9630  -12.0860   28.5450 C.3   1341  AMV1341     0.2142
      7  C7        53.6580  -10.1580   27.0810 C.2   1341  AMV1341     0.2420
      8  C8        52.4180  -10.1160   26.1720 C.3   1341  AMV1341     0.0964
      9  C9        56.9180   -8.6000   24.9340 C.3   1341  AMV1341     0.1795
     10  C10       55.8770   -9.2030   23.9400 C.2   1341  AMV1341     0.2366
     11  C11       56.6330   -7.1150   25.2490 C.3   1341  AMV1341     0.0406
     12  O1        55.2960  -12.8580   28.9440 O.3   1341  AMV1341    -0.3265
     13  O3        56.9050   -9.2060   26.2470 O.3   1341  AMV1341    -0.3462
     14  O4        59.4210  -10.2430   26.3150 O.3   1341  AMV1341    -0.2178
     15  O5        57.5750  -12.5010   28.5410 O.3   1341  AMV1341    -0.3262
     16  O6        60.2350  -13.4430   28.9630 O.3   1341  AMV1341    -0.2176
     17  O7        53.7920   -9.4030   28.0330 O.2   1341  AMV1341    -0.2733
     18  O11       54.7100   -8.8370   23.9560 O.2   1341  AMV1341    -0.2856
     19  N2        54.5860  -11.0930   26.7610 N.am  1341  AMV1341    -0.1994
     20  C12       55.1880  -14.2630   29.1320 C.3   1341  AMV1341     0.1769
@<TRIPOS>BOND
     1    10    18    2
     2    10     9    1
     3     9    11    1
     4     9    13    1
     5     8     7    1
     6    13     3    1
     7    14     4    1
     8     3     4    1
     9     3     2    1
    10    19     7   am
    11    19     2    1
    12     7    17    2
    13     4     5    1
    14     2     1    1
    15     5    15    1
    16     5     6    1
    17     1    15    1
    18     1    12    1
    19     6    16    1
    20    12    20    1
