@<TRIPOS>MOLECULE
2j8g_AMV_A_1.pdb
 18 18 0 0 0
SMALL
GASTEIGER

@<TRIPOS>ATOM
      1  C1        55.5690  -13.0240   27.8420 C.3   1347  AMV1347     0.1664
      2  C2        55.2670  -11.6070   27.2800 C.3   1347  AMV1347     0.1544
      3  C3        56.2950  -11.1860   26.2060 C.3   1347  AMV1347     0.1707
      4  C4        57.6780  -11.2470   26.8710 C.3   1347  AMV1347     0.2102
      5  C5        57.9630  -12.6730   27.3740 C.3   1347  AMV1347     0.1808
      6  C6        59.3270  -12.8170   28.0690 C.3   1347  AMV1347     0.2141
      7  C7        52.9900  -10.6410   27.0220 C.2   1347  AMV1347     0.2420
      8  C8        51.6740  -10.6960   26.2280 C.3   1347  AMV1347     0.0964
      9  C9        56.2040   -9.1070   24.8040 C.3   1347  AMV1347     0.1795
     10  C10       55.0970   -9.6840   23.8680 C.2   1347  AMV1347     0.2366
     11  C11       55.9450   -7.6310   25.1750 C.3   1347  AMV1347     0.0406
     12  O3        56.2780   -9.7460   26.0990 O.3   1347  AMV1347    -0.3463
     13  O4        58.7250  -10.9150   25.9440 O.3   1347  AMV1347    -0.2178
     14  O5        56.9290  -13.0840   28.2980 O.3   1347  AMV1347    -0.3490
     15  O6        59.5540  -14.1890   28.4650 O.3   1347  AMV1347    -0.2176
     16  O7        53.1680   -9.8450   27.9320 O.2   1347  AMV1347    -0.2733
     17  O11       53.9200   -9.3970   24.0380 O.2   1347  AMV1347    -0.2856
     18  N2        53.9340  -11.5410   26.6510 N.am  1347  AMV1347    -0.2020
@<TRIPOS>BOND
     1    10    17    2
     2    10     9    1
     3     9    11    1
     4     9    12    1
     5    13     4    1
     6    12     3    1
     7     3     4    1
     8     3     2    1
     9     8     7    1
    10    18     7   am
    11    18     2    1
    12     4     5    1
    13     7    16    2
    14     2     1    1
    15     5     6    1
    16     5    14    1
    17     1    14    1
    18     6    15    1
