@<TRIPOS>MOLECULE
2j8r_MSL_A_1.pdb
 11 10 0 0 0
SMALL
GASTEIGER

@<TRIPOS>ATOM
      1  OXT       12.8690   -0.6810   43.6380 O.co2 1176  MSL1176    -0.2441
      2  C         13.9380   -1.0860   44.0930 C.2   1176  MSL1176     0.3819
      3  O         14.1710   -2.2940   44.0990 O.co2 1176  MSL1176    -0.2441
      4  CA        14.9640   -0.0950   44.6460 C.3   1176  MSL1176     0.1953
      5  N         14.5120    1.2750   44.3700 N.3   1176  MSL1176    -0.1208
      6  CB        15.0690   -0.3020   46.1590 C.3   1176  MSL1176     0.0443
      7  CG        16.1820    0.5550   46.7620 C.3   1176  MSL1176     0.0868
      8  SD        16.3530    0.3360   48.5710 S.3   1176  MSL1176     0.0098
      9  OE        15.0920    0.7360   49.2740 O.3   1176  MSL1176    -0.1543
     10  NE        17.6320    1.1830   49.1250 N.3   1176  MSL1176    -0.0533
     11  CE        16.6250   -1.4170   48.7300 C.3   1176  MSL1176     0.0984
@<TRIPOS>BOND
     1     1     2   ar
     2     2     3   ar
     3     2     4    1
     4     5     4    1
     5     4     6    1
     6     6     7    1
     7     7     8    1
     8     8    11    1
     9     8    10    1
    10     8     9    1
