@<TRIPOS>MOLECULE
2j8t_NAP_A_1.pdb
 48 52 0 0 0
SMALL
GASTEIGER

@<TRIPOS>ATOM
      1  PA        20.2230    3.8490    0.9290 P.3   1316  NAP1316     0.2189
      2  O1A       20.7460    2.8000    0.0170 O.2   1316  NAP1316    -0.5170
      3  O2A       19.2660    3.5170    1.9850 O.3   1316  NAP1316    -0.4371
      4  O5B       19.7310    5.0360   -0.0070 O.3   1316  NAP1316    -0.3112
      5  C5B       19.2520    6.2720    0.5730 C.3   1316  NAP1316     0.1813
      6  C4B       18.9840    7.2090   -0.5800 C.3   1316  NAP1316     0.1820
      7  O4B       17.9370    6.6690   -1.4030 O.3   1316  NAP1316    -0.3136
      8  C3B       18.5410    8.6110   -0.1970 C.3   1316  NAP1316     0.2157
      9  O3B       19.1010    9.5140   -1.1530 O.3   1316  NAP1316    -0.2175
     10  C2B       17.0260    8.5580   -0.3300 C.3   1316  NAP1316     0.2314
     11  O2B       16.4590    9.8190   -0.6390 O.3   1316  NAP1316    -0.2630
     12  C1B       16.8510    7.6120   -1.4920 C.3   1316  NAP1316     0.3158
     13  N9A       15.6070    6.8510   -1.5050 N.pl3 1316  NAP1316    -0.1439
     14  C8A       15.0400    6.2250   -0.4190 C.3   1316  NAP1316     0.3377
     15  N7A       13.9610    5.5680   -0.7140 N.2   1316  NAP1316    -0.2095
     16  C5A       13.7830    5.7670   -2.0550 C.2   1316  NAP1316     0.2526
     17  C6A       12.7780    5.3430   -2.9370 C.2   1316  NAP1316     0.4393
     18  N6A       11.7480    4.5910   -2.5550 N.pl3 1316  NAP1316     0.2180
     19  N1A       12.8740    5.7890   -4.2070 N.2   1316  NAP1316     0.0021
     20  C2A       13.9350    6.5460   -4.6030 C.3   1316  NAP1316     0.5254
     21  N3A       14.9350    6.9880   -3.8400 N.2   1316  NAP1316    -0.0055
     22  C4A       14.7990    6.5690   -2.5600 C.2   1316  NAP1316     0.3518
     23  O3        21.5320    4.5500    1.5740 O.3   1316  NAP1316    -0.2703
     24  PN        22.2900    4.6650    2.9660 P.3   1316  NAP1316     0.2189
     25  O1N       23.7300    4.6930    2.6340 O.2   1316  NAP1316    -0.5170
     26  O2N       21.7140    5.7850    3.7670 O.3   1316  NAP1316    -0.4371
     27  O5D       22.0630    3.2640    3.7040 O.3   1316  NAP1316    -0.3112
     28  C5D       20.9180    3.0270    4.5650 C.3   1316  NAP1316     0.1813
     29  C4D       21.2980    3.1320    6.0150 C.3   1316  NAP1316     0.1799
     30  O4D       22.2780    2.1350    6.3690 O.3   1316  NAP1316    -0.3327
     31  C3D       21.9720    4.4270    6.4590 C.3   1316  NAP1316     0.2158
     32  O3D       21.1130    5.5460    6.4870 O.3   1316  NAP1316    -0.2175
     33  C2D       22.5380    4.0200    7.8060 C.3   1316  NAP1316     0.2309
     34  O2D       21.4590    3.9770    8.7330 O.3   1316  NAP1316    -0.2158
     35  C1D       23.0520    2.5980    7.4520 C.3   1316  NAP1316     0.2263
     36  N1N       24.4770    2.5870    7.0430 N.pl3 1316  NAP1316    -0.2787
     37  C2N       25.4010    2.0760    7.9020 C.3   1316  NAP1316     0.1244
     38  C3N       26.7440    2.0830    7.6140 C.2   1316  NAP1316     0.0544
     39  C7N       27.7400    1.4120    8.4970 C.2   1316  NAP1316     0.2818
     40  O7N       28.9410    1.6840    8.3800 O.2   1316  NAP1316    -0.2670
     41  N7N       27.2750    0.5360    9.4020 N.am  1316  NAP1316    -0.0839
     42  C4N       27.1690    2.6730    6.4240 C.2   1316  NAP1316     0.0033
     43  C5N       26.2190    3.1550    5.5270 C.2   1316  NAP1316     0.0157
     44  C6N       24.8940    3.0720    5.8160 C.2   1316  NAP1316     0.0633
     45  P2B       15.5770   10.7050    0.4180 P.3   1316  NAP1316     0.5328
     46  O1X       14.1450   10.2500    0.2300 O.3   1316  NAP1316    -0.1145
     47  O2X       16.0950   10.4560    1.8010 O.3   1316  NAP1316    -0.1145
     48  O3X       15.8080   12.1050   -0.0940 O.2   1316  NAP1316    -0.2224
@<TRIPOS>BOND
     1    20    19    1
     2    20    21    1
     3    19    17    2
     4    21    22    2
     5    17    18    1
     6    17    16    1
     7    22    16    1
     8    22    13    1
     9    16    15    2
    10    13    12    1
    11    13    14    1
    12    12     7    1
    13    12    10    1
    14     7     6    1
    15     9     8    1
    16    15    14    1
    17    11    10    1
    18    11    45    1
    19     6     8    1
    20     6     5    1
    21    10     8    1
    22    48    45    2
    23     4     5    1
    24     4     1    1
    25     2     1    2
    26    46    45    1
    27    45    47    1
    28     1    23    1
    29     1     3    1
    30    23    24    1
    31    25    24    2
    32    24    27    1
    33    24    26    1
    34    27    28    1
    35    28    29    1
    36    43    44    2
    37    43    42    1
    38    44    36    1
    39    29    30    1
    40    29    31    1
    41    30    35    1
    42    42    38    2
    43    31    32    1
    44    31    33    1
    45    36    35    1
    46    36    37    1
    47    35    33    1
    48    38    37    1
    49    38    39    1
    50    33    34    1
    51    40    39    2
    52    39    41   am
