@<TRIPOS>MOLECULE
2j8t_FLC_A_1.pdb
 13 12 0 0 0
SMALL
GASTEIGER

@<TRIPOS>ATOM
      1  CAC       29.3080    5.2910    8.0340 C.2   1317  FLC1317     0.3680
      2  CA        29.2940    6.4960    7.1600 C.3   1317  FLC1317     0.1560
      3  CB        29.9780    7.7530    7.7050 C.3   1317  FLC1317     0.2402
      4  CBC       30.1350    8.8350    6.5890 C.2   1317  FLC1317     0.3927
      5  CG        31.4240    7.4360    8.1830 C.3   1317  FLC1317     0.1560
      6  CGC       32.3220    6.7660    7.1850 C.2   1317  FLC1317     0.3680
      7  OA1       28.1940    4.9060    8.6130 O.co2 1317  FLC1317    -0.2455
      8  OA2       30.3420    4.6840    8.2100 O.co2 1317  FLC1317    -0.2455
      9  OB1       30.6690    8.5120    5.5420 O.co2 1317  FLC1317    -0.2429
     10  OB2       29.6930    9.9560    6.8760 O.co2 1317  FLC1317    -0.2429
     11  OG1       32.1480    5.5920    6.8560 O.co2 1317  FLC1317    -0.2455
     12  OG2       33.2540    7.4610    6.6180 O.co2 1317  FLC1317    -0.2455
     13  OHB       29.1350    8.2130    8.6950 O.3   1317  FLC1317    -0.2129
@<TRIPOS>BOND
     1     9     4   ar
     2     4    10   ar
     3     4     3    1
     4    12     6   ar
     5    11     6   ar
     6     2     3    1
     7     2     1    1
     8     6     5    1
     9     3     5    1
    10     3    13    1
    11     1     8   ar
    12     1     7   ar
