@<TRIPOS>MOLECULE
2j8w_HEM_A_1.pdb
 43 50 0 0 0
SMALL
GASTEIGER

@<TRIPOS>ATOM
      1 FE         24.6240    7.1180   59.5150 Fe    1129  HEM1129     0.0000
      2  CHA       24.8070    9.1570   62.2720 C.2   1129  HEM1129     0.0000
      3  CHB       27.8580    6.2550   59.9340 C.2   1129  HEM1129     0.0000
      4  CHC       24.2360    4.5110   57.3020 C.2   1129  HEM1129     0.0000
      5  CHD       21.3100    7.8750   59.1710 C.2   1129  HEM1129     0.0000
      6  NA        26.0340    7.5960   60.8630 N.2   1129  HEM1129     0.0000
      7  C1A       25.9620    8.5040   61.9060 C.2   1129  HEM1129     0.0000
      8  C2A       27.2460    8.6420   62.5400 C.2   1129  HEM1129     0.0000
      9  C3A       28.1000    7.8330   61.8870 C.2   1129  HEM1129     0.0000
     10  C4A       27.3460    7.1600   60.8450 C.2   1129  HEM1129     0.0000
     11  CMA       29.5770    7.5660   62.1790 C.3   1129  HEM1129     0.0000
     12  CAA       27.5570    9.5590   63.7190 C.3   1129  HEM1129     0.0000
     13  CBA       27.2900    8.8830   65.0410 C.3   1129  HEM1129     0.0000
     14  NB        25.8050    5.5990   58.7820 N.ar  1129  HEM1129     0.0000
     15  C1B       27.1460    5.5570   58.9940 C.ar  1129  HEM1129     0.0000
     16  C2B       27.7110    4.5640   58.1130 C.ar  1129  HEM1129     0.0000
     17  C3B       26.7050    4.0590   57.3880 C.ar  1129  HEM1129     0.0000
     18  C4B       25.4810    4.7020   57.8040 C.ar  1129  HEM1129     0.0000
     19  CMB       29.1980    4.1930   57.9940 C.3   1129  HEM1129     0.0000
     20  CAB       26.7580    2.9670   56.3320 C.3   1129  HEM1129     0.0000
     21  CBB       27.5330    1.7910   56.5630 C.3   1129  HEM1129     0.0000
     22  NC        23.1090    6.3330   58.5120 N.2   1129  HEM1129     0.0000
     23  C1C       23.1360    5.2900   57.5960 C.2   1129  HEM1129     0.0000
     24  C2C       21.8690    5.1360   56.9240 C.2   1129  HEM1129     0.0000
     25  C3C       21.0380    6.0680   57.4530 C.2   1129  HEM1129     0.0000
     26  C4C       21.8030    6.8480   58.4210 C.2   1129  HEM1129     0.0000
     27  CMC       21.5680    4.0710   55.8690 C.3   1129  HEM1129     0.0000
     28  CAC       19.5380    6.3380   57.1100 C.3   1129  HEM1129     0.0000
     29  CBC       18.7590    5.3390   56.5500 C.3   1129  HEM1129     0.0000
     30  ND        23.2900    8.2940   60.5470 N.ar  1129  HEM1129     0.0000
     31  C1D       21.9630    8.5100   60.1700 C.ar  1129  HEM1129     0.0000
     32  C2D       21.3810    9.5150   61.0310 C.ar  1129  HEM1129     0.0000
     33  C3D       22.4240    9.8870   61.9710 C.ar  1129  HEM1129     0.0000
     34  C4D       23.5990    9.0940   61.6330 C.ar  1129  HEM1129     0.0000
     35  CMD       19.9700   10.0610   60.9600 C.3   1129  HEM1129     0.0000
     36  CAD       22.3180   10.8460   63.1220 C.3   1129  HEM1129     0.0000
     37  CBD       21.9450   10.0570   64.3890 C.3   1129  HEM1129     0.0000
     38  CGD       21.7510   11.0190   65.5530 C.2   1129  HEM1129     0.0000
     39  O1D       20.7370   10.8620   66.2720 O.co2 1129  HEM1129     0.0000
     40  O2D       22.6410   11.9100   65.7990 O.co2 1129  HEM1129     0.0000
     41  CGA       27.7870    9.8290   66.1780 C.2   1129  HEM1129     0.0000
     42  O1A       28.5070   10.8490   65.9410 O.co2 1129  HEM1129     0.0000
     43  O2A       27.4880    9.6470   67.3990 O.co2 1129  HEM1129     0.0000
@<TRIPOS>BOND
     1    27    24    1
     2    20    21    1
     3    20    17    1
     4    29    28    1
     5    24    25    2
     6    24    23    1
     7    28    25    1
     8     4    23    2
     9     4    18    1
    10    17    18   ar
    11    17    16   ar
    12    25    26    1
    13    23    22    1
    14    18    14   ar
    15    19    16    1
    16    16    15   ar
    17    26    22    2
    18    26     5    1
    19    22     1    1
    20    14    15   ar
    21    14     1    1
    22    15     3    1
    23     5    31    2
    24     1    30    1
    25     1     6    1
    26     3    10    2
    27    31    30   ar
    28    31    32   ar
    29    30    34   ar
    30    10     6    1
    31    10     9    1
    32     6     7    2
    33    35    32    1
    34    32    33   ar
    35    34    33   ar
    36    34     2    2
    37     9    11    1
    38     9     8    2
    39     7     2    1
    40     7     8    1
    41    33    36    1
    42     8    12    1
    43    36    37    1
    44    12    13    1
    45    37    38    1
    46    13    41    1
    47    38    40   ar
    48    38    39   ar
    49    42    41   ar
    50    41    43   ar
