@<TRIPOS>MOLECULE
2j8y_PNM_A_1.pdb
 23 24 0 0 0
SMALL
GASTEIGER

@<TRIPOS>ATOM
      1  O8       -11.2770   24.1620   -9.0680 O.2   1275  PNM1275    -0.2863
      2  C7       -10.0680   24.4130   -9.1620 C.2   1275  PNM1275     0.2311
      3  N4        -9.7490   26.3930  -10.9510 N.3   1275  PNM1275    -0.1957
      4  C3       -10.7100   26.4890  -12.0570 C.3   1275  PNM1275     0.1857
      5  C11      -11.3340   27.8630  -11.9010 C.2   1275  PNM1275     0.3811
      6  O13      -10.6600   28.7090  -11.2830 O.co2 1275  PNM1275    -0.2441
      7  O12      -12.4530   28.0450  -12.4210 O.co2 1275  PNM1275    -0.2441
      8  C2        -9.9090   26.3490  -13.3880 C.3   1275  PNM1275     0.0658
      9  C10       -9.0940   27.5860  -13.7520 C.3   1275  PNM1275     0.0129
     10  C9       -10.7790   25.8800  -14.5640 C.3   1275  PNM1275     0.0129
     11  S1        -8.7140   25.0520  -12.9280 S.3   1275  PNM1275    -0.1212
     12  C5        -8.8220   25.2380  -11.1210 C.3   1275  PNM1275     0.1479
     13  C6        -9.2560   23.9520  -10.3820 C.3   1275  PNM1275     0.1855
     14  N14       -9.9460   22.9510  -11.2270 N.am  1275  PNM1275    -0.1965
     15  C15       -9.2870   21.9740  -11.8700 C.2   1275  PNM1275     0.2462
     16  O16       -8.0680   21.8330  -11.8390 O.2   1275  PNM1275    -0.2730
     17  C17      -10.1450   21.0280  -12.7090 C.3   1275  PNM1275     0.1131
     18  C18      -10.3300   21.6720  -14.0880 C.ar  1275  PNM1275    -0.0130
     19  C19       -9.2100   22.1020  -14.8250 C.ar  1275  PNM1275    -0.0038
     20  C20       -9.3930   22.7050  -16.0750 C.ar  1275  PNM1275    -0.0003
     21  C21      -10.6840   22.8740  -16.5980 C.ar  1275  PNM1275    -0.0000
     22  C22      -11.7920   22.4450  -15.8620 C.ar  1275  PNM1275    -0.0003
     23  C23      -11.6170   21.8480  -14.6120 C.ar  1275  PNM1275    -0.0038
@<TRIPOS>BOND
     1    21    20   ar
     2    21    22   ar
     3    20    19   ar
     4    22    23   ar
     5    19    18   ar
     6    23    18   ar
     7    10     8    1
     8    18    17    1
     9     9     8    1
    10     8    11    1
    11     8     4    1
    12    11    12    1
    13    17    15    1
    14     7     5   ar
    15     4     5    1
    16     4     3    1
    17     5     6   ar
    18    15    16    2
    19    15    14   am
    20    14    13    1
    21    12     3    1
    22    12    13    1
    23    13     2    1
    24     2     1    2
