@<TRIPOS>MOLECULE
2j8z_NAP_A_1.pdb
 48 52 0 0 0
SMALL
GASTEIGER

@<TRIPOS>ATOM
      1  PA        24.6780   27.6020  -23.5060 P.3   1334  NAP1334     0.2189
      2  O1A       25.4550   28.8510  -23.5650 O.3   1334  NAP1334    -0.4371
      3  O2A       24.7610   26.6040  -24.6150 O.2   1334  NAP1334    -0.5170
      4  O5B       23.2110   28.0490  -23.0950 O.3   1334  NAP1334    -0.3112
      5  C5B       23.0980   28.9910  -21.9980 C.3   1334  NAP1334     0.1813
      6  C4B       21.8060   29.7950  -22.0220 C.3   1334  NAP1334     0.1820
      7  O4B       21.7630   30.5460  -20.7970 O.3   1334  NAP1334    -0.3136
      8  C3B       21.7740   30.9190  -23.0550 C.3   1334  NAP1334     0.2157
      9  O3B       21.4800   30.3870  -24.3650 O.3   1334  NAP1334    -0.2175
     10  C2B       20.6150   31.7600  -22.4870 C.3   1334  NAP1334     0.2314
     11  O2B       19.3630   31.2670  -23.0020 O.3   1334  NAP1334    -0.2630
     12  C1B       20.6930   31.5070  -20.9610 C.3   1334  NAP1334     0.3158
     13  N9A       21.0550   32.7320  -20.1630 N.pl3 1334  NAP1334    -0.1439
     14  C8A       22.1720   33.4480  -20.3100 C.3   1334  NAP1334     0.3377
     15  N7A       22.1820   34.4630  -19.4420 N.2   1334  NAP1334    -0.2095
     16  C5A       21.0600   34.4020  -18.7300 C.2   1334  NAP1334     0.2526
     17  C6A       20.5420   35.1860  -17.7010 C.2   1334  NAP1334     0.4393
     18  N6A       21.2150   36.2470  -17.2500 N.pl3 1334  NAP1334     0.2180
     19  N1A       19.3460   34.8570  -17.1780 N.2   1334  NAP1334     0.0021
     20  C2A       18.6870   33.7920  -17.6390 C.3   1334  NAP1334     0.5254
     21  N3A       19.1500   33.0130  -18.6170 N.2   1334  NAP1334    -0.0055
     22  C4A       20.3390   33.2990  -19.1840 C.2   1334  NAP1334     0.3518
     23  O3        25.0220   26.9070  -22.1130 O.3   1334  NAP1334    -0.2703
     24  PN        25.8990   25.6080  -21.8350 P.3   1334  NAP1334     0.2189
     25  O1N       27.2490   25.8130  -22.3890 O.2   1334  NAP1334    -0.5170
     26  O2N       25.1410   24.3720  -22.1820 O.3   1334  NAP1334    -0.4371
     27  O5D       25.9120   25.8250  -20.2250 O.3   1334  NAP1334    -0.3112
     28  C5D       24.7910   26.4350  -19.5540 C.3   1334  NAP1334     0.1813
     29  C4D       25.1290   26.9170  -18.1360 C.3   1334  NAP1334     0.1799
     30  O4D       25.6680   25.7710  -17.4320 O.3   1334  NAP1334    -0.3327
     31  C3D       26.2170   27.9920  -18.0840 C.3   1334  NAP1334     0.2158
     32  O3D       26.0210   28.7700  -16.9060 O.3   1334  NAP1334    -0.2175
     33  C2D       27.5030   27.1910  -17.9370 C.3   1334  NAP1334     0.2309
     34  O2D       28.4760   28.0020  -17.2880 O.3   1334  NAP1334    -0.2158
     35  C1D       27.0330   26.0820  -17.0030 C.3   1334  NAP1334     0.2263
     36  N1N       27.8040   24.8040  -16.9690 N.pl3 1334  NAP1334    -0.2787
     37  C2N       28.2540   24.3800  -15.7330 C.3   1334  NAP1334     0.1244
     38  C3N       28.9710   23.2080  -15.5430 C.2   1334  NAP1334     0.0544
     39  C7N       29.4270   22.8350  -14.1260 C.2   1334  NAP1334     0.2818
     40  O7N       29.5600   21.6610  -13.7900 O.2   1334  NAP1334    -0.2670
     41  N7N       29.6420   23.8680  -13.3080 N.am  1334  NAP1334    -0.0839
     42  C4N       29.2470   22.4170  -16.6500 C.2   1334  NAP1334     0.0033
     43  C5N       28.7990   22.8280  -17.9120 C.2   1334  NAP1334     0.0157
     44  C6N       28.0750   24.0130  -18.0880 C.2   1334  NAP1334     0.0633
     45  P2B       17.9460   31.9330  -22.6270 P.3   1334  NAP1334     0.5328
     46  O1X       17.1350   32.1250  -23.9950 O.2   1334  NAP1334    -0.2224
     47  O2X       17.1910   30.7400  -21.8610 O.3   1334  NAP1334    -0.1145
     48  O3X       18.1140   33.2260  -21.9280 O.3   1334  NAP1334    -0.1145
@<TRIPOS>BOND
     1     3     1    2
     2     9     8    1
     3    46    45    2
     4     2     1    1
     5     1     4    1
     6     1    23    1
     7     4     5    1
     8     8    10    1
     9     8     6    1
    10    11    45    1
    11    11    10    1
    12    45    48    1
    13    45    47    1
    14    10    12    1
    15    25    24    2
    16    26    24    1
    17    23    24    1
    18     6     5    1
    19     6     7    1
    20    24    27    1
    21    12     7    1
    22    12    13    1
    23    14    13    1
    24    14    15    1
    25    27    28    1
    26    13    22    1
    27    28    29    1
    28    15    16    2
    29    22    16    1
    30    22    21    2
    31    16    17    1
    32    21    20    1
    33    29    31    1
    34    29    30    1
    35    44    43    2
    36    44    36    1
    37    31    33    1
    38    31    32    1
    39    33    34    1
    40    33    35    1
    41    43    42    1
    42    17    18    1
    43    17    19    2
    44    20    19    1
    45    30    35    1
    46    35    36    1
    47    36    37    1
    48    42    38    2
    49    37    38    1
    50    38    39    1
    51    39    40    2
    52    39    41   am
