@<TRIPOS>MOLECULE
2j90_IZA_A_1.pdb
 23 26 0 0 0
SMALL
GASTEIGER

@<TRIPOS>ATOM
      1  O0        20.5210    7.5660   19.1820 O.2   300  IZA300     -0.2219
      2  C11       21.5190    7.6540   18.4420 C.1   300  IZA300      0.1545
      3  N2        21.4610    8.6390   17.4520 N.2   300  IZA300     -0.1747
      4  C12       22.5200    8.8790   16.5590 C.2   300  IZA300      0.1112
      5  C13       23.6490    8.0910   16.6540 C.2   300  IZA300      0.0249
      6  C9        23.7320    7.0840   17.6240 C.ar  300  IZA300      0.0456
      7  C1        24.8940    6.3300   17.6540 C.ar  300  IZA300      0.1744
      8  C10       22.6710    6.8280   18.5250 C.ar  300  IZA300      0.0859
      9  C8        22.8400    5.7870   19.4730 C.ar  300  IZA300      0.0158
     10  C7        21.8450    5.4670   20.4110 C.ar  300  IZA300      0.0304
     11  C6        22.0150    4.4300   21.3230 C.ar  300  IZA300      0.1402
     12  F1        21.0230    4.1550   22.2080 F     300  IZA300     -0.2042
     13  C5        23.1890    3.6920   21.3340 C.ar  300  IZA300      0.0297
     14  C4        24.1980    3.9910   20.4200 C.ar  300  IZA300      0.0050
     15  C3        24.0300    5.0380   19.4980 C.ar  300  IZA300      0.0339
     16  C0        25.0410    5.3120   18.5830 C.ar  300  IZA300      0.1737
     17  N1        26.2400    4.7840   18.3810 N.2   300  IZA300     -0.3411
     18  C2        26.8170    5.4240   17.3750 C.1   300  IZA300      0.1113
     19  N0        26.0170    6.3760   16.9160 N.2   300  IZA300     -0.3411
     20  C14       28.2400    5.1110   16.8470 C.3   300  IZA300      0.0954
     21  C17       28.1620    4.0550   15.7630 C.3   300  IZA300      0.0170
     22  C16       29.0690    4.6010   18.0230 C.3   300  IZA300      0.0170
     23  C15       28.8920    6.4090   16.3640 C.3   300  IZA300      0.0170
@<TRIPOS>BOND
     1    21    20    1
     2    23    20    1
     3     4     5    2
     4     4     3    1
     5     5     6    1
     6    20    18    1
     7    20    22    1
     8    19    18    2
     9    19     7    2
    10    18    17    2
    11     3     2    2
    12     6     7   ar
    13     6     8   ar
    14     7    16   ar
    15    17    16    2
    16     2     8    1
    17     2     1    2
    18     8     9   ar
    19    16    15   ar
    20     9    15   ar
    21     9    10   ar
    22    15    14   ar
    23    10    11   ar
    24    14    13   ar
    25    11    13   ar
    26    11    12    1
