@<TRIPOS>MOLECULE
2j91_AMP_A_1.pdb
 23 25 0 0 0
SMALL
GASTEIGER

@<TRIPOS>ATOM
      1  P         14.8270   65.9430   13.7170 P.3   1000  AMP1000     0.5327
      2  O1P       14.9870   64.6480   12.9690 O.2   1000  AMP1000    -0.2224
      3  O2P       15.9270   66.4220   14.6390 O.3   1000  AMP1000    -0.1145
      4  O3P       13.4550   66.1220   14.3180 O.3   1000  AMP1000    -0.1145
      5  O5'       14.8440   67.0790   12.5580 O.3   1000  AMP1000    -0.2675
      6  C5'       15.9610   67.1270   11.6700 C.3   1000  AMP1000     0.1860
      7  C4'       16.0670   68.5090   11.0730 C.3   1000  AMP1000     0.1823
      8  O4'       17.2840   68.5760   10.3110 O.3   1000  AMP1000    -0.3135
      9  C3'       14.8840   68.7790   10.1240 C.3   1000  AMP1000     0.2184
     10  O3'       14.3920   70.1360   10.2590 O.3   1000  AMP1000    -0.2174
     11  C2'       15.5040   68.5160    8.7550 C.3   1000  AMP1000     0.2570
     12  O2'       14.8300   69.1550    7.6440 O.3   1000  AMP1000    -0.2130
     13  C1'       16.9370   69.0070    8.9830 C.3   1000  AMP1000     0.3186
     14  N9        17.9100   68.4720    8.0320 N.pl3 1000  AMP1000    -0.1439
     15  C8        17.6740   67.6670    6.9690 C.3   1000  AMP1000     0.3377
     16  N7        18.8370   67.3710    6.3300 N.2   1000  AMP1000    -0.2095
     17  C5        19.8310   67.9900    7.0090 C.2   1000  AMP1000     0.2526
     18  C6        21.3020   68.0960    6.8830 C.2   1000  AMP1000     0.4393
     19  N6        21.9070   67.4650    5.8760 N.pl3 1000  AMP1000     0.2180
     20  N1        21.9780   68.8370    7.7730 N.2   1000  AMP1000     0.0021
     21  C2        21.3410   69.4890    8.7790 C.3   1000  AMP1000     0.5254
     22  N3        20.0000   69.4490    8.9600 N.2   1000  AMP1000    -0.0055
     23  C4        19.2130   68.7210    8.1250 C.2   1000  AMP1000     0.3518
@<TRIPOS>BOND
     1    19    18    1
     2    16    15    1
     3    16    17    2
     4    18    17    1
     5    18    20    2
     6    15    14    1
     7    17    23    1
     8    12    11    1
     9    20    21    1
    10    14    23    1
    11    14    13    1
    12    23    22    2
    13    11    13    1
    14    11     9    1
    15    21    22    1
    16    13     8    1
    17     9    10    1
    18     9     7    1
    19     8     7    1
    20     7     6    1
    21     6     5    1
    22     5     1    1
    23     2     1    2
    24     1     4    1
    25     1     3    1
