@<TRIPOS>MOLECULE
2j94_G15_A_1.pdb
 31 34 0 0 0
SMALL
GASTEIGER

@<TRIPOS>ATOM
      1  O26        6.2560    4.6970   17.7970 O.2   1245  G151245    -0.2731
      2  C23        7.0120    3.9640   18.4280 C.2   1245  G151245     0.2439
      3  N25        7.8080    3.0650   17.7800 N.am  1245  G151245    -0.2731
      4  C27        7.6500    2.9310   16.3220 C.3   1245  G151245     0.1255
      5  C29        9.0120    3.0320   15.6360 C.3   1245  G151245     0.1636
      6  O31        9.8690    2.0580   16.2330 O.3   1245  G151245    -0.3501
      7  C30       10.1440    2.3450   17.6000 C.3   1245  G151245     0.1636
      8  C28        8.8350    2.2120   18.3790 C.3   1245  G151245     0.1255
      9  C22        7.0670    4.0890   19.9570 C.3   1245  G151245     0.1521
     10  C24        6.5420    2.8280   20.6620 C.3   1245  G151245     0.0314
     11  N19        6.3940    5.2930   20.4710 N.am  1245  G151245    -0.2718
     12  C21        4.9660    5.4720   20.7060 C.3   1245  G151245     0.0959
     13  C18        4.8340    6.9920   20.5490 C.3   1245  G151245     0.0502
     14  C17        7.1060    6.3800   20.7780 C.2   1245  G151245     0.2438
     15  O20        8.3090    6.3840   20.6960 O.2   1245  G151245    -0.2733
     16  C16        6.1390    7.4760   21.1950 C.3   1245  G151245     0.1761
     17  N13        6.4430    8.8810   20.9380 N.3   1245  G151245    -0.0595
     18  S11        6.3560    9.9130   22.2060 S.O2  1245  G151245     0.1459
     19  O14        4.9730   10.0270   22.5760 O.2   1245  G151245    -0.1407
     20  O15        7.1240   11.0420   21.7880 O.2   1245  G151245    -0.1407
     21  C7         7.1410    9.2320   23.5930 C.1   1245  G151245     0.2442
     22  N2         6.4670    8.6010   24.5220 N.2   1245  G151245    -0.0533
     23  N3         7.3290    8.1310   25.4580 N.2   1245  G151245    -0.0695
     24  N1         8.4700    9.1720   23.7720 N.2   1245  G151245    -0.2761
     25  C1         8.5910    8.5160   24.9860 C.1   1245  G151245     0.1262
     26  C2         9.8910    8.1930   25.6470 C.ar  1245  G151245     0.1066
     27  C5         9.9140    7.6310   26.9240 C.ar  1245  G151245     0.0191
     28  C9        11.2550    7.3910   27.3180 C.ar  1245  G151245     0.0192
     29  C10       12.1390    7.7990   26.2950 C.ar  1245  G151245     0.0876
     30  S6        11.4100    8.4400   24.9100 S.2   1245  G151245    -0.0643
     31 CL         13.8510    7.6210   26.3890 Cl    1245  G151245    -0.0751
@<TRIPOS>BOND
     1     5     6    1
     2     5     4    1
     3     6     7    1
     4     4     3    1
     5     7     8    1
     6     3     8    1
     7     3     2   am
     8     1     2    2
     9     2     9    1
    10     9    11    1
    11     9    10    1
    12    11    12    1
    13    11    14   am
    14    13    12    1
    15    13    16    1
    16    15    14    2
    17    14    16    1
    18    17    16    1
    19    17    18    1
    20    20    18    2
    21    18    19    2
    22    18    21    1
    23    21    24    2
    24    21    22    2
    25    24    25    2
    26    22    23    1
    27    30    26   ar
    28    30    29   ar
    29    25    23    2
    30    25    26    1
    31    26    27   ar
    32    29    31    1
    33    29    28   ar
    34    27    28   ar
