@<TRIPOS>MOLECULE
2j95_GSX_A_1.pdb
 31 34 0 0 0
SMALL
GASTEIGER

@<TRIPOS>ATOM
      1 CL1        14.1050    7.5320   26.9890 Cl    1245  GSX1245    -0.0752
      2  C1        12.4180    7.7660   26.7000 C.ar  1245  GSX1245     0.0870
      3  C2        11.3760    7.3800   27.5560 C.ar  1245  GSX1245     0.0185
      4  C3        10.1060    7.6710   27.0020 C.ar  1245  GSX1245     0.0084
      5  C4        10.1930    8.3030   25.7530 C.ar  1245  GSX1245     0.0363
      6  C9         9.0800    8.6980   24.8590 C.ar  1245  GSX1245     0.0368
      7  C8         9.2010    9.4640   23.6880 C.ar  1245  GSX1245     0.0089
      8  C7         7.9870    9.6230   23.0020 C.ar  1245  GSX1245     0.0272
      9  C6         6.9270    8.9390   23.6060 C.ar  1245  GSX1245     0.1530
     10  S1         5.2290    8.8720   23.0360 S.O2  1245  GSX1245     0.0829
     11  O2         4.5230    8.3880   24.1970 O.2   1245  GSX1245    -0.1511
     12  O1         4.8170   10.0990   22.4130 O.2   1245  GSX1245    -0.1511
     13  N1         5.2710    7.7680   21.8600 N.3   1245  GSX1245    -0.0694
     14  C12        5.4710    6.3750   22.2560 C.3   1245  GSX1245     0.1754
     15  C13        4.2940    5.4580   21.9300 C.3   1245  GSX1245     0.0502
     16  C14        4.9270    4.1000   21.6030 C.3   1245  GSX1245     0.0959
     17  C15        6.6060    5.7240   21.4760 C.2   1245  GSX1245     0.2437
     18  O3         7.6600    6.2900   21.2230 O.2   1245  GSX1245    -0.2733
     19  N2         6.2760    4.4450   21.1530 N.am  1245  GSX1245    -0.2718
     20  C16        7.2050    3.4960   20.4630 C.3   1245  GSX1245     0.1521
     21  C17        7.2180    2.0470   21.0200 C.3   1245  GSX1245     0.0314
     22  C18        6.9850    3.4530   18.9410 C.2   1245  GSX1245     0.2439
     23  O4         5.8970    3.8310   18.5190 O.2   1245  GSX1245    -0.2731
     24  N3         8.0100    3.0420   18.1030 N.am  1245  GSX1245    -0.2731
     25  C19        7.7440    3.0970   16.6480 C.3   1245  GSX1245     0.1255
     26  C20        8.6830    2.2610   15.7710 C.3   1245  GSX1245     0.1636
     27  O5        10.0010    2.2340   16.2850 O.3   1245  GSX1245    -0.3501
     28  C22       10.0940    1.6970   17.5790 C.3   1245  GSX1245     0.1636
     29  C23        9.3640    2.6190   18.5570 C.3   1245  GSX1245     0.1255
     30  S3         7.4780    8.1250   25.0250 S.2   1245  GSX1245    -0.0667
     31  S6        11.8210    8.4880   25.2650 S.2   1245  GSX1245    -0.0750
@<TRIPOS>BOND
     1    26    27    1
     2    26    25    1
     3    27    28    1
     4    25    24    1
     5    28    29    1
     6    24    29    1
     7    24    22   am
     8    23    22    2
     9    22    20    1
    10    20    21    1
    11    20    19    1
    12    19    17   am
    13    19    16    1
    14    18    17    2
    15    17    14    1
    16    16    15    1
    17    13    14    1
    18    13    10    1
    19    15    14    1
    20    12    10    2
    21     8     9   ar
    22     8     7   ar
    23    10     9    1
    24    10    11    2
    25     9    30   ar
    26     7     6   ar
    27     6    30   ar
    28     6     5    1
    29    31     5   ar
    30    31     2   ar
    31     5     4   ar
    32     2     1    1
    33     2     3   ar
    34     4     3   ar
