@<TRIPOS>MOLECULE
2j96_PVN_A_1.pdb
 43 46 0 0 0
SMALL
GASTEIGER

@<TRIPOS>ATOM
      1  C31      -24.8750   15.2210   -3.8330 C.3   1163  PVN1163     0.0244
      2  C32      -24.3060   14.3310   -4.9460 C.3   1163  PVN1163     0.0047
      3  C3       -26.1100   16.0590   -4.3620 C.2   1163  PVN1163    -0.0142
      4  C2       -26.0810   17.0510   -5.3000 C.2   1163  PVN1163     0.0549
      5  C21      -24.8940   17.6180   -6.0840 C.3   1163  PVN1163     0.0430
      6  C1       -27.4940   17.5170   -5.4440 C.1   1163  PVN1163     0.1456
      7  O1       -27.8350   18.3940   -6.1960 O.2   1163  PVN1163    -0.2226
      8  N1       -28.3180   16.8320   -4.6290 N.2   1163  PVN1163    -0.2002
      9  C4       -27.5710   15.8970   -3.8960 C.3   1163  PVN1163     0.1404
     10  C5       -27.8120   15.9210   -2.4000 C.3   1163  PVN1163     0.0879
     11  C6       -29.1800   15.4800   -1.9200 C.2   1163  PVN1163     0.1067
     12  C7       -30.3320   16.2700   -1.8560 C.2   1163  PVN1163     0.0018
     13  C41      -30.5020   17.6960   -2.2300 C.3   1163  PVN1163     0.0331
     14  N2       -29.4810   14.2150   -1.4580 N.2   1163  PVN1163    -0.4107
     15  C9       -30.8260   14.1930   -1.1030 C.2   1163  PVN1163     0.1114
     16  C8       -31.3660   15.4640   -1.3570 C.2   1163  PVN1163     0.0024
     17  C51      -32.7760   16.0010   -1.1680 C.3   1163  PVN1163     0.0402
     18  C52      -32.9810   16.7020    0.1830 C.3   1163  PVN1163     0.1188
     19  C53      -33.7100   15.7830    1.1380 C.2   1163  PVN1163     0.3652
     20  O54      -34.6820   15.0950    0.7080 O.co2 1163  PVN1163    -0.2456
     21  O55      -33.3250   15.7310    2.3380 O.co2 1163  PVN1163    -0.2456
     22  C10      -31.5540   13.0750   -0.5690 C.3   1163  PVN1163     0.1170
     23  C11      -31.1470   11.7200   -0.5290 C.2   1163  PVN1163     0.1114
     24  C12      -31.9700   10.6400   -0.0830 C.2   1163  PVN1163     0.0024
     25  C61      -33.3890   10.7460    0.4340 C.3   1163  PVN1163     0.0402
     26  C62      -33.5790   10.2490    1.8840 C.3   1163  PVN1163     0.1188
     27  C63      -32.6420   10.9350    2.8270 C.2   1163  PVN1163     0.3652
     28  O64      -32.9520   12.0840    3.2470 O.co2 1163  PVN1163    -0.2456
     29  O65      -31.5730   10.3410    3.1490 O.co2 1163  PVN1163    -0.2456
     30  N3       -29.9170   11.1850   -0.9220 N.2   1163  PVN1163    -0.4104
     31  C14      -29.9750    9.8520   -0.7450 C.2   1163  PVN1163     0.1114
     32  C13      -31.2310    9.4870   -0.2270 C.2   1163  PVN1163     0.0021
     33  C71      -31.6710    8.0780    0.0930 C.3   1163  PVN1163     0.0331
     34  C15      -28.9170    8.9330   -1.1000 C.3   1163  PVN1163     0.1181
     35  C16      -28.5630    8.5160   -2.4210 C.2   1163  PVN1163     0.1254
     36  C17      -29.3810    8.5620   -3.6290 C.2   1163  PVN1163     0.0128
     37  C81      -30.7730    9.0610   -3.7850 C.3   1163  PVN1163     0.0339
     38  N4       -27.3080    7.9630   -2.7270 N.2   1163  PVN1163    -0.3375
     39  C19      -27.3460    7.6770   -4.0650 C.1   1163  PVN1163     0.2000
     40  O19      -26.4110    7.1750   -4.6880 O.2   1163  PVN1163    -0.2096
     41  C18      -28.5930    8.0290   -4.6560 C.2   1163  PVN1163     0.0706
     42  C91      -28.9840    7.8530   -6.1280 C.3   1163  PVN1163     0.0390
     43  C92      -29.1210    6.3700   -6.5030 C.3   1163  PVN1163     0.0058
@<TRIPOS>BOND
     1    43    42    1
     2     7     6    2
     3    42    41    1
     4     5     4    1
     5     6     4    1
     6     6     8    2
     7     4     3    2
     8     2     1    1
     9    40    39    2
    10    41    39    1
    11    41    36    2
    12     8     9    1
    13     3     9    1
    14     3     1    1
    15    39    38    2
    16     9    10    1
    17    37    36    1
    18    36    35    1
    19    38    35    2
    20    35    34    1
    21    10    11    1
    22    13    12    1
    23    11    12    1
    24    11    14    2
    25    12    16    2
    26    14    15    2
    27    16    17    1
    28    16    15    1
    29    17    18    1
    30    15    22    1
    31    34    31    1
    32    30    31    2
    33    30    23    2
    34    31    32    1
    35    22    23    1
    36    23    24    1
    37    32    24    2
    38    32    33    1
    39    24    25    1
    40    18    19    1
    41    25    26    1
    42    20    19   ar
    43    19    21   ar
    44    26    27    1
    45    27    29   ar
    46    27    28   ar
