@<TRIPOS>MOLECULE
2j9a_III_D_1.pdb
 39 40 0 0 0
SMALL
GASTEIGER

@<TRIPOS>ATOM
      1  N         65.9870   53.3170   18.5990 N.3     2  ALA2       -0.1231
      2  CA        67.0680   52.6970   19.3510 C.3     2  ALA2        0.1679
      3  C         66.5840   52.2600   20.7170 C.2     2  ALA2        0.2434
      4  O         65.8720   53.0300   21.3560 O.2     2  ALA2       -0.2733
      5  CB        68.2640   53.6850   19.5190 C.3     2  ALA2        0.0304
      6  N         66.9970   51.0530   21.1420 N.am    3  LEU3       -0.2700
      7  CN        67.8810   50.2480   20.2580 C.3     3  LEU3        0.1153
      8  CA        66.5740   50.5830   22.4990 C.3     3  LEU3        0.1535
      9  CB        65.9140   49.2070   22.4230 C.3     3  LEU3        0.0293
     10  CG        64.6400   49.2980   21.5070 C.3     3  LEU3        0.0021
     11  CD1       63.8960   47.9580   21.5030 C.3     3  LEU3        0.0001
     12  CD2       63.6570   50.4120   21.9160 C.3     3  LEU3        0.0001
     13  C         67.7610   50.7820   23.5130 C.2     3  LEU3        0.2599
     14  O         68.8810   51.1070   23.0840 O.2     3  LEU3       -0.2715
     15  N         67.4060   50.7060   24.8240 N.am    4  TYR4       -0.1960
     16  CA        68.2950   51.0230   26.0080 C.3     4  TYR4        0.1771
     17  C         68.5850   49.9630   27.1120 C.2     4  TYR4        0.2620
     18  O         68.2460   50.1820   28.2830 O.2     4  TYR4       -0.2715
     19  CB        67.5670   52.2200   26.7040 C.3     4  TYR4        0.0574
     20  CG        66.1120   51.8270   26.9990 C.ar    4  TYR4       -0.0198
     21  CD1       65.1340   52.0210   26.0100 C.ar    4  TYR4       -0.0009
     22  CD2       65.7640   51.2550   28.2330 C.ar    4  TYR4       -0.0009
     23  CE1       63.8080   51.6460   26.2260 C.ar    4  TYR4        0.0417
     24  CE2       64.4360   50.8840   28.4640 C.ar    4  TYR4        0.0417
     25  CZ        63.4570   51.0750   27.4660 C.ar    4  TYR4        0.1957
     26  OH        62.1520   50.6980   27.6950 O.3     4  TYR4       -0.2866
     27  N         69.2620   48.8530   26.8000 N.am    5  TYR5       -0.1938
     28  CA        69.7780   48.4390   25.4960 C.3     5  TYR5        0.2021
     29  C         69.2310   47.0220   25.3090 C.2     5  TYR5        0.3845
     30  O         69.9540   46.0640   25.6930 O.co2   5  TYR5       -0.2437
     31  CB        71.3330   48.4580   25.5440 C.3     5  TYR5        0.0596
     32  CG        72.0150   49.7800   25.0910 C.ar    5  TYR5       -0.0197
     33  CD1       71.3460   51.0020   25.2130 C.ar    5  TYR5       -0.0009
     34  CD2       73.3170   49.7660   24.5590 C.ar    5  TYR5       -0.0009
     35  CE1       71.9480   52.1950   24.8060 C.ar    5  TYR5        0.0417
     36  CE2       73.9300   50.9610   24.1570 C.ar    5  TYR5        0.0417
     37  CZ        73.2420   52.1830   24.2790 C.ar    5  TYR5        0.1957
     38  OH        73.8030   53.3720   23.8970 O.3     5  TYR5       -0.2866
     39  OXT       68.0790   46.9300   24.8140 O.co2   5  TYR5       -0.2437
@<TRIPOS>BOND
     1     1     2    1
     2     2     5    1
     3     2     3    1
     4     7     6    1
     5     3     6   am
     6     3     4    2
     7     6     8    1
     8    11    10    1
     9    10    12    1
    10    10     9    1
    11     9     8    1
    12     8    13    1
    13    14    13    2
    14    13    15   am
    15    38    37    1
    16    36    37   ar
    17    36    34   ar
    18    37    35   ar
    19    34    32   ar
    20    35    33   ar
    21    39    29   ar
    22    15    16    1
    23    32    33   ar
    24    32    31    1
    25    29    28    1
    26    29    30   ar
    27    28    31    1
    28    28    27    1
    29    16    19    1
    30    16    17    1
    31    21    23   ar
    32    21    20   ar
    33    23    25   ar
    34    19    20    1
    35    27    17   am
    36    20    22   ar
    37    17    18    2
    38    25    26    1
    39    25    24   ar
    40    22    24   ar
