@<TRIPOS>MOLECULE
2j9a_AHY_D_1.pdb
 13 12 0 0 0
SMALL
GASTEIGER

@<TRIPOS>ATOM
      1  C10       56.1860   53.3800   22.6030 C.3     1  AHY1        0.0000
      2  C9        57.1970   54.5350   22.7250 C.3     1  AHY1        0.0000
      3  C8        58.6770   54.1130   22.5140 C.3     1  AHY1        0.0000
      4  C7        58.9630   53.6830   21.0560 C.3     1  AHY1        0.0000
      5  C6        60.4710   53.8410   20.7380 C.3     1  AHY1        0.0000
      6  C5        60.7490   53.4230   19.2790 C.3     1  AHY1        0.0016
      7  C4        62.1750   53.7310   18.8780 C.3     1  AHY1        0.0221
      8  C3        62.5600   53.0510   17.5410 C.3     1  AHY1        0.1298
      9  N3        61.7610   53.6320   16.4050 N.3     1  AHY1       -0.1297
     10  C2        64.0310   53.3640   17.2410 C.3     1  AHY1        0.2333
     11  OH2       64.3960   52.9060   15.9630 O.3     1  AHY1       -0.2131
     12  C1        64.9870   52.5950   18.1510 C.2     1  AHY1        0.2415
     13  O         64.7890   51.4130   18.3940 O.2     1  AHY1       -0.2855
@<TRIPOS>BOND
     1    11    10    1
     2     9     8    1
     3    10     8    1
     4    10    12    1
     5     8     7    1
     6    12    13    2
     7     7     6    1
     8     6     5    1
     9     5     4    1
    10     4     3    1
    11     3     2    1
    12     1     2    1
