@<TRIPOS>MOLECULE
2j9b_HEM_A_1.pdb
 43 50 0 0 0
SMALL
GASTEIGER

@<TRIPOS>ATOM
      1 FE         24.6740    7.2180   59.4520 Fe    1128  HEM1128     0.0000
      2  CHA       24.8600    9.3060   62.1960 C.2   1128  HEM1128     0.0000
      3  CHB       27.9280    6.3840   59.8800 C.2   1128  HEM1128     0.0000
      4  CHC       24.2820    4.6250   57.2040 C.2   1128  HEM1128     0.0000
      5  CHD       21.3610    7.9800   59.0610 C.2   1128  HEM1128     0.0000
      6  NA        26.1010    7.7280   60.8010 N.2   1128  HEM1128     0.0000
      7  C1A       26.0000    8.6430   61.8270 C.2   1128  HEM1128     0.0000
      8  C2A       27.2760    8.7500   62.4930 C.2   1128  HEM1128     0.0000
      9  C3A       28.1370    7.9410   61.8500 C.2   1128  HEM1128     0.0000
     10  C4A       27.4130    7.2940   60.7860 C.2   1128  HEM1128     0.0000
     11  CMA       29.6120    7.6530   62.1740 C.3   1128  HEM1128     0.0000
     12  CAA       27.6010    9.6800   63.6720 C.3   1128  HEM1128     0.0000
     13  CBA       27.4110    9.0430   65.0400 C.3   1128  HEM1128     0.0000
     14  CGA       27.8750    9.9700   66.1370 C.2   1128  HEM1128     0.0000
     15  O1A       28.6310   10.9560   65.8820 O.co2 1128  HEM1128     0.0000
     16  O2A       27.5660    9.7220   67.3210 O.co2 1128  HEM1128     0.0000
     17  NB        25.8970    5.7080   58.7020 N.ar  1128  HEM1128     0.0000
     18  C1B       27.2520    5.6480   58.9400 C.ar  1128  HEM1128     0.0000
     19  C2B       27.8010    4.6260   58.0410 C.ar  1128  HEM1128     0.0000
     20  C3B       26.7670    4.1420   57.3160 C.ar  1128  HEM1128     0.0000
     21  C4B       25.5360    4.8190   57.7240 C.ar  1128  HEM1128     0.0000
     22  CMB       29.2870    4.2620   57.9200 C.3   1128  HEM1128     0.0000
     23  CAB       26.8180    3.0510   56.2260 C.3   1128  HEM1128     0.0000
     24  CBB       27.6320    1.9410   56.4410 C.3   1128  HEM1128     0.0000
     25  NC        23.1460    6.4360   58.3860 N.2   1128  HEM1128     0.0000
     26  C1C       23.1750    5.4080   57.4610 C.2   1128  HEM1128     0.0000
     27  C2C       21.9110    5.2440   56.8060 C.2   1128  HEM1128     0.0000
     28  C3C       21.0690    6.1980   57.3100 C.2   1128  HEM1128     0.0000
     29  C4C       21.8430    6.9460   58.2990 C.2   1128  HEM1128     0.0000
     30  CMC       21.6270    4.1950   55.7130 C.3   1128  HEM1128     0.0000
     31  CAC       19.5810    6.4840   56.9450 C.3   1128  HEM1128     0.0000
     32  CBC       18.8090    5.4640   56.4150 C.3   1128  HEM1128     0.0000
     33  ND        23.3370    8.4040   60.4680 N.ar  1128  HEM1128     0.0000
     34  C1D       22.0210    8.6320   60.0450 C.ar  1128  HEM1128     0.0000
     35  C2D       21.4280    9.6220   60.9210 C.ar  1128  HEM1128     0.0000
     36  C3D       22.4780   10.0150   61.8810 C.ar  1128  HEM1128     0.0000
     37  C4D       23.6530    9.2280   61.5370 C.ar  1128  HEM1128     0.0000
     38  CMD       20.0180   10.1980   60.8530 C.3   1128  HEM1128     0.0000
     39  CAD       22.3410   10.9920   63.0650 C.3   1128  HEM1128     0.0000
     40  CBD       21.9900   10.1810   64.3370 C.3   1128  HEM1128     0.0000
     41  CGD       21.7830   11.1250   65.5160 C.2   1128  HEM1128     0.0000
     42  O1D       20.7610   10.9820   66.2280 O.co2 1128  HEM1128     0.0000
     43  O2D       22.6590   12.0100   65.7440 O.co2 1128  HEM1128     0.0000
@<TRIPOS>BOND
     1    30    27    1
     2    23    24    1
     3    23    20    1
     4    32    31    1
     5    27    28    2
     6    27    26    1
     7    31    28    1
     8     4    26    2
     9     4    21    1
    10    28    29    1
    11    20    21   ar
    12    20    19   ar
    13    26    25    1
    14    21    17   ar
    15    22    19    1
    16    19    18   ar
    17    29    25    2
    18    29     5    1
    19    25     1    1
    20    17    18   ar
    21    17     1    1
    22    18     3    1
    23     5    34    2
    24     1    33    1
    25     1     6    1
    26     3    10    2
    27    34    33   ar
    28    34    35   ar
    29    33    37   ar
    30    10     6    1
    31    10     9    1
    32     6     7    2
    33    38    35    1
    34    35    36   ar
    35    37    36   ar
    36    37     2    2
    37     7     2    1
    38     7     8    1
    39     9    11    1
    40     9     8    2
    41    36    39    1
    42     8    12    1
    43    39    40    1
    44    12    13    1
    45    40    41    1
    46    13    14    1
    47    41    43   ar
    48    41    42   ar
    49    15    14   ar
    50    14    16   ar
