@<TRIPOS>MOLECULE
2j9c_ATP_A_1.pdb
 31 33 0 0 0
SMALL
GASTEIGER

@<TRIPOS>ATOM
      1  PG        42.6660   27.4670    0.1310 P.3   1116  ATP1116     0.5373
      2  O1G       42.4140   26.1230    0.5840 O.3   1116  ATP1116    -0.1143
      3  O2G       44.0920   27.8680    0.4490 O.3   1116  ATP1116    -0.1143
      4  O3G       42.2290   27.9500   -1.2480 O.2   1116  ATP1116    -0.2221
      5  PB        41.1260   29.7580    1.0410 P.3   1116  ATP1116     0.2277
      6  O1B       40.9590   30.3960    2.3950 O.3   1116  ATP1116    -0.4368
      7  O2B       41.8490   30.5410   -0.0160 O.2   1116  ATP1116    -0.5168
      8  O3B       41.7340   28.3030    1.2390 O.3   1116  ATP1116    -0.2258
      9  PA        39.1650   28.8700   -0.8660 P.3   1116  ATP1116     0.2189
     10  O1A       40.0160   29.5070   -1.9000 O.2   1116  ATP1116    -0.5170
     11  O2A       39.0210   27.3780   -0.8580 O.3   1116  ATP1116    -0.4371
     12  O3A       39.6360   29.3990    0.5900 O.3   1116  ATP1116    -0.2700
     13  O5'       37.7050   29.5350   -0.9050 O.3   1116  ATP1116    -0.3112
     14  C5'       36.6000   28.7740   -1.4600 C.3   1116  ATP1116     0.1813
     15  C4'       35.3960   29.7010   -1.5630 C.3   1116  ATP1116     0.1821
     16  O4'       34.9820   30.0670   -0.2690 O.3   1116  ATP1116    -0.3135
     17  C3'       35.6530   31.0080   -2.3270 C.3   1116  ATP1116     0.2184
     18  O3'       35.6900   30.8900   -3.7570 O.3   1116  ATP1116    -0.2174
     19  C2'       34.5260   31.8880   -1.7940 C.3   1116  ATP1116     0.2570
     20  O2'       33.3330   31.5240   -2.4910 O.3   1116  ATP1116    -0.2130
     21  C1'       34.4480   31.4070   -0.3900 C.3   1116  ATP1116     0.3186
     22  N9        35.2380   32.2080    0.5690 N.pl3 1116  ATP1116    -0.1439
     23  C8        36.5310   32.0540    0.9750 C.3   1116  ATP1116     0.3377
     24  N7        36.9300   32.9760    1.8650 N.2   1116  ATP1116    -0.2095
     25  C5        35.8100   33.7210    2.0710 C.2   1116  ATP1116     0.2526
     26  C6        35.5230   34.8370    2.9530 C.2   1116  ATP1116     0.4393
     27  N6        36.4270   35.3350    3.7960 N.pl3 1116  ATP1116     0.2180
     28  N1        34.2890   35.3650    2.8780 N.2   1116  ATP1116     0.0021
     29  C2        33.3710   34.8790    2.0400 C.3   1116  ATP1116     0.5254
     30  N3        33.5580   33.8510    1.2000 N.2   1116  ATP1116    -0.0055
     31  C4        34.7440   33.2570    1.2320 C.2   1116  ATP1116     0.3518
@<TRIPOS>BOND
     1    18    17    1
     2    20    19    1
     3    17    19    1
     4    17    15    1
     5    10     9    2
     6    19    21    1
     7    15    14    1
     8    15    16    1
     9    14    13    1
    10     4     1    2
    11    13     9    1
    12     9    11    1
    13     9    12    1
    14    21    16    1
    15    21    22    1
    16     7     5    2
    17     1     3    1
    18     1     2    1
    19     1     8    1
    20    22    23    1
    21    22    31    1
    22    12     5    1
    23    23    24    1
    24     5     8    1
    25     5     6    1
    26    30    31    2
    27    30    29    1
    28    31    25    1
    29    24    25    2
    30    29    28    1
    31    25    26    1
    32    28    26    2
    33    26    27    1
