@<TRIPOS>MOLECULE
2j9d_ADP_B_1.pdb
 27 29 0 0 0
SMALL
GASTEIGER

@<TRIPOS>ATOM
      1  PB        35.2540  102.1960   34.4470 P.3   1115  ADP1115     0.5373
      2  O1B       33.9410  102.9230   34.2710 O.3   1115  ADP1115    -0.1143
      3  O2B       35.3010  100.8160   33.8450 O.2   1115  ADP1115    -0.2221
      4  O3B       35.8330  102.2890   35.8380 O.3   1115  ADP1115    -0.1143
      5  PA        37.6380  102.4840   32.9010 P.3   1115  ADP1115     0.2231
      6  O1A       38.2970  101.5310   33.8740 O.3   1115  ADP1115    -0.4370
      7  O2A       37.3820  102.0300   31.4900 O.2   1115  ADP1115    -0.5169
      8  O3A       36.2520  103.0660   33.5200 O.3   1115  ADP1115    -0.2261
      9  O5'       38.4520  103.8620   32.8390 O.3   1115  ADP1115    -0.3111
     10  C5'       37.8190  104.9700   32.2230 C.3   1115  ADP1115     0.1813
     11  C4'       38.8210  106.0580   31.9230 C.3   1115  ADP1115     0.1821
     12  O4'       39.4600  106.4960   33.1320 O.3   1115  ADP1115    -0.3135
     13  C3'       39.9160  105.5780   30.9850 C.3   1115  ADP1115     0.2184
     14  O3'       39.5690  105.7590   29.6000 O.3   1115  ADP1115    -0.2174
     15  C2'       41.1140  106.3840   31.4470 C.3   1115  ADP1115     0.2570
     16  O2'       41.1730  107.6450   30.7890 O.3   1115  ADP1115    -0.2130
     17  C1'       40.8700  106.6740   32.9180 C.3   1115  ADP1115     0.3186
     18  N9        41.6160  105.8310   33.8900 N.pl3 1115  ADP1115    -0.1439
     19  C8        41.2640  104.6010   34.3250 C.3   1115  ADP1115     0.3377
     20  N7        42.1380  104.1270   35.2460 N.2   1115  ADP1115    -0.2095
     21  C5        43.0740  105.0710   35.4220 C.2   1115  ADP1115     0.2526
     22  C6        44.2960  105.2110   36.2490 C.2   1115  ADP1115     0.4393
     23  N6        44.7010  104.2360   37.0870 N.pl3 1115  ADP1115     0.2180
     24  N1        45.0020  106.3450   36.1280 N.2   1115  ADP1115     0.0021
     25  C2        44.6260  107.3390   35.2930 C.3   1115  ADP1115     0.5254
     26  N3        43.5310  107.2710   34.5120 N.2   1115  ADP1115    -0.0055
     27  C4        42.7290  106.1870   34.5280 C.2   1115  ADP1115     0.3518
@<TRIPOS>BOND
     1    14    13    1
     2    16    15    1
     3    13    15    1
     4    13    11    1
     5    15    17    1
     6     7     5    2
     7    11    10    1
     8    11    12    1
     9    10     9    1
    10     9     5    1
    11     5     8    1
    12     5     6    1
    13    17    12    1
    14    17    18    1
    15     8     1    1
    16     3     1    2
    17    18    19    1
    18    18    27    1
    19     2     1    1
    20    19    20    1
    21     1     4    1
    22    26    27    2
    23    26    25    1
    24    27    21    1
    25    20    21    2
    26    25    24    1
    27    21    22    1
    28    24    22    2
    29    22    23    1
