@<TRIPOS>MOLECULE
2j9d_AMP_E_1.pdb
 23 25 0 0 0
SMALL
GASTEIGER

@<TRIPOS>ATOM
      1  P         53.1570  137.4170    3.5980 P.3   1115  AMP1115     0.5327
      2  O1P       53.6560  137.5570    2.1690 O.2   1115  AMP1115    -0.2224
      3  O2P       51.8690  138.1710    3.8320 O.3   1115  AMP1115    -0.1145
      4  O3P       54.2670  137.5960    4.6170 O.3   1115  AMP1115    -0.1145
      5  O5'       52.7560  135.8670    3.8260 O.3   1115  AMP1115    -0.2675
      6  C5'       52.0850  135.4780    5.0250 C.3   1115  AMP1115     0.1860
      7  C4'       51.7410  133.9850    5.0620 C.3   1115  AMP1115     0.1823
      8  O4'       51.6920  133.3090    3.7830 O.3   1115  AMP1115    -0.3135
      9  C3'       52.7900  133.2610    5.8830 C.3   1115  AMP1115     0.2184
     10  O3'       52.4020  133.2780    7.2530 O.3   1115  AMP1115    -0.2174
     11  C2'       52.8840  131.8700    5.2900 C.3   1115  AMP1115     0.2570
     12  O2'       52.1100  130.9340    6.0310 O.3   1115  AMP1115    -0.2130
     13  C1'       52.3670  132.0390    3.8680 C.3   1115  AMP1115     0.3186
     14  N9        53.5570  131.9860    2.9800 N.pl3 1115  AMP1115    -0.1439
     15  C8        54.3340  133.0400    2.6280 C.3   1115  AMP1115     0.3377
     16  N7        55.3630  132.6600    1.8190 N.2   1115  AMP1115    -0.2095
     17  C5        55.2540  131.3260    1.6670 C.2   1115  AMP1115     0.2526
     18  C6        56.0070  130.2800    0.9450 C.2   1115  AMP1115     0.4393
     19  N6        57.0990  130.6100    0.2210 N.pl3 1115  AMP1115     0.2180
     20  N1        55.5700  129.0060    1.0510 N.2   1115  AMP1115     0.0021
     21  C2        54.4840  128.6590    1.7780 C.3   1115  AMP1115     0.5254
     22  N3        53.7510  129.5590    2.4620 N.2   1115  AMP1115    -0.0055
     23  C4        54.0710  130.8800    2.4410 C.2   1115  AMP1115     0.3518
@<TRIPOS>BOND
     1    19    18    1
     2    18    20    2
     3    18    17    1
     4    20    21    1
     5    17    16    2
     6    17    23    1
     7    21    22    1
     8    16    15    1
     9     2     1    2
    10    23    22    2
    11    23    14    1
    12    15    14    1
    13    14    13    1
    14     1     5    1
    15     1     3    1
    16     1     4    1
    17     8    13    1
    18     8     7    1
    19     5     6    1
    20    13    11    1
    21     6     7    1
    22     7     9    1
    23    11     9    1
    24    11    12    1
    25     9    10    1
