@<TRIPOS>MOLECULE
2j9e_ATP_A_1.pdb
 31 33 0 0 0
SMALL
GASTEIGER

@<TRIPOS>ATOM
      1  PG         9.1760   31.6480    2.4770 P.3   1115  ATP1115     0.5373
      2  O1G        9.8400   31.0630    1.2590 O.2   1115  ATP1115    -0.2221
      3  O2G       10.0600   32.4730    3.3660 O.3   1115  ATP1115    -0.1143
      4  O3G        7.8100   32.2260    2.2460 O.3   1115  ATP1115    -0.1143
      5  PB        10.0850   29.2960    3.6230 P.3   1115  ATP1115     0.2277
      6  O1B        9.5630   28.0760    4.3500 O.3   1115  ATP1115    -0.4368
      7  O2B       11.2920   30.0520    4.0900 O.2   1115  ATP1115    -0.5168
      8  O3B        8.8790   30.3220    3.3540 O.3   1115  ATP1115    -0.2258
      9  PA        10.0970   27.4030    1.6180 P.3   1115  ATP1115     0.2189
     10  O1A       10.9140   27.3700    0.3300 O.2   1115  ATP1115    -0.5170
     11  O2A        8.6310   27.0740    1.5890 O.3   1115  ATP1115    -0.4371
     12  O3A       10.5190   28.7910    2.1940 O.3   1115  ATP1115    -0.2700
     13  O5'       10.8130   26.3340    2.6090 O.3   1115  ATP1115    -0.3112
     14  C5'       12.1860   26.3040    2.9310 C.3   1115  ATP1115     0.1813
     15  C4'       12.5730   24.8680    3.2690 C.3   1115  ATP1115     0.1821
     16  O4'       11.9470   24.4710    4.4960 O.3   1115  ATP1115    -0.3135
     17  C3'       12.1170   23.8500    2.2510 C.3   1115  ATP1115     0.2184
     18  O3'       13.0770   23.7060    1.2000 O.3   1115  ATP1115    -0.2174
     19  C2'       11.9660   22.5970    3.1070 C.3   1115  ATP1115     0.2570
     20  O2'       13.2240   21.9640    3.3430 O.3   1115  ATP1115    -0.2130
     21  C1'       11.4790   23.1300    4.4220 C.3   1115  ATP1115     0.3186
     22  N9        10.0190   23.1710    4.5660 N.pl3 1115  ATP1115    -0.1439
     23  C8         9.2210   24.2340    4.3160 C.3   1115  ATP1115     0.3377
     24  N7         7.9320   23.9560    4.5930 N.2   1115  ATP1115    -0.2095
     25  C5         7.9120   22.6990    5.0910 C.2   1115  ATP1115     0.2526
     26  C6         6.8950   21.7740    5.5730 C.2   1115  ATP1115     0.4393
     27  N6         5.6140   22.1510    5.6050 N.pl3 1115  ATP1115     0.2180
     28  N1         7.2860   20.5570    5.9960 N.2   1115  ATP1115     0.0021
     29  C2         8.5800   20.1430    5.9400 C.3   1115  ATP1115     0.5254
     30  N3         9.5600   20.9430    5.4880 N.2   1115  ATP1115    -0.0055
     31  C4         9.2810   22.1810    5.0560 C.2   1115  ATP1115     0.3518
@<TRIPOS>BOND
     1    10     9    2
     2    18    17    1
     3     2     1    2
     4    11     9    1
     5     9    12    1
     6     9    13    1
     7    12     5    1
     8     4     1    1
     9    17    19    1
    10    17    15    1
    11     1     8    1
    12     1     3    1
    13    13    14    1
    14    14    15    1
    15    19    20    1
    16    19    21    1
    17    15    16    1
    18     8     5    1
    19     5     7    2
    20     5     6    1
    21    23    22    1
    22    23    24    1
    23    21    16    1
    24    21    22    1
    25    22    31    1
    26    24    25    2
    27    31    25    1
    28    31    30    2
    29    25    26    1
    30    30    29    1
    31    26    27    1
    32    26    28    2
    33    29    28    1
