@<TRIPOS>MOLECULE
2j9e_AKG_C_1.pdb
 10 9 0 0 0
SMALL
GASTEIGER

@<TRIPOS>ATOM
      1  C1        22.2900   -9.2270    3.0550 C.2   1119  AKG1119     0.4219
      2  O1        21.8710  -10.4070    2.9290 O.co2 1119  AKG1119    -0.2373
      3  O2        22.0070   -8.5450    4.0600 O.co2 1119  AKG1119    -0.2373
      4  C2        23.1030   -8.6330    1.9930 C.2   1119  AKG1119     0.2526
      5  O5        24.2610   -8.9940    1.8290 O.2   1119  AKG1119    -0.2843
      6  C3        22.4870   -7.5800    1.0980 C.3   1119  AKG1119     0.0881
      7  C4        23.3130   -7.3140   -0.1590 C.3   1119  AKG1119     0.1224
      8  C5        24.3100   -6.2040    0.0470 C.2   1119  AKG1119     0.3653
      9  O3        24.8680   -5.7430   -0.9680 O.co2 1119  AKG1119    -0.2456
     10  O4        24.5500   -5.7820    1.1960 O.co2 1119  AKG1119    -0.2456
@<TRIPOS>BOND
     1     9     8   ar
     2     7     8    1
     3     7     6    1
     4     8    10   ar
     5     6     4    1
     6     5     4    2
     7     4     1    1
     8     2     1   ar
     9     1     3   ar
