@<TRIPOS>MOLECULE
2j9f_THV_A_1.pdb
 31 32 0 0 0
SMALL
GASTEIGER

@<TRIPOS>ATOM
      1  O2B       30.2790   63.4580   15.8980 O.2   1403  THV1403    -0.2221
      2  PB        29.4180   62.3270   16.6080 P.3   1403  THV1403     0.5373
      3  O3B       29.8940   60.8960   16.1080 O.3   1403  THV1403    -0.1143
      4  O1B       27.9680   62.6650   16.3970 O.3   1403  THV1403    -0.1143
      5  O3A       29.7670   62.4990   18.2280 O.3   1403  THV1403    -0.2261
      6  PA        30.8570   61.7480   19.1240 P.3   1403  THV1403     0.2230
      7  O1A       30.6290   62.3010   20.4800 O.3   1403  THV1403    -0.4370
      8  O2A       30.8100   60.3000   18.9610 O.2   1403  THV1403    -0.5169
      9  O5G       32.2560   62.2450   18.5200 O.3   1403  THV1403    -0.3134
     10  C5B       32.6990   63.5680   18.7530 C.3   1403  THV1403     0.1544
     11  C5A       33.9230   63.8240   17.8830 C.3   1403  THV1403     0.0661
     12  C5        34.4080   65.2870   17.9350 C.2   1403  THV1403     0.0167
     13  C4        35.6000   65.8250   18.4380 C.2   1403  THV1403     0.0281
     14  C4A       36.6950   64.9380   19.1100 C.3   1403  THV1403     0.0473
     15  S1        33.4850   66.6120   17.3030 S.3   1403  THV1403    -0.0904
     16  C2        34.6850   67.8280   17.7140 C.3   1403  THV1403     0.1836
     17  C8        34.5610   69.3670   17.4080 C.2   1403  THV1403     0.1788
     18  O9        35.4530   70.1750   17.7310 O.2   1403  THV1403    -0.2934
     19  C9        33.2810   69.9050   16.7050 C.3   1403  THV1403     0.0603
     20  C10       32.3240   70.5670   17.7280 C.3   1403  THV1403     0.0078
     21  C11       33.6290   70.9010   15.5840 C.3   1403  THV1403     0.0078
     22  N3        35.7260   67.1780   18.3150 N.pl3 1403  THV1403    -0.2933
     23  C35       36.8870   67.8700   18.8790 C.3   1403  THV1403     0.1240
     24  C5'       36.6950   68.0180   20.4620 C.2   1403  THV1403     0.0654
     25  C6'       37.5920   67.3880   21.3500 C.2   1403  THV1403     0.1115
     26  N1'       37.5070   67.4550   22.7030 N.2   1403  THV1403    -0.1861
     27  C2'       36.5390   68.1500   23.3080 C.1   1403  THV1403     0.0663
     28  C2A       36.4230   68.2740   24.8250 C.3   1403  THV1403     0.1291
     29  N3'       35.6060   68.7880   22.5140 N.2   1403  THV1403    -0.3368
     30  C4'       35.6750   68.7460   21.1260 C.2   1403  THV1403     0.2292
     31  N4'       34.7540   69.4530   20.4870 N.pl3 1403  THV1403    -0.0925
@<TRIPOS>BOND
     1    21    19    1
     2     1     2    2
     3     3     2    1
     4     4     2    1
     5     2     5    1
     6    19    17    1
     7    19    20    1
     8    15    16    1
     9    15    12    1
    10    17    16    1
    11    17    18    2
    12    16    22    1
    13    11    12    1
    14    11    10    1
    15    12    13    2
    16     5     6    1
    17    22    13    1
    18    22    23    1
    19    13    14    1
    20     9    10    1
    21     9     6    1
    22    23    24    1
    23     8     6    2
    24     6     7    1
    25    24    30    1
    26    24    25    2
    27    31    30    1
    28    30    29    2
    29    25    26    1
    30    29    27    2
    31    26    27    2
    32    27    28    1
