@<TRIPOS>MOLECULE
2j9g_ANP_A_1.pdb
 31 33 0 0 0
SMALL
GASTEIGER

@<TRIPOS>ATOM
      1  PG         2.4310  -18.9200   35.1940 P.3   1449  ANP1449     0.4884
      2  O1G        3.3720  -18.3020   34.1960 O.2   1449  ANP1449    -0.2331
      3  O2G        0.9800  -18.7370   34.8090 O.3   1449  ANP1449    -0.1240
      4  O3G        2.8220  -20.3420   35.5280 O.3   1449  ANP1449    -0.1240
      5  PB         1.4770  -17.7810   37.9140 P.3   1449  ANP1449     0.4669
      6  O1B        0.2630  -18.6310   37.6050 O.2   1449  ANP1449    -0.2351
      7  O2B        2.1800  -17.9890   39.2390 O.3   1449  ANP1449    -0.1253
      8  N3B        2.6970  -17.9870   36.6610 N.3   1449  ANP1449    -0.0163
      9  PA         0.6950  -15.4740   36.5140 P.3   1449  ANP1449     0.2220
     10  O1A        0.4380  -14.0120   36.8090 O.3   1449  ANP1449    -0.4370
     11  O2A       -0.3620  -16.2790   35.7890 O.2   1449  ANP1449    -0.5170
     12  O3A        1.0050  -16.2350   37.9030 O.3   1449  ANP1449    -0.2360
     13  O5'        2.1090  -15.5790   35.7310 O.3   1449  ANP1449    -0.3111
     14  C5'        2.1510  -15.4520   34.3080 C.3   1449  ANP1449     0.1813
     15  C4'        3.3940  -14.7090   33.8310 C.3   1449  ANP1449     0.1821
     16  O4'        4.6150  -15.0710   34.4910 O.3   1449  ANP1449    -0.3135
     17  C3'        3.6880  -14.9740   32.3640 C.3   1449  ANP1449     0.2184
     18  O3'        2.7800  -14.3210   31.4810 O.3   1449  ANP1449    -0.2174
     19  C2'        5.0960  -14.4420   32.2640 C.3   1449  ANP1449     0.2570
     20  O2'        5.1230  -13.0170   32.1890 O.3   1449  ANP1449    -0.2130
     21  C1'        5.7150  -14.9000   33.5770 C.3   1449  ANP1449     0.3186
     22  N9         6.4480  -16.1700   33.3200 N.pl3 1449  ANP1449    -0.1439
     23  C8         6.1980  -17.3670   33.8870 C.3   1449  ANP1449     0.3377
     24  N7         7.0490  -18.3120   33.4220 N.2   1449  ANP1449    -0.2095
     25  C5         7.8700  -17.7200   32.5390 C.2   1449  ANP1449     0.2526
     26  C6         8.9990  -18.1370   31.6820 C.2   1449  ANP1449     0.4393
     27  N6         9.4190  -19.4150   31.6920 N.pl3 1449  ANP1449     0.2180
     28  N1         9.5850  -17.2070   30.8960 N.2   1449  ANP1449     0.0021
     29  C2         9.1670  -15.9280   30.8810 C.3   1449  ANP1449     0.5254
     30  N3         8.1510  -15.4800   31.6370 N.2   1449  ANP1449    -0.0055
     31  C4         7.4730  -16.3090   32.4730 C.2   1449  ANP1449     0.3518
@<TRIPOS>BOND
     1    29    28    1
     2    29    30    1
     3    28    26    2
     4    18    17    1
     5    30    31    2
     6    26    27    1
     7    26    25    1
     8    20    19    1
     9    19    17    1
    10    19    21    1
    11    17    15    1
    12    31    25    1
    13    31    22    1
    14    25    24    2
    15    22    21    1
    16    22    23    1
    17    24    23    1
    18    21    16    1
    19    15    14    1
    20    15    16    1
    21     2     1    2
    22    14    13    1
    23     3     1    1
    24     1     4    1
    25     1     8    1
    26    13     9    1
    27    11     9    2
    28     9    10    1
    29     9    12    1
    30     8     5    1
    31     6     5    2
    32    12     5    1
    33     5     7    1
