@<TRIPOS>MOLECULE
2j9g_ADP_B_1.pdb
 27 29 0 0 0
SMALL
GASTEIGER

@<TRIPOS>ATOM
      1  PB        12.5230    3.3800   60.9600 P.3   1449  ADP1449     0.5373
      2  O1B       11.3790    3.9570   61.7570 O.3   1449  ADP1449    -0.1143
      3  O2B       13.4810    2.5740   61.7970 O.3   1449  ADP1449    -0.1143
      4  O3B       12.1330    2.7010   59.6630 O.2   1449  ADP1449    -0.2221
      5  PA        12.8880    6.0500   59.9360 P.3   1449  ADP1449     0.2231
      6  O1A       11.4000    6.1800   60.1390 O.3   1449  ADP1449    -0.4370
      7  O2A       13.4880    6.2480   58.5660 O.2   1449  ADP1449    -0.5169
      8  O3A       13.4330    4.6340   60.5020 O.3   1449  ADP1449    -0.2261
      9  O5'       13.5930    7.1000   60.9330 O.3   1449  ADP1449    -0.3111
     10  C5'       13.4880    6.9370   62.3480 C.3   1449  ADP1449     0.1813
     11  C4'       14.3310    7.9670   63.0970 C.3   1449  ADP1449     0.1821
     12  O4'       15.7180    7.8740   62.7440 O.3   1449  ADP1449    -0.3135
     13  C3'       13.9050    9.4000   62.8140 C.3   1449  ADP1449     0.2184
     14  O3'       12.8920    9.8510   63.7220 O.3   1449  ADP1449    -0.2174
     15  C2'       15.1990   10.1710   62.9550 C.3   1449  ADP1449     0.2570
     16  O2'       15.3930   10.5840   64.3110 O.3   1449  ADP1449    -0.2130
     17  C1'       16.2780    9.1780   62.5450 C.3   1449  ADP1449     0.3186
     18  N9        16.6290    9.3940   61.1200 N.pl3 1449  ADP1449    -0.1439
     19  C8        16.2490    8.6370   60.0680 C.3   1449  ADP1449     0.3377
     20  N7        16.7440    9.1310   58.9040 N.2   1449  ADP1449    -0.2095
     21  C5        17.4550   10.2310   59.2030 C.2   1449  ADP1449     0.2526
     22  C6        18.2400   11.2340   58.4480 C.2   1449  ADP1449     0.4393
     23  N6        18.3600   11.1470   57.1020 N.pl3 1449  ADP1449     0.2180
     24  N1        18.8300   12.2310   59.1490 N.2   1449  ADP1449     0.0021
     25  C2        18.7160   12.3280   60.4900 C.3   1449  ADP1449     0.5254
     26  N3        18.0160   11.4510   61.2360 N.2   1449  ADP1449    -0.0055
     27  C4        17.3740   10.4020   60.6640 C.2   1449  ADP1449     0.3518
@<TRIPOS>BOND
     1    23    22    1
     2    22    24    2
     3    22    21    1
     4     7     5    2
     5    20    21    2
     6    20    19    1
     7    24    25    1
     8    21    27    1
     9     4     1    2
    10     5     6    1
    11     5     8    1
    12     5     9    1
    13    19    18    1
    14    25    26    1
    15     8     1    1
    16    27    18    1
    17    27    26    2
    18     9    10    1
    19     1     2    1
    20     1     3    1
    21    18    17    1
    22    10    11    1
    23    17    12    1
    24    17    15    1
    25    12    11    1
    26    13    15    1
    27    13    11    1
    28    13    14    1
    29    15    16    1
