@<TRIPOS>MOLECULE
2j9h_GTX_A_1.pdb
 26 25 0 0 0
SMALL
GASTEIGER

@<TRIPOS>ATOM
      1  N1        15.4020   -2.9120   11.8320 N.3   300  GTX300     -0.1208
      2  CA1       14.0070   -3.2720   11.6950 C.3   300  GTX300      0.1948
      3  C1        13.8050   -4.7360   11.9700 C.2   300  GTX300      0.3819
      4  O11       14.5550   -5.5910   11.4960 O.co2 300  GTX300     -0.2441
      5  O12       12.8710   -5.1470   12.6730 O.co2 300  GTX300     -0.2441
      6  CB1       13.5060   -2.8510   10.3140 C.3   300  GTX300      0.0402
      7  CG1       12.0560   -3.2470   10.0980 C.3   300  GTX300      0.0889
      8  CD1       11.5730   -2.6320    8.8230 C.2   300  GTX300      0.2418
      9  OE1       12.5020   -2.1440    7.8940 O.2   300  GTX300     -0.2733
     10  N2        10.2550   -2.5590    8.6110 N.am  300  GTX300     -0.1969
     11  CA2        9.7590   -1.7860    7.4850 C.3   300  GTX300      0.1834
     12  C2         8.4790   -1.0540    7.7370 C.2   300  GTX300      0.2626
     13  O2         7.6750   -1.4000    8.8450 O.2   300  GTX300     -0.2714
     14  CB2        9.6150   -2.6610    6.2600 C.3   300  GTX300      0.0886
     15  SG2        8.3810   -3.9580    6.5170 S.3   300  GTX300     -0.1379
     16  C1S        8.4130   -4.0510    4.7150 C.3   300  GTX300      0.0576
     17  C2S        7.8410   -5.3370    4.1480 C.3   300  GTX300      0.0116
     18  C3S        6.3430   -5.1760    3.9750 C.3   300  GTX300      0.0009
     19  C4S        6.0050   -4.5820    2.6160 C.3   300  GTX300      0.0000
     20  C5S        4.5690   -4.9420    2.2400 C.3   300  GTX300      0.0000
     21  C6S        4.0450   -3.9610    1.2020 C.3   300  GTX300      0.0000
     22  N3         8.1900   -0.1050    6.8390 N.am  300  GTX300     -0.1917
     23  CA3        7.0410    0.7780    6.9380 C.3   300  GTX300      0.2285
     24  C3         7.3970    2.2350    7.2090 C.2   300  GTX300      0.3865
     25  O31        6.5180    3.1020    6.9980 O.co2 300  GTX300     -0.2437
     26  O32        8.5350    2.5990    7.6330 O.co2 300  GTX300     -0.2437
@<TRIPOS>BOND
     1    21    20    1
     2    20    19    1
     3    19    18    1
     4    18    17    1
     5    17    16    1
     6    16    15    1
     7    14    15    1
     8    14    11    1
     9    22    23    1
    10    22    12   am
    11    23    24    1
    12    25    24   ar
    13    24    26   ar
    14    11    12    1
    15    11    10    1
    16    12    13    2
    17     9     8    2
    18    10     8   am
    19     8     7    1
    20     7     6    1
    21     6     2    1
    22     4     3   ar
    23     2     1    1
    24     2     3    1
    25     3     5   ar
