@<TRIPOS>MOLECULE
2j9l_ATP_A_1.pdb
 31 33 0 0 0
SMALL
GASTEIGER

@<TRIPOS>ATOM
      1  PG        14.2980   75.9230   56.8070 P.3   1752  ATP1752     0.5373
      2  O1G       14.8130   75.8020   58.3540 O.3   1752  ATP1752    -0.1143
      3  O2G       15.4610   76.7600   56.0260 O.2   1752  ATP1752    -0.2221
      4  O3G       12.9510   76.5570   56.6990 O.3   1752  ATP1752    -0.1143
      5  PB        13.5210   74.0030   54.9300 P.3   1752  ATP1752     0.2277
      6  O1B       12.1320   73.7010   55.3000 O.3   1752  ATP1752    -0.4368
      7  O2B       14.3300   72.9780   54.2600 O.2   1752  ATP1752    -0.5168
      8  O3B       14.3500   74.4210   56.2200 O.3   1752  ATP1752    -0.2258
      9  PA        13.0500   75.3780   52.5090 P.3   1752  ATP1752     0.2189
     10  O1A       12.3170   76.6320   52.2730 O.3   1752  ATP1752    -0.4371
     11  O2A       14.1890   75.0200   51.6540 O.2   1752  ATP1752    -0.5170
     12  O3A       13.5380   75.3360   54.0420 O.3   1752  ATP1752    -0.2700
     13  O5'       11.9610   74.2290   52.4480 O.3   1752  ATP1752    -0.3112
     14  C5'       10.5760   74.5430   52.6120 C.3   1752  ATP1752     0.1813
     15  C4'        9.6820   73.3680   52.1920 C.3   1752  ATP1752     0.1821
     16  O4'        9.3470   73.5520   50.8010 O.3   1752  ATP1752    -0.3135
     17  C3'       10.3550   71.9920   52.2990 C.3   1752  ATP1752     0.2184
     18  O3'        9.3600   70.9810   52.5390 O.3   1752  ATP1752    -0.2174
     19  C2'       10.9540   71.7820   50.9210 C.3   1752  ATP1752     0.2570
     20  O2'       10.9080   70.3860   50.5840 O.3   1752  ATP1752    -0.2130
     21  C1'       10.0030   72.5490   50.0020 C.3   1752  ATP1752     0.3186
     22  N9        10.7820   73.2460   48.9490 N.pl3 1752  ATP1752    -0.1439
     23  C8        12.0420   73.6670   49.0490 C.3   1752  ATP1752     0.3377
     24  N7        12.3980   74.2530   47.9070 N.2   1752  ATP1752    -0.2095
     25  C5        11.3590   74.2030   47.0820 C.2   1752  ATP1752     0.2526
     26  C6        11.1450   74.6320   45.7850 C.2   1752  ATP1752     0.4393
     27  N6        12.1100   75.2440   45.1130 N.pl3 1752  ATP1752     0.2180
     28  N1         9.9560   74.4230   45.2230 N.2   1752  ATP1752     0.0021
     29  C2         8.9910   73.8090   45.8810 C.3   1752  ATP1752     0.5254
     30  N3         9.1640   73.3820   47.1180 N.2   1752  ATP1752    -0.0055
     31  C4        10.3340   73.5640   47.7410 C.2   1752  ATP1752     0.3518
@<TRIPOS>BOND
     1    27    26    1
     2    28    26    2
     3    28    29    1
     4    26    25    1
     5    29    30    1
     6    25    31    1
     7    25    24    2
     8    30    31    2
     9    31    22    1
    10    24    23    1
    11    22    23    1
    12    22    21    1
    13    21    16    1
    14    21    19    1
    15    20    19    1
    16    16    15    1
    17    19    17    1
    18    11     9    2
    19    15    17    1
    20    15    14    1
    21    10     9    1
    22    17    18    1
    23    13     9    1
    24    13    14    1
    25     9    12    1
    26    12     5    1
    27     7     5    2
    28     5     6    1
    29     5     8    1
    30     3     1    2
    31     8     1    1
    32     4     1    1
    33     1     2    1
