@<TRIPOS>MOLECULE
2j9m_PY8_A_1.pdb
 22 24 0 0 0
SMALL
GASTEIGER

@<TRIPOS>ATOM
      1 BR1        -1.2000   30.6400    8.6920 Br    299  PY8299     -0.0354
      2  C1         0.3750   30.1700    7.7310 C.2   299  PY8299      0.1288
      3  C2         1.0830   31.1320    7.0230 C.2   299  PY8299      0.1307
      4  N3         2.1770   30.8040    6.3620 N.2   299  PY8299     -0.1542
      5  C4         2.6290   29.5460    6.3530 C.1   299  PY8299      0.2446
      6  N5         1.9630   28.5920    7.0210 N.2   299  PY8299     -0.2696
      7  C6         0.8500   28.8640    7.7230 C.1   299  PY8299      0.1046
      8  N7         0.2070   27.8900    8.3740 N.2   299  PY8299     -0.2089
      9  C8         0.8780   26.9940    9.3360 C.3   299  PY8299      0.1389
     10  C9         1.5440   25.8080    8.6250 C.3   299  PY8299      0.0480
     11  C10        3.0400   25.7920    8.9420 C.3   299  PY8299      0.1175
     12  N13        3.6590   24.5910    8.3540 N.3   299  PY8299     -0.0780
     13  S14        5.1630   24.8120    7.6800 S.O2  299  PY8299      0.0735
     14  O14        5.6230   23.4840    7.1330 O.2   299  PY8299     -0.1519
     15  O15        6.1440   25.3260    8.6840 O.2   299  PY8299     -0.1519
     16  C15        5.1060   25.9660    6.3970 C.2   299  PY8299      0.1083
     17  C20        4.4270   27.1670    6.5840 C.3   299  PY8299      0.1065
     18  C16        5.7550   25.6830    5.1980 C.2   299  PY8299      0.0160
     19  C17        5.7190   26.6020    4.1580 C.2   299  PY8299      0.0034
     20  C18        5.0380   27.8040    4.3470 C.2   299  PY8299      0.0290
     21  C19        4.3730   28.0980    5.5470 C.2   299  PY8299      0.1286
     22  N21        3.7400   29.2770    5.6680 N.2   299  PY8299     -0.3285
@<TRIPOS>BOND
     1    19    20    2
     2    19    18    1
     3    20    21    1
     4    18    16    2
     5    21    22    2
     6    21    17    1
     7    22     5    2
     8     5     4    2
     9     5     6    2
    10     4     3    1
    11    16    17    1
    12    16    13    1
    13     6     7    2
    14     3     2    2
    15    14    13    2
    16    13    12    1
    17    13    15    2
    18     7     2    1
    19     7     8    2
    20     2     1    1
    21    12    11    1
    22     8     9    1
    23    10    11    1
    24    10     9    1
