@<TRIPOS>MOLECULE
2j9n_III_C_1.pdb
 18 17 0 0 0
SMALL
GASTEIGER

@<TRIPOS>ATOM
      1  N         27.0890   37.6650   23.9840 N.3     1  GLN1       -0.1231
      2  CA        27.9460   37.8820   25.1760 C.3     1  GLN1        0.1698
      3  C         27.3350   37.2100   26.3950 C.2     1  GLN1        0.2593
      4  O         27.9280   36.2820   26.9540 O.2     1  GLN1       -0.2718
      5  CB        28.1320   39.3780   25.4490 C.3     1  GLN1        0.0381
      6  CG        29.0430   40.0820   24.4500 C.3     1  GLN1        0.0905
      7  CD        28.3250   40.4880   23.1730 C.2     1  GLN1        0.2608
      8  OE1       27.3500   39.8750   22.7650 O.2     1  GLN1       -0.2717
      9  NE2       28.7850   41.5510   22.5680 N.am    1  GLN1       -0.0878
     10  N         26.1400   37.6590   26.7820 N.am    2  UNK2       -0.1942
     11  CA        25.5870   37.3330   28.0960 C.3     2  UNK2        0.2014
     12  C         24.4520   36.3280   28.1600 C.2     2  UNK2        0.2640
     13  O         23.6280   36.2560   27.2490 O.2     2  UNK2       -0.2714
     14  N         24.4340   35.5400   29.2390 N.am    3  UNK3       -0.1917
     15  CA        23.2340   34.8110   29.6740 C.3     3  UNK3        0.2285
     16  C         23.3790   33.3020   29.7260 C.2     3  UNK3        0.3865
     17  O         24.2940   32.7730   30.3680 O.co2   3  UNK3       -0.2437
     18  OXT       22.5720   32.5730   29.1340 O.co2   3  UNK3       -0.2437
@<TRIPOS>BOND
     1     9     7   am
     2     8     7    2
     3     7     6    1
     4     1     2    1
     5     6     5    1
     6     2     5    1
     7     2     3    1
     8     3    10   am
     9     3     4    2
    10    10    11    1
    11    13    12    2
    12    11    12    1
    13    12    14   am
    14    18    16   ar
    15    14    15    1
    16    15    16    1
    17    16    17   ar
