@<TRIPOS>MOLECULE
2j9r_THM_A_1.pdb
 17 18 0 0 0
SMALL
GASTEIGER

@<TRIPOS>ATOM
      1  O5'      -38.3270   13.5730    5.1040 O.3   1195  THM1195    -0.2176
      2  C5'      -36.9870   13.5000    5.6030 C.3   1195  THM1195     0.2141
      3  C4'      -36.5340   12.0400    5.6470 C.3   1195  THM1195     0.1802
      4  O4'      -35.1370   11.9600    5.9500 O.3   1195  THM1195    -0.3338
      5  C3'      -37.2450   11.2040    6.7030 C.3   1195  THM1195     0.1858
      6  O3'      -37.6290    9.9500    6.1260 O.3   1195  THM1195    -0.2203
      7  C2'      -36.2180   10.9340    7.7830 C.3   1195  THM1195     0.0874
      8  C1'      -34.8880   11.0960    7.0680 C.3   1195  THM1195     0.2090
      9  N1       -33.8190   11.6860    7.8970 N.am  1195  THM1195    -0.1794
     10  C2       -32.5850   10.9960    7.9780 C.1   1195  THM1195     0.2844
     11  O2       -32.4620    9.9050    7.3690 O.2   1195  THM1195    -0.1918
     12  N3       -31.5540   11.4780    8.6970 N.2   1195  THM1195    -0.2455
     13  C4       -31.6660   12.6430    9.3490 C.1   1195  THM1195     0.2134
     14  O4       -30.7100   13.1010   10.0120 O.2   1195  THM1195    -0.2088
     15  C5       -32.9350   13.3920    9.2730 C.2   1195  THM1195     0.0891
     16  C5M      -33.0720   14.7020    9.9940 C.3   1195  THM1195     0.0462
     17  C6       -33.9810   12.8660    8.5240 C.2   1195  THM1195     0.0877
@<TRIPOS>BOND
     1     1     2    1
     2     2     3    1
     3     3     4    1
     4     3     5    1
     5     4     8    1
     6     6     5    1
     7     5     7    1
     8     8     7    1
     9     8     9    1
    10    11    10    2
    11     9    10   am
    12     9    17    1
    13    10    12    2
    14    17    15    2
    15    12    13    2
    16    15    13    1
    17    15    16    1
    18    13    14    2
