@<TRIPOS>MOLECULE
2j9x_G3P_A_1.pdb
 10 9 0 0 0
SMALL
GASTEIGER

@<TRIPOS>ATOM
      1  O1        48.8810   27.7820   15.7900 O.3   1268  G3P1268    -0.2175
      2  C1        49.1990   29.0770   15.2640 C.3   1268  G3P1268     0.2174
      3  C2        50.4360   28.9570   14.3840 C.3   1268  G3P1268     0.2147
      4  O2        51.3160   30.0520   14.2660 O.3   1268  G3P1268    -0.2176
      5  C3        50.0530   28.5630   12.9090 C.3   1268  G3P1268     0.1892
      6  O1P       49.4520   29.3170   12.3090 O.3   1268  G3P1268    -0.2674
      7  O4P       50.7260   29.3920   10.0320 O.2   1268  G3P1268    -0.2224
      8  O2P       51.2720   31.1040   11.7340 O.3   1268  G3P1268    -0.1145
      9  O3P       49.0560   31.2010   10.5290 O.3   1268  G3P1268    -0.1145
     10  P         50.1120   30.2560   11.1460 P.3   1268  G3P1268     0.5327
@<TRIPOS>BOND
     1     7    10    2
     2     9    10    1
     3    10     8    1
     4    10     6    1
     5     6     5    1
     6     5     3    1
     7     4     3    1
     8     3     2    1
     9     2     1    1
