@<TRIPOS>MOLECULE
2j9x_P1T_B_1.pdb
 21 21 0 0 0
SMALL
GASTEIGER

@<TRIPOS>ATOM
      1  OP1       79.9510   12.4370   15.6320 O.3   1396  P1T1396    -0.1145
      2  P         79.9860   12.4640   14.1300 P.3   1396  P1T1396     0.5329
      3  OP2       78.6550   12.2560   13.6510 O.2   1396  P1T1396    -0.2224
      4  OP3       80.7380   11.3070   13.7510 O.3   1396  P1T1396    -0.1145
      5  OP4       80.2770   13.7950   13.8140 O.3   1396  P1T1396    -0.2653
      6  C5A       81.5370   14.4230   14.1150 C.3   1396  P1T1396     0.1819
      7  C5        82.6130   14.4030   13.0160 C.ar  1396  P1T1396     0.0316
      8  C6        83.8180   13.6510   13.1820 C.ar  1396  P1T1396     0.0968
      9  N1        84.7810   13.6700   12.1540 N.ar  1396  P1T1396    -0.2452
     10  C2        84.6790   14.2700   10.8610 C.ar  1396  P1T1396     0.0981
     11  C2A       85.7350   14.1750    9.9570 C.3   1396  P1T1396     0.0555
     12  C3        83.4910   15.0850   10.5990 C.ar  1396  P1T1396     0.2103
     13  O3A       83.2200   15.7080    9.4540 O.3   1396  P1T1396    -0.2853
     14  C4        82.3880   15.0870   11.6540 C.ar  1396  P1T1396     0.0587
     15  C4A       81.1450   15.8860   11.3870 C.2   1396  P1T1396     0.0967
     16  N         80.8160   16.6520   10.4730 N.2   1396  P1T1396    -0.2593
     17  CA        79.5830   17.3700   10.1430 C.3   1396  P1T1396     0.2057
     18  CB        78.4950   17.8910   11.1010 C.3   1396  P1T1396     0.0385
     19  C         79.3360   17.6420    8.7600 C.2   1396  P1T1396     0.3866
     20  O         80.1700   17.2700    7.9360 O.co2 1396  P1T1396    -0.2435
     21  OXT       78.3130   18.2190    8.3670 O.co2 1396  P1T1396    -0.2435
@<TRIPOS>BOND
     1    20    19   ar
     2    21    19   ar
     3    19    17    1
     4    13    12    1
     5    11    10    1
     6    17    16    1
     7    17    18    1
     8    16    15    2
     9    12    10   ar
    10    12    14   ar
    11    10     9   ar
    12    15    14    1
    13    14     7   ar
    14     9     8   ar
    15     7     8   ar
    16     7     6    1
    17     3     2    2
    18     4     2    1
    19     5     6    1
    20     5     2    1
    21     2     1    1
