@<TRIPOS>MOLECULE
2j9y_FOO_B_1.pdb
 21 21 0 0 0
SMALL
GASTEIGER

@<TRIPOS>ATOM
      1  N1        84.5180   13.7970   11.9670 N.ar  1396  FOO1396    -0.2452
      2  C2        84.3900   14.4090   10.7580 C.ar  1396  FOO1396     0.0981
      3  C2A       85.4970   14.3850    9.7820 C.3   1396  FOO1396     0.0555
      4  C3        83.1600   15.2490   10.4610 C.ar  1396  FOO1396     0.2088
      5  O3        83.1210   15.8400    9.2870 O.3   1396  FOO1396    -0.2853
      6  C4        82.0620   15.3210   11.4380 C.ar  1396  FOO1396     0.0401
      7  C5        82.3240   14.6870   12.6890 C.ar  1396  FOO1396     0.0301
      8  C6        83.5330   13.8760   12.8580 C.ar  1396  FOO1396     0.0968
      9  C5A       81.2720   14.4250   13.7640 C.3   1396  FOO1396     0.1818
     10  O4P       79.9220   14.0740   13.4020 O.3   1396  FOO1396    -0.2653
     11  P         79.5810   12.8420   14.0510 P.3   1396  FOO1396     0.5329
     12  O1P       78.2370   12.4640   13.8260 O.3   1396  FOO1396    -0.1145
     13  O2P       80.2930   11.6500   13.7710 O.2   1396  FOO1396    -0.2224
     14  O3P       79.5640   12.9900   15.4620 O.3   1396  FOO1396    -0.1145
     15  N         78.5550   18.0450   11.0860 N.2   1396  FOO1396    -0.1410
     16  CA        79.2220   17.6660   10.1330 C.2   1396  FOO1396     0.1822
     17  C         78.7060   17.6240    8.7920 C.2   1396  FOO1396     0.4068
     18  O         77.5290   17.4520    8.4550 O.co2 1396  FOO1396    -0.2388
     19  CB        80.4980   17.0100   10.2720 C.2   1396  FOO1396     0.0278
     20  OXT       79.6500   17.6510    7.8170 O.co2 1396  FOO1396    -0.2388
     21  C7        80.8670   15.9970   11.1660 C.2   1396  FOO1396     0.0049
@<TRIPOS>BOND
     1    20    17   ar
     2    18    17   ar
     3    17    16    1
     4     5     4    1
     5     3     2    1
     6    16    19    1
     7    16    15    2
     8    19    21    2
     9     4     2   ar
    10     4     6   ar
    11     2     1   ar
    12    21     6    1
    13     6     7   ar
    14     1     8   ar
    15     7     8   ar
    16     7     9    1
    17    10     9    1
    18    10    11    1
    19    13    11    2
    20    12    11    1
    21    11    14    1
