@<TRIPOS>MOLECULE
2j9z_PLP_B_1.pdb
 15 15 0 0 0
SMALL
GASTEIGER

@<TRIPOS>ATOM
      1  N1        84.7050   13.7020   12.0840 N.ar  1395  PLP1395    -0.2452
      2  C2        84.6480   14.0570   10.7640 C.ar  1395  PLP1395     0.0978
      3  C2A       85.8990   13.9840    9.9100 C.3   1395  PLP1395     0.0555
      4  C3        83.4680   14.5080   10.2230 C.ar  1395  PLP1395     0.2049
      5  O3        83.4140   14.8480    8.8980 O.3   1395  PLP1395    -0.2857
      6  C4        82.3430   14.6110   11.0090 C.ar  1395  PLP1395     0.0182
      7  C4A       80.9740   15.0430   10.3530 C.3   1395  PLP1395     0.0342
      8  C5        82.4120   14.2690   12.3490 C.ar  1395  PLP1395     0.0261
      9  C6        83.5900   13.8080   12.8730 C.ar  1395  PLP1395     0.0965
     10  C5A       81.1890   14.4930   13.3080 C.3   1395  PLP1395     0.1815
     11  O4P       80.0290   13.6990   13.1450 O.3   1395  PLP1395    -0.2653
     12  P         79.6590   12.4580   14.0570 P.3   1395  PLP1395     0.5329
     13  O1P       78.2690   12.2540   13.5440 O.2   1395  PLP1395    -0.2224
     14  O2P       79.7370   12.9160   15.4690 O.3   1395  PLP1395    -0.1145
     15  O3P       80.6300   11.3990   13.7120 O.3   1395  PLP1395    -0.1145
@<TRIPOS>BOND
     1     5     4    1
     2     3     2    1
     3     4     2   ar
     4     4     6   ar
     5     7     6    1
     6     2     1   ar
     7     6     8   ar
     8     1     9   ar
     9     8     9   ar
    10     8    10    1
    11    11    10    1
    12    11    12    1
    13    13    12    2
    14    15    12    1
    15    12    14    1
