@<TRIPOS>MOLECULE
2ja1_TTP_A_1.pdb
 29 30 0 0 0
SMALL
GASTEIGER

@<TRIPOS>ATOM
      1  PA         3.3380    8.5550   17.5380 P.3   1193  TTP1193     0.2189
      2  O1A        3.4770    7.1400   17.0770 O.2   1193  TTP1193    -0.5170
      3  O2A        4.2280    8.8340   18.7570 O.3   1193  TTP1193    -0.4371
      4  O3A        3.5870    9.7510   16.4600 O.3   1193  TTP1193    -0.2700
      5  PB         5.0420   10.0580   15.8900 P.3   1193  TTP1193     0.2277
      6  O1B        5.6060    8.7180   16.2580 O.3   1193  TTP1193    -0.4368
      7  O2B        5.0080   10.3190   14.4090 O.2   1193  TTP1193    -0.5168
      8  O3B        6.1050   11.0400   16.6850 O.3   1193  TTP1193    -0.2258
      9  PG         7.4980   10.4270   17.4380 P.3   1193  TTP1193     0.5373
     10  O1G        8.3230   11.5210   18.0990 O.3   1193  TTP1193    -0.1143
     11  O2G        8.5210    9.8320   16.4620 O.2   1193  TTP1193    -0.2221
     12  O3G        7.1210    9.5010   18.5850 O.3   1193  TTP1193    -0.1143
     13  O5'        1.7690    8.7550   17.8050 O.3   1193  TTP1193    -0.3112
     14  C5'        0.8150    7.9550   17.1270 C.3   1193  TTP1193     0.1812
     15  C4'       -0.4090    7.9810   18.0240 C.3   1193  TTP1193     0.1773
     16  O4'       -0.7990    9.3310   18.1210 O.3   1193  TTP1193    -0.3339
     17  C3'       -1.6160    7.2680   17.4590 C.3   1193  TTP1193     0.1857
     18  O3'       -1.6510    5.8720   17.7600 O.3   1193  TTP1193    -0.2203
     19  C2'       -2.7630    7.9940   18.0990 C.3   1193  TTP1193     0.0874
     20  C1'       -2.2010    9.3860   18.3630 C.3   1193  TTP1193     0.2090
     21  N1        -2.7180   10.3690   17.4090 N.am  1193  TTP1193    -0.1794
     22  C2        -2.6450   11.7670   17.6990 C.1   1193  TTP1193     0.2844
     23  O2        -2.1750   12.1280   18.8170 O.2   1193  TTP1193    -0.1918
     24  N3        -3.0980   12.6790   16.7960 N.2   1193  TTP1193    -0.2455
     25  C4        -3.6100   12.2590   15.6070 C.1   1193  TTP1193     0.2134
     26  O4        -4.0410   13.0760   14.7500 O.2   1193  TTP1193    -0.2088
     27  C5        -3.6620   10.7890   15.2880 C.2   1193  TTP1193     0.0891
     28  C5M       -4.2050   10.2170   13.9970 C.3   1193  TTP1193     0.0462
     29  C6        -3.1960    9.9120   16.2400 C.2   1193  TTP1193     0.0877
@<TRIPOS>BOND
     1    28    27    1
     2     7     5    2
     3    26    25    2
     4    27    25    1
     5    27    29    2
     6    25    24    2
     7     5     6    1
     8     5     4    1
     9     5     8    1
    10    29    21    1
    11     4     1    1
    12    11     9    2
    13     8     9    1
    14    24    22    2
    15     2     1    2
    16    14    13    1
    17    14    15    1
    18    21    22   am
    19    21    20    1
    20     9    10    1
    21     9    12    1
    22    17    18    1
    23    17    15    1
    24    17    19    1
    25     1    13    1
    26     1     3    1
    27    22    23    2
    28    15    16    1
    29    19    20    1
    30    16    20    1
