@<TRIPOS>MOLECULE
2ja3_ADP_A_1.pdb
 27 29 0 0 0
SMALL
GASTEIGER

@<TRIPOS>ATOM
      1  PB        13.7790   75.2420   55.9310 P.3   1752  ADP1752     0.5373
      2  O1B       12.7900   76.2430   56.7280 O.3   1752  ADP1752    -0.1143
      3  O2B       12.8310   74.0240   55.4370 O.2   1752  ADP1752    -0.2221
      4  O3B       14.8790   74.7670   56.8030 O.3   1752  ADP1752    -0.1143
      5  PA        13.3670   76.6110   53.4560 P.3   1752  ADP1752     0.2231
      6  O1A       12.9310   77.9680   53.8320 O.3   1752  ADP1752    -0.4370
      7  O2A       14.0080   76.4110   52.1410 O.2   1752  ADP1752    -0.5169
      8  O3A       14.3280   76.0360   54.6210 O.3   1752  ADP1752    -0.2261
      9  O5'       12.1140   75.6150   53.5410 O.3   1752  ADP1752    -0.3111
     10  C5'       10.9880   75.8750   52.7260 C.3   1752  ADP1752     0.1813
     11  C4'        9.9140   74.8010   52.8780 C.3   1752  ADP1752     0.1821
     12  O4'        9.3020   74.6080   51.5940 O.3   1752  ADP1752    -0.3135
     13  C3'       10.4840   73.4340   53.2050 C.3   1752  ADP1752     0.2184
     14  O3'        9.4160   72.5760   53.6000 O.3   1752  ADP1752    -0.2174
     15  C2'       11.0260   72.9710   51.8570 C.3   1752  ADP1752     0.2570
     16  O2'       10.8180   71.5640   51.7040 O.3   1752  ADP1752    -0.2130
     17  C1'       10.1710   73.7170   50.8220 C.3   1752  ADP1752     0.3186
     18  N9        11.0320   74.4370   49.8130 N.pl3 1752  ADP1752    -0.1439
     19  C8        12.2570   74.9210   50.0320 C.3   1752  ADP1752     0.3377
     20  N7        12.7200   75.4910   48.9220 N.2   1752  ADP1752    -0.2095
     21  C5        11.7870   75.3670   47.9860 C.2   1752  ADP1752     0.2526
     22  C6        11.7090   75.7630   46.6610 C.2   1752  ADP1752     0.4393
     23  N6        12.7270   76.4070   46.1040 N.pl3 1752  ADP1752     0.2180
     24  N1        10.5980   75.4850   45.9580 N.2   1752  ADP1752     0.0021
     25  C2         9.5840   74.8390   46.5200 C.3   1752  ADP1752     0.5254
     26  N3         9.6280   74.4490   47.7870 N.2   1752  ADP1752    -0.0055
     27  C4        10.7130   74.6970   48.5450 C.2   1752  ADP1752     0.3518
@<TRIPOS>BOND
     1    24    25    1
     2    24    22    2
     3    23    22    1
     4    25    26    1
     5    22    21    1
     6    26    27    2
     7    21    27    1
     8    21    20    2
     9    27    18    1
    10    20    19    1
    11    18    19    1
    12    18    17    1
    13    17    12    1
    14    17    15    1
    15    12    11    1
    16    16    15    1
    17    15    13    1
    18     7     5    2
    19    10    11    1
    20    10     9    1
    21    11    13    1
    22    13    14    1
    23     5     9    1
    24     5     6    1
    25     5     8    1
    26     8     1    1
    27     3     1    2
    28     1     2    1
    29     1     4    1
