@<TRIPOS>MOLECULE
2jac_GSH_A_1.pdb
 20 19 0 0 0
SMALL
GASTEIGER

@<TRIPOS>ATOM
      1  N1         5.5720   31.2520   20.0420 N.3   1000  GSH1000    -0.1208
      2  CA1        6.9830   31.1020   19.5880 C.3   1000  GSH1000     0.1948
      3  C1         7.0570   30.1050   18.4330 C.2   1000  GSH1000     0.3819
      4  O11        6.0870   29.3410   18.2400 O.co2 1000  GSH1000    -0.2441
      5  CB1        7.8580   30.6400   20.7640 C.3   1000  GSH1000     0.0402
      6  CG1        9.3500   30.4560   20.4500 C.3   1000  GSH1000     0.0889
      7  CD1       10.2280   30.4980   21.7010 C.2   1000  GSH1000     0.2418
      8  OE1        9.7250   30.7260   22.8000 O.2   1000  GSH1000    -0.2733
      9  O12        8.0800   30.1040   17.7250 O.co2 1000  GSH1000    -0.2441
     10  N2        11.5310   30.2730   21.5370 N.am  1000  GSH1000    -0.1968
     11  CA2       12.4790   30.3260   22.6530 C.3   1000  GSH1000     0.1843
     12  C2        13.2310   31.6490   22.5770 C.2   1000  GSH1000     0.2627
     13  O2        13.5060   32.1530   21.4870 O.2   1000  GSH1000    -0.2714
     14  CB2       13.5020   29.1870   22.5730 C.3   1000  GSH1000     0.0997
     15  SG2       12.8640   27.5540   22.9260 S.3   1000  GSH1000    -0.0797
     16  N3        13.5720   32.2090   23.7290 N.am  1000  GSH1000    -0.1917
     17  CA3       14.2940   33.4680   23.7240 C.3   1000  GSH1000     0.2285
     18  C3        15.7020   33.3030   23.1780 C.2   1000  GSH1000     0.3865
     19  O31       16.1280   32.1450   22.9760 O.co2 1000  GSH1000    -0.2437
     20  O32       16.3900   34.3260   22.9600 O.co2 1000  GSH1000    -0.2437
@<TRIPOS>BOND
     1     9     3   ar
     2     4     3   ar
     3     3     2    1
     4     2     1    1
     5     2     5    1
     6     6     5    1
     7     6     7    1
     8    13    12    2
     9    10     7   am
    10    10    11    1
    11     7     8    2
    12    14    11    1
    13    14    15    1
    14    12    11    1
    15    12    16   am
    16    20    18   ar
    17    19    18   ar
    18    18    17    1
    19    17    16    1
