@<TRIPOS>MOLECULE
2jaf_RET_A_1.pdb
 20 20 0 0 0
SMALL
GASTEIGER

@<TRIPOS>ATOM
      1  C1        34.6450   14.9830   30.5360 C.3   900  RET900      0.0183
      2  C2        33.5420   15.4940   31.5790 C.3   900  RET900      0.0044
      3  C3        32.5820   16.6020   31.0810 C.3   900  RET900      0.0047
      4  C4        31.7690   16.1080   29.7980 C.3   900  RET900      0.0217
      5  C5        32.6580   15.4920   28.6450 C.2   900  RET900     -0.0479
      6  C6        34.0660   14.9250   28.9710 C.2   900  RET900     -0.0310
      7  C7        34.9060   14.4490   27.8200 C.2   900  RET900     -0.0092
      8  C8        36.1950   14.0210   27.7370 C.2   900  RET900     -0.0224
      9  C9        36.7740   13.3730   26.5910 C.3   900  RET900      0.0440
     10  C10       38.0720   12.9520   26.8890 C.2   900  RET900     -0.0221
     11  C11       38.8860   12.2730   26.0080 C.2   900  RET900     -0.0046
     12  C12       40.1530   11.8390   26.4280 C.2   900  RET900     -0.0046
     13  C13       41.1090   11.1870   25.5460 C.2   900  RET900     -0.0219
     14  C14       42.3420   10.8960   26.2000 C.2   900  RET900     -0.0043
     15  C15       43.4930   10.4790   25.5750 C.2   900  RET900     -0.0003
     16  C16       35.8140   16.0240   30.6850 C.3   900  RET900      0.0043
     17  C17       35.1070   13.5310   31.0730 C.3   900  RET900      0.0043
     18  C18       32.0260   15.4890   27.2620 C.3   900  RET900      0.0260
     19  C19       35.9120   13.0500   25.2450 C.3   900  RET900      0.0094
     20  C20       40.7830   10.8250   24.0850 C.3   900  RET900      0.0310
@<TRIPOS>BOND
     1    20    13    1
     2    19     9    1
     3    13    14    1
     4    13    12    2
     5    15    14    2
     6    11    12    1
     7    11    10    2
     8     9    10    1
     9     9     8    1
    10    18     5    1
    11     8     7    2
    12     7     6    1
    13     5     6    2
    14     5     4    1
    15     6     1    1
    16     4     3    1
    17     1    16    1
    18     1    17    1
    19     1     2    1
    20     3     2    1
