@<TRIPOS>MOLECULE
2jag_RET_A_1.pdb
 20 20 0 0 0
SMALL
GASTEIGER

@<TRIPOS>ATOM
      1  C1        34.9080   14.9780   30.5940 C.3   900  RET900      0.0183
      2  C2        33.8130   15.4800   31.6400 C.3   900  RET900      0.0044
      3  C3        32.8240   16.5820   31.1340 C.3   900  RET900      0.0047
      4  C4        32.0050   16.0670   29.8670 C.3   900  RET900      0.0217
      5  C5        32.9080   15.4580   28.7170 C.2   900  RET900     -0.0479
      6  C6        34.3360   14.9150   29.0370 C.2   900  RET900     -0.0310
      7  C7        35.1580   14.4320   27.8880 C.2   900  RET900     -0.0092
      8  C8        36.4490   14.0150   27.7920 C.2   900  RET900     -0.0224
      9  C9        37.0210   13.3740   26.6440 C.3   900  RET900      0.0436
     10  C10       38.3200   12.9620   26.9240 C.2   900  RET900     -0.0263
     11  C11       39.1450   12.2890   26.0500 C.2   900  RET900     -0.0260
     12  C12       40.4200   11.8700   26.4720 C.3   900  RET900      0.0473
     13  C13       41.3690   11.2220   25.5830 C.2   900  RET900     -0.0438
     14  C14       42.6090   10.9440   26.2140 C.2   900  RET900     -0.0339
     15  C15       43.7720   10.5290   25.5990 C.3   900  RET900      0.0300
     16  C16       36.0680   16.0440   30.7270 C.3   900  RET900      0.0043
     17  C17       35.3910   13.5190   31.1300 C.3   900  RET900      0.0043
     18  C18       32.2660   15.4230   27.3230 C.3   900  RET900      0.0260
     19  C19       36.1550   13.0230   25.3060 C.3   900  RET900      0.0094
     20  C20       41.0360   10.8520   24.1310 C.3   900  RET900      0.0264
@<TRIPOS>BOND
     1    20    13    1
     2    19     9    1
     3    13    14    2
     4    13    12    1
     5    15    14    1
     6    11    12    1
     7    11    10    2
     8     9    10    1
     9     9     8    1
    10    18     5    1
    11     8     7    2
    12     7     6    1
    13     5     6    2
    14     5     4    1
    15     6     1    1
    16     4     3    1
    17     1    16    1
    18     1    17    1
    19     1     2    1
    20     3     2    1
