@<TRIPOS>MOLECULE
2jah_NDP_A_1.pdb
 48 52 0 0 0
SMALL
GASTEIGER

@<TRIPOS>ATOM
      1  PA        25.5180  -10.5820   12.4240 P.3   1248  NDP1248     0.2189
      2  O1A       25.6520  -11.6230   11.3710 O.2   1248  NDP1248    -0.5170
      3  O2A       24.1160  -10.0960   12.5370 O.3   1248  NDP1248    -0.4371
      4  O5B       26.4720   -9.3360   12.0760 O.3   1248  NDP1248    -0.3112
      5  C5B       27.7090   -9.5230   11.4350 C.3   1248  NDP1248     0.1813
      6  C4B       27.9470   -8.2970   10.5700 C.3   1248  NDP1248     0.1820
      7  O4B       29.2090   -8.4040    9.9590 O.3   1248  NDP1248    -0.3136
      8  C3B       26.9220   -8.1960    9.4600 C.3   1248  NDP1248     0.2157
      9  O3B       26.5500   -6.8320    9.3240 O.3   1248  NDP1248    -0.2175
     10  C2B       27.6660   -8.6340    8.2220 C.3   1248  NDP1248     0.2314
     11  O2B       27.1410   -7.8770    7.1680 O.3   1248  NDP1248    -0.2630
     12  C1B       29.0750   -8.1900    8.5680 C.3   1248  NDP1248     0.3158
     13  N9A       30.1430   -8.9040    7.8560 N.pl3 1248  NDP1248    -0.1439
     14  C8A       30.3940  -10.2500    7.8460 C.3   1248  NDP1248     0.3377
     15  N7A       31.4910  -10.4680    7.0760 N.2   1248  NDP1248    -0.2095
     16  C5A       31.9480   -9.2770    6.6170 C.2   1248  NDP1248     0.2526
     17  C6A       33.0290   -8.9300    5.8090 C.2   1248  NDP1248     0.4393
     18  N6A       33.8920   -9.8690    5.3880 N.pl3 1248  NDP1248     0.2180
     19  N1A       33.2520   -7.5940    5.5130 N.2   1248  NDP1248     0.0021
     20  C2A       32.4090   -6.6220    6.0240 C.3   1248  NDP1248     0.5254
     21  N3A       31.3320   -6.9660    6.8240 N.2   1248  NDP1248    -0.0055
     22  C4A       31.1160   -8.2800    7.1200 C.2   1248  NDP1248     0.3518
     23  O3        26.0610  -11.1620   13.8220 O.3   1248  NDP1248    -0.2703
     24  PN        26.5230  -10.3090   15.1140 P.3   1248  NDP1248     0.2189
     25  O1N       26.2690  -11.1840   16.2920 O.3   1248  NDP1248    -0.4371
     26  O2N       25.8730   -8.9730   15.0820 O.2   1248  NDP1248    -0.5170
     27  O5D       28.0950  -10.2410   14.8070 O.3   1248  NDP1248    -0.3112
     28  C5D       28.8780   -9.0770   14.9670 C.3   1248  NDP1248     0.1813
     29  C4D       30.0960   -9.3740   15.8450 C.3   1248  NDP1248     0.1799
     30  O4D       29.6440   -9.7680   17.1220 O.3   1248  NDP1248    -0.3327
     31  C3D       30.9950  -10.5000   15.3430 C.3   1248  NDP1248     0.2158
     32  O3D       32.3310  -10.0560   15.4300 O.3   1248  NDP1248    -0.2175
     33  C2D       30.7600  -11.6360   16.3140 C.3   1248  NDP1248     0.2309
     34  O2D       31.8640  -12.5310   16.3800 O.3   1248  NDP1248    -0.2158
     35  C1D       30.4580  -10.8340   17.5830 C.3   1248  NDP1248     0.2263
     36  N1N       29.7550  -11.5880   18.6360 N.pl3 1248  NDP1248    -0.2787
     37  C2N       28.4730  -12.0480   18.4650 C.3   1248  NDP1248     0.1244
     38  C3N       27.7940  -12.7250   19.4810 C.2   1248  NDP1248     0.0544
     39  C7N       26.4030  -13.2630   19.2960 C.2   1248  NDP1248     0.2818
     40  O7N       26.0070  -14.3210   20.1310 O.2   1248  NDP1248    -0.2670
     41  N7N       25.5750  -12.7700   18.3680 N.am  1248  NDP1248    -0.0839
     42  C4N       28.4560  -12.9730   20.8160 C.2   1248  NDP1248     0.0033
     43  C5N       29.8480  -12.4180   20.8890 C.2   1248  NDP1248     0.0157
     44  C6N       30.4300  -11.7550   19.8170 C.2   1248  NDP1248     0.0633
     45  P2B       27.3530   -8.1980    5.6100 P.3   1248  NDP1248     0.5328
     46  O1X       26.4020   -7.2480    4.9070 O.2   1248  NDP1248    -0.2224
     47  O2X       28.7770   -7.9080    5.2520 O.3   1248  NDP1248    -0.1145
     48  O3X       26.9850   -9.6250    5.2670 O.3   1248  NDP1248    -0.1145
@<TRIPOS>BOND
     1    46    45    2
     2    47    45    1
     3    48    45    1
     4    18    17    1
     5    19    17    2
     6    19    20    1
     7    45    11    1
     8    17    16    1
     9    20    21    1
    10    16    15    2
    11    16    22    1
    12    21    22    2
    13    15    14    1
    14    22    13    1
    15    11    10    1
    16    14    13    1
    17    13    12    1
    18    10    12    1
    19    10     8    1
    20    12     7    1
    21     9     8    1
    22     8     6    1
    23     7     6    1
    24     6     5    1
    25     2     1    2
    26     5     4    1
    27     4     1    1
    28     1     3    1
    29     1    23    1
    30    23    24    1
    31    27    28    1
    32    27    24    1
    33    28    29    1
    34    26    24    2
    35    24    25    1
    36    31    32    1
    37    31    29    1
    38    31    33    1
    39    29    30    1
    40    33    34    1
    41    33    35    1
    42    30    35    1
    43    35    36    1
    44    41    39   am
    45    37    36    1
    46    37    38    1
    47    36    44    1
    48    39    38    1
    49    39    40    2
    50    38    42    2
    51    44    43    2
    52    42    43    1
