@<TRIPOS>MOLECULE
2jai_CIR_A_1.pdb
 12 11 0 0 0
SMALL
GASTEIGER

@<TRIPOS>ATOM
      1  C1        16.3980    6.2940   66.1110 C.2   1281  CIR1281     0.3819
      2  O1        17.2570    6.7380   65.3180 O.co2 1281  CIR1281    -0.2441
      3  O2        15.5130    6.9950   66.6620 O.co2 1281  CIR1281    -0.2441
      4  C2        16.4030    4.7660   66.3910 C.3   1281  CIR1281     0.1944
      5  N2        15.8080    4.4360   67.7220 N.3   1281  CIR1281    -0.1208
      6  C3        15.6120    4.0560   65.2830 C.3   1281  CIR1281     0.0324
      7  C4        16.3730    3.9870   63.9400 C.3   1281  CIR1281     0.0256
      8  C5        15.6480    3.0760   62.9360 C.3   1281  CIR1281     0.1169
      9  N6        16.2960    3.1290   61.6130 N.am  1281  CIR1281    -0.1859
     10  C7        15.7830    2.5390   60.5330 C.2   1281  CIR1281     0.3589
     11  O7        14.7240    1.9270   60.5800 O.2   1281  CIR1281    -0.2474
     12  N8        16.4550    2.6340   59.4070 N.am  1281  CIR1281    -0.0679
@<TRIPOS>BOND
     1    12    10   am
     2    10    11    2
     3    10     9   am
     4     9     8    1
     5     8     7    1
     6     7     6    1
     7     6     4    1
     8     2     1   ar
     9     1     4    1
    10     1     3   ar
    11     4     5    1
