@<TRIPOS>MOLECULE
2jaj_D20_A_1.pdb
 16 15 0 0 0
SMALL
GASTEIGER

@<TRIPOS>ATOM
      1  N         15.9620    4.3160   67.6130 N.3   500  D20500     -0.1208
      2  C1        16.2440    5.2580   66.5180 C.3   500  D20500      0.1944
      3  C         15.0880    6.2120   66.1790 C.2   500  D20500      0.3819
      4  O         14.0110    6.0720   66.8110 O.co2 500  D20500     -0.2441
      5  C2        16.6850    4.4490   65.2760 C.3   500  D20500      0.0343
      6  C3        15.6210    3.4160   64.9240 C.3   500  D20500      0.0490
      7  C4        16.0340    2.6290   63.6390 C.3   500  D20500      0.2204
      8  N5        16.2270    3.4680   62.4150 N.pl3 500  D20500     -0.0894
      9  C6        15.2280    3.8010   61.5820 C.cat 500  D20500      0.4952
     10  N61       13.9570    3.3550   61.8710 N.pl3 500  D20500     -0.0866
     11  N62       15.5390    4.5330   60.4840 N.pl3 500  D20500      0.1317
     12  C7        12.7840    3.6540   61.0540 C.3   500  D20500      0.2522
     13  C8        13.5330    1.7500   58.0590 C.3   500  D20500      0.1743
     14  O9        15.3170    7.0690   65.2790 O.co2 500  D20500     -0.2441
     15  O10       13.5380    2.9150   58.9320 O.3   500  D20500     -0.3473
     16  C10       12.5600    2.6340   59.9500 C.3   500  D20500      0.1890
@<TRIPOS>BOND
     1    13    15    1
     2    15    16    1
     3    16    12    1
     4    11     9    2
     5    12    10    1
     6     9    10    1
     7     9     8    1
     8     8     7    1
     9     7     6    1
    10     6     5    1
    11     5     2    1
    12    14     3   ar
    13     3     2    1
    14     3     4   ar
    15     2     1    1
