@<TRIPOS>MOLECULE
2jal_YLL_A_1.pdb
 12 12 0 0 0
SMALL
GASTEIGER

@<TRIPOS>ATOM
      1  O5        -1.3520    9.2260   10.5300 O.3   1446  YLL1446    -0.2229
      2  C7        -2.0250   10.4670   10.2590 C.3   1446  YLL1446     0.1596
      3  C5        -2.4890   10.5100    8.7790 C.3   1446  YLL1446     0.0965
      4  C6        -3.4260    9.3820    8.3660 C.3   1446  YLL1446     0.1872
      5  O6        -2.8050    8.1110    8.5620 O.3   1446  YLL1446    -0.2202
      6  C4        -1.2460   10.6240    7.8600 C.3   1446  YLL1446     0.1896
      7  O4        -1.6070   10.7580    6.4860 O.3   1446  YLL1446    -0.2202
      8  C3        -0.4860   11.8970    8.2990 C.3   1446  YLL1446     0.2124
      9  O3         0.6820   12.1540    7.5180 O.3   1446  YLL1446    -0.2177
     10  C2         0.0140   11.8530    9.7370 C.3   1446  YLL1446     0.1872
     11  O2         0.6110   13.1090   10.0230 O.3   1446  YLL1446    -0.2202
     12  C1        -1.1110   11.6290   10.6990 C.3   1446  YLL1446     0.0687
@<TRIPOS>BOND
     1     7     6    1
     2     9     8    1
     3     6     8    1
     4     6     3    1
     5     8    10    1
     6     4     5    1
     7     4     3    1
     8     3     2    1
     9    10    11    1
    10    10    12    1
    11     2     1    1
    12     2    12    1
