@<TRIPOS>MOLECULE
2jam_III_D_1.pdb
 42 42 0 0 0
SMALL
GASTEIGER

@<TRIPOS>ATOM
      1  N          8.3710  -17.8240   20.3810 N.3    14  GLY14      -0.1210
      2  CA         7.9340  -19.1840   19.8700 C.3    14  GLY14       0.1956
      3  C          7.4940  -19.1070   18.4130 C.2    14  GLY14       0.2612
      4  O          6.3040  -18.8980   18.1260 O.2    14  GLY14      -0.2717
      5  N          8.4320  -19.2610   17.4850 N.am   15  VAL15      -0.1965
      6  CA         8.1990  -18.8090   16.1110 C.3    15  VAL15       0.1727
      7  C          8.4350  -19.8540   15.0170 C.2    15  VAL15       0.2617
      8  O          9.3260  -20.7160   15.1190 O.2    15  VAL15      -0.2715
      9  CB         9.0490  -17.5410   15.7640 C.3    15  VAL15       0.0290
     10  CG1        8.7610  -16.4030   16.7520 C.3    15  VAL15       0.0023
     11  CG2       10.5390  -17.8660   15.7230 C.3    15  VAL15       0.0023
     12  N          7.6170  -19.7330   13.9730 N.am   16  SER16      -0.1936
     13  CA         7.7860  -20.4230   12.7080 C.3    16  SER16       0.2055
     14  C          8.4200  -19.4480   11.7090 C.2    16  SER16       0.2643
     15  O          7.9640  -18.3150   11.5620 O.2    16  SER16      -0.2714
     16  CB         6.4210  -20.8780   12.1840 C.3    16  SER16       0.2130
     17  OG         6.5290  -21.4670   10.9010 O.3    16  SER16      -0.2179
     18  N          9.4660  -19.9150   11.0290 N.am   17  LYS17      -0.1963
     19  CA        10.1810  -19.1560   10.0060 C.3    17  LYS17       0.1728
     20  C          9.4870  -19.4270    8.6830 C.2    17  LYS17       0.2616
     21  O          9.3050  -20.5850    8.3110 O.2    17  LYS17      -0.2715
     22  CB        11.6130  -19.6600    9.9790 C.3    17  LYS17       0.0311
     23  CG        12.6080  -18.7190    9.3890 C.3    17  LYS17       0.0038
     24  CD        12.8090  -18.9660    7.9450 C.3    17  LYS17       0.0206
     25  CE        13.4130  -17.7540    7.3250 C.3    17  LYS17       0.1093
     26  NZ        14.7370  -17.4710    7.9290 N.3    17  LYS17      -0.1314
     27  N          9.0460  -18.3790    7.9930 N.am   18  PHE18      -0.1960
     28  CA         8.4060  -18.5350    6.6790 C.3    18  PHE18       0.1771
     29  C          9.3590  -18.9490    5.5540 C.2    18  PHE18       0.2619
     30  O         10.5190  -18.5680    5.5530 O.2    18  PHE18      -0.2715
     31  CB         7.7660  -17.2350    6.2170 C.3    18  PHE18       0.0574
     32  CG         6.5060  -16.9070    6.9030 C.ar   18  PHE18      -0.0200
     33  CD1        6.2810  -17.2300    8.2200 C.ar   18  PHE18      -0.0042
     34  CD2        5.5730  -16.1860    6.2540 C.ar   18  PHE18      -0.0042
     35  CE1        5.1670  -16.8750    8.7880 C.ar   18  PHE18      -0.0003
     36  CE2        4.4470  -15.8460    6.8490 C.ar   18  PHE18      -0.0003
     37  CZ         4.2500  -16.1810    8.1110 C.ar   18  PHE18      -0.0000
     38  N          8.8070  -19.7110    4.6070 N.am   19  ALA19      -0.1977
     39  CA         9.4110  -20.0830    3.3160 C.3    19  ALA19       0.1597
     40  C         10.3920  -21.2520    3.4320 C.2    19  ALA19       0.2287
     41  O          9.9690  -22.4140    3.5040 O.2    19  ALA19      -0.2864
     42  CB        10.0410  -18.8740    2.6050 C.3    19  ALA19       0.0319
@<TRIPOS>BOND
     1    42    39    1
     2    39    40    1
     3    39    38    1
     4    40    41    2
     5    38    29   am
     6    30    29    2
     7    29    28    1
     8    31    28    1
     9    31    32    1
    10    34    36   ar
    11    34    32   ar
    12    28    27    1
    13    36    37   ar
    14    32    33   ar
    15    25    26    1
    16    25    24    1
    17    24    23    1
    18    27    20   am
    19    37    35   ar
    20    33    35   ar
    21    21    20    2
    22    20    19    1
    23    23    22    1
    24    22    19    1
    25    19    18    1
    26    17    16    1
    27    18    14   am
    28    15    14    2
    29    14    13    1
    30    16    13    1
    31    13    12    1
    32    12     7   am
    33     7     8    2
    34     7     6    1
    35    11     9    1
    36     9     6    1
    37     9    10    1
    38     6     5    1
    39     5     3   am
    40     4     3    2
    41     3     2    1
    42     2     1    1
