@<TRIPOS>MOLECULE
2jam_J60_A_1.pdb
 29 31 0 0 0
SMALL
GASTEIGER

@<TRIPOS>ATOM
      1  CBA       15.6770   10.1890   18.4170 C.3   1305  J601305     0.0188
      2  CAZ       15.6390    9.5850   17.0030 C.3   1305  J601305     0.0722
      3  NAX       14.8500    8.3270   17.0200 N.3   1305  J601305    -0.2712
      4  CAY       13.4020    8.5900   16.8300 C.3   1305  J601305     0.0722
      5  CBB       13.0890    9.1900   15.4480 C.3   1305  J601305     0.0188
      6  CAW       15.3570    7.2790   16.0880 C.3   1305  J601305     0.0958
      7  CAV       15.9080    7.7930   14.7330 C.3   1305  J601305     0.1327
      8  NAU       15.6110    6.7430   13.7230 N.am  1305  J601305    -0.2001
      9  CAS       16.5290    5.9020   13.2400 C.2   1305  J601305     0.2668
     10  OAT       17.6950    5.9150   13.6200 O.2   1305  J601305    -0.2683
     11  CAN       16.0640    4.8130   12.2050 C.2   1305  J601305     0.0789
     12  CAM       14.7760    4.4150   11.8750 C.2   1305  J601305     0.0143
     13  CAQ       13.4740    5.0090   12.4300 C.3   1305  J601305     0.0339
     14  CAO       16.9080    3.9930   11.4620 C.2   1305  J601305     0.1135
     15  CAR       18.4360    3.9750   11.4520 C.3   1305  J601305     0.0665
     16  NAP       16.1860    3.1600   10.7170 N.2   1305  J601305    -0.4064
     17  CAL       14.8780    3.3730   10.9350 C.2   1305  J601305     0.1280
     18  CAK       13.7630    2.7290   10.3820 C.2   1305  J601305     0.0444
     19  CAG       13.7750    1.6180    9.4950 C.2   1305  J601305     0.0994
     20  CAE       12.6190    0.8980    9.1430 C.2   1305  J601305     0.0398
     21  CAD       11.2900    1.0090    9.5230 C.2   1305  J601305    -0.0025
     22  CAA       10.3470    0.1250    8.9960 C.3   1305  J601305     0.1239
     23 CL          8.7050    0.2710    9.5060 Cl    1305  J601305    -0.1054
     24  CAB       10.7220   -0.8790    8.0850 C.2   1305  J601305    -0.0032
     25  CAC       12.0610   -0.9940    7.7090 C.2   1305  J601305     0.0300
     26  CAF       13.0060   -0.1020    8.2320 C.2   1305  J601305     0.1445
     27  NAH       14.3310    0.0130    8.0380 N.2   1305  J601305    -0.3329
     28  CAI       14.8110    1.0150    8.7620 C.1   1305  J601305     0.2048
     29  OAJ       16.0140    1.3060    8.7530 O.2   1305  J601305    -0.2093
@<TRIPOS>BOND
     1    25    24    2
     2    25    26    1
     3    27    26    2
     4    27    28    2
     5    24    22    1
     6    26    20    1
     7    29    28    2
     8    28    19    1
     9    22    23    1
    10    22    21    1
    11    20    19    1
    12    20    21    2
    13    19    18    2
    14    18    17    1
    15    16    17    2
    16    16    14    2
    17    17    12    1
    18    15    14    1
    19    14    11    1
    20    12    11    2
    21    12    13    1
    22    11     9    1
    23     9    10    2
    24     9     8   am
    25     8     7    1
    26     7     6    1
    27     5     4    1
    28     6     3    1
    29     4     3    1
    30     2     3    1
    31     2     1    1
