@<TRIPOS>MOLECULE
2jao_DGP_A_1.pdb
 23 25 0 0 0
SMALL
GASTEIGER

@<TRIPOS>ATOM
      1  O3'      -10.2960  -26.4980   -5.3860 O.3   1201  DGP1201    -0.2203
      2  C1'       -8.2440  -24.0150   -4.7320 C.3   1201  DGP1201     0.1981
      3  C2'       -8.2620  -25.2120   -5.6770 C.3   1201  DGP1201     0.0865
      4  C3'       -8.9640  -26.2970   -4.8750 C.3   1201  DGP1201     0.1857
      5  C4'       -9.0550  -25.7030   -3.4680 C.3   1201  DGP1201     0.1774
      6  C5'       -8.3110  -26.6510   -2.5380 C.3   1201  DGP1201     0.1858
      7  O4'       -8.1370  -24.5860   -3.4390 O.3   1201  DGP1201    -0.3347
      8  N2        -9.1690  -18.9570   -6.0810 N.pl3 1201  DGP1201    -0.0226
      9  O6        -4.5700  -19.6300   -6.3840 O.2   1201  DGP1201    -0.2069
     10  C6        -5.6960  -20.0770   -6.1250 C.1   1201  DGP1201     0.2372
     11  C5        -5.8990  -21.3940   -5.7310 C.2   1201  DGP1201     0.2182
     12  N7        -5.0670  -22.4070   -5.5190 N.2   1201  DGP1201    -0.2322
     13  C8        -5.7910  -23.4720   -5.1300 C.3   1201  DGP1201     0.2245
     14  N9        -7.0860  -23.1380   -5.0880 N.pl3 1201  DGP1201    -0.2374
     15  C4        -7.1960  -21.8570   -5.4550 C.2   1201  DGP1201     0.2299
     16  N3        -8.2760  -21.0550   -5.5730 N.2   1201  DGP1201    -0.3074
     17  C2        -8.1180  -19.7670   -5.9540 C.1   1201  DGP1201     0.2531
     18  N1        -6.8280  -19.2560   -6.2370 N.2   1201  DGP1201    -0.2485
     19  P         -8.0230  -27.4250   -0.1480 P.3   1201  DGP1201     0.5327
     20  OP1       -9.1310  -28.5690   -0.0480 O.3   1201  DGP1201    -0.1145
     21  OP2       -8.0250  -26.6640    1.2840 O.3   1201  DGP1201    -0.1145
     22  O5'       -8.5160  -26.3480   -1.1880 O.3   1201  DGP1201    -0.2675
     23  OP3       -6.7200  -28.0620   -0.4940 O.2   1201  DGP1201    -0.2224
@<TRIPOS>BOND
     1     9    10    2
     2    18    10    2
     3    18    17    2
     4    10    11    1
     5     8    17    1
     6    17    16    2
     7    11    12    2
     8    11    15    1
     9     3     4    1
    10     3     2    1
    11    16    15    2
    12    12    13    1
    13    15    14    1
    14     1     4    1
    15    13    14    1
    16    14     2    1
    17     4     5    1
    18     2     7    1
    19     5     7    1
    20     5     6    1
    21     6    22    1
    22    22    19    1
    23    23    19    2
    24    19    20    1
    25    19    21    1
