@<TRIPOS>MOLECULE
2jap_J01_A_1.pdb
 14 15 0 0 0
SMALL
GASTEIGER

@<TRIPOS>ATOM
      1  O2        29.6380  -21.6420   20.6540 O.2   1249  J011249    -0.2746
      2  C5        30.1270  -20.6250   21.1150 C.2   1249  J011249     0.2343
      3  C4        31.4290  -19.9510   20.8410 C.3   1249  J011249     0.1508
      4  C3        30.8360  -18.8980   21.7830 C.3   1249  J011249     0.2559
      5  N1        29.6280  -19.7090   22.0570 N.am  1249  J011249    -0.2317
      6  O1        30.4660  -17.7100   21.0790 O.2   1249  J011249    -0.4621
      7  C1        29.0230  -17.7450   20.9810 C.2   1249  J011249     0.1456
      8  C2        28.4410  -18.9630   21.6050 C.3   1249  J011249     0.2385
      9  C8        27.5560  -18.5900   22.7510 C.2   1249  J011249     0.3900
     10  O5        26.3760  -18.2510   22.4820 O.co2 1249  J011249    -0.2433
     11  O4        28.0420  -18.6290   23.9100 O.co2 1249  J011249    -0.2433
     12  C6        28.2450  -16.8140   20.4100 C.2   1249  J011249     0.0438
     13  C7        28.7330  -15.5660   19.7340 C.3   1249  J011249     0.2112
     14  O3        30.1000  -15.2750   19.9880 O.3   1249  J011249    -0.2151
@<TRIPOS>BOND
     1    13    14    1
     2    13    12    1
     3    12     7    2
     4     1     2    2
     5     3     2    1
     6     3     4    1
     7     7     6    1
     8     7     8    1
     9     6     4    1
    10     2     5   am
    11     8     5    1
    12     8     9    1
    13     4     5    1
    14    10     9   ar
    15     9    11   ar
