@<TRIPOS>MOLECULE
2jap_NDP_A_1.pdb
 48 52 0 0 0
SMALL
GASTEIGER

@<TRIPOS>ATOM
      1  PA        25.0330  -10.5340   12.3390 P.3   1248  NDP1248     0.2189
      2  O1A       25.2420  -11.6070   11.3350 O.2   1248  NDP1248    -0.5170
      3  O2A       23.6250  -10.0460   12.3860 O.3   1248  NDP1248    -0.4371
      4  O5B       26.0050   -9.3030   12.0030 O.3   1248  NDP1248    -0.3112
      5  C5B       27.2290   -9.5140   11.3410 C.3   1248  NDP1248     0.1813
      6  C4B       27.4850   -8.2730   10.5110 C.3   1248  NDP1248     0.1820
      7  O4B       28.7380   -8.3450    9.8670 O.3   1248  NDP1248    -0.3136
      8  C3B       26.4420   -8.1570    9.4280 C.3   1248  NDP1248     0.2157
      9  O3B       26.0770   -6.7940    9.3490 O.3   1248  NDP1248    -0.2175
     10  C2B       27.1460   -8.5850    8.1620 C.3   1248  NDP1248     0.2314
     11  O2B       26.6330   -7.8110    7.1170 O.3   1248  NDP1248    -0.2630
     12  C1B       28.5690   -8.1720    8.4720 C.3   1248  NDP1248     0.3158
     13  N9A       29.6340   -8.8950    7.7580 N.pl3 1248  NDP1248    -0.1439
     14  C8A       29.8920  -10.2410    7.7270 C.3   1248  NDP1248     0.3377
     15  N7A       30.9970  -10.4510    6.9680 N.2   1248  NDP1248    -0.2095
     16  C5A       31.4540   -9.2530    6.5320 C.2   1248  NDP1248     0.2526
     17  C6A       32.5380   -8.8720    5.7440 C.2   1248  NDP1248     0.4393
     18  N6A       33.3660   -9.7840    5.2380 N.pl3 1248  NDP1248     0.2180
     19  N1A       32.7490   -7.5320    5.4700 N.2   1248  NDP1248     0.0021
     20  C2A       31.8900   -6.5690    5.9760 C.3   1248  NDP1248     0.5254
     21  N3A       30.8130   -6.9490    6.7540 N.2   1248  NDP1248    -0.0055
     22  C4A       30.6050   -8.2670    7.0290 C.2   1248  NDP1248     0.3518
     23  O3        25.5490  -11.0910   13.7610 O.3   1248  NDP1248    -0.2703
     24  PN        26.0510  -10.2100   15.0230 P.3   1248  NDP1248     0.2189
     25  O1N       25.8440  -11.0620   16.2170 O.3   1248  NDP1248    -0.4371
     26  O2N       25.4690   -8.8470   14.9700 O.2   1248  NDP1248    -0.5170
     27  O5D       27.6300  -10.1870   14.7560 O.3   1248  NDP1248    -0.3112
     28  C5D       28.4040   -9.0170   14.8800 C.3   1248  NDP1248     0.1813
     29  C4D       29.6020   -9.2890   15.7800 C.3   1248  NDP1248     0.1799
     30  O4D       29.1520   -9.6780   17.0630 O.3   1248  NDP1248    -0.3327
     31  C3D       30.5070  -10.4100   15.2760 C.3   1248  NDP1248     0.2158
     32  O3D       31.8560  -10.0100   15.3820 O.3   1248  NDP1248    -0.2175
     33  C2D       30.2640  -11.5370   16.2530 C.3   1248  NDP1248     0.2309
     34  O2D       31.3580  -12.4240   16.3580 O.3   1248  NDP1248    -0.2158
     35  C1D       30.0010  -10.7160   17.5040 C.3   1248  NDP1248     0.2263
     36  N1N       29.3790  -11.4900   18.5790 N.pl3 1248  NDP1248    -0.2787
     37  C2N       28.1030  -11.9900   18.4600 C.3   1248  NDP1248     0.1244
     38  C3N       27.4760  -12.6210   19.5360 C.2   1248  NDP1248     0.0544
     39  C7N       26.0860  -13.1730   19.4050 C.2   1248  NDP1248     0.2818
     40  O7N       25.6720  -14.2130   20.2600 O.2   1248  NDP1248    -0.2670
     41  N7N       25.2740  -12.6730   18.4830 N.am  1248  NDP1248    -0.0839
     42  C4N       28.1730  -12.7740   20.8640 C.2   1248  NDP1248     0.0033
     43  C5N       29.5550  -12.1950   20.8650 C.2   1248  NDP1248     0.0157
     44  C6N       30.0960  -11.5830   19.7440 C.2   1248  NDP1248     0.0633
     45  P2B       26.7910   -8.1540    5.5620 P.3   1248  NDP1248     0.5328
     46  O1X       25.8550   -7.1840    4.8780 O.2   1248  NDP1248    -0.2224
     47  O2X       28.2120   -7.9210    5.1340 O.3   1248  NDP1248    -0.1145
     48  O3X       26.4230   -9.6000    5.2910 O.3   1248  NDP1248    -0.1145
@<TRIPOS>BOND
     1    46    45    2
     2    47    45    1
     3    18    17    1
     4    48    45    1
     5    19    17    2
     6    19    20    1
     7    45    11    1
     8    17    16    1
     9    20    21    1
    10    16    15    2
    11    16    22    1
    12    21    22    2
    13    15    14    1
    14    22    13    1
    15    11    10    1
    16    14    13    1
    17    13    12    1
    18    10    12    1
    19    10     8    1
    20    12     7    1
    21     9     8    1
    22     8     6    1
    23     7     6    1
    24     6     5    1
    25     2     1    2
    26     5     4    1
    27     4     1    1
    28     1     3    1
    29     1    23    1
    30    23    24    1
    31    27    28    1
    32    27    24    1
    33    28    29    1
    34    26    24    2
    35    24    25    1
    36    31    32    1
    37    31    29    1
    38    31    33    1
    39    29    30    1
    40    33    34    1
    41    33    35    1
    42    30    35    1
    43    35    36    1
    44    37    36    1
    45    37    38    1
    46    41    39   am
    47    36    44    1
    48    39    38    1
    49    39    40    2
    50    38    42    2
    51    44    43    2
    52    42    43    1
