@<TRIPOS>MOLECULE
2jaq_DCP_A_1.pdb
 28 29 0 0 0
SMALL
GASTEIGER

@<TRIPOS>ATOM
      1  N1       -24.1370   -6.3710  -13.7370 N.am  1202  DCP1202    -0.1802
      2  C2       -23.6690   -6.6260  -12.4340 C.1   1202  DCP1202     0.2756
      3  N3       -24.5480   -6.8080  -11.4330 N.2   1202  DCP1202    -0.3024
      4  C4       -25.8750   -6.7400  -11.6500 C.2   1202  DCP1202     0.2346
      5  C5       -26.3660   -6.4800  -12.9330 C.2   1202  DCP1202     0.0687
      6  C6       -25.4630   -6.2940  -13.9760 C.2   1202  DCP1202     0.0835
      7  O2       -22.4400   -6.7000  -12.2000 O.2   1202  DCP1202    -0.1925
      8  N4       -26.7090   -6.9290  -10.6000 N.pl3 1202  DCP1202    -0.0921
      9  C1'      -23.1340   -6.1450  -14.7920 C.3   1202  DCP1202     0.2090
     10  C2'      -22.8480   -7.3300  -15.7110 C.3   1202  DCP1202     0.0874
     11  C3'      -22.7400   -6.7160  -17.0980 C.3   1202  DCP1202     0.1857
     12  C4'      -23.3940   -5.3510  -16.9710 C.3   1202  DCP1202     0.1773
     13  O4'      -23.5660   -5.0400  -15.5870 O.3   1202  DCP1202    -0.3339
     14  O3'      -21.3740   -6.4980  -17.4870 O.3   1202  DCP1202    -0.2203
     15  C5'      -24.7610   -5.3760  -17.6020 C.3   1202  DCP1202     0.1812
     16  O5'      -24.6650   -5.0300  -18.9700 O.3   1202  DCP1202    -0.3112
     17  PA       -25.9890   -5.2410  -19.8350 P.3   1202  DCP1202     0.2189
     18  O1A      -25.6460   -5.0000  -21.2890 O.2   1202  DCP1202    -0.5170
     19  O2A      -27.1250   -4.4910  -19.1790 O.3   1202  DCP1202    -0.4371
     20  O3A      -26.3490   -6.7870  -19.5780 O.3   1202  DCP1202    -0.2700
     21  PB       -25.7820   -8.0430  -20.3930 P.3   1202  DCP1202     0.2277
     22  O1B      -25.9790   -9.1530  -19.3900 O.3   1202  DCP1202    -0.4368
     23  O2B      -24.4100   -7.6740  -20.8950 O.2   1202  DCP1202    -0.5168
     24  O3B      -26.8360   -8.2020  -21.6410 O.3   1202  DCP1202    -0.2258
     25  PG       -26.8450   -9.3170  -22.8310 P.3   1202  DCP1202     0.5373
     26  O1G      -25.3790   -9.5780  -23.0870 O.3   1202  DCP1202    -0.1143
     27  O2G      -27.5570   -8.6330  -23.9500 O.2   1202  DCP1202    -0.2221
     28  O3G      -27.5770  -10.5290  -22.3220 O.3   1202  DCP1202    -0.1143
@<TRIPOS>BOND
     1    27    25    2
     2    26    25    1
     3    25    28    1
     4    25    24    1
     5    24    21    1
     6    18    17    2
     7    23    21    2
     8    21    20    1
     9    21    22    1
    10    17    20    1
    11    17    19    1
    12    17    16    1
    13    16    15    1
    14    15    12    1
    15    14    11    1
    16    11    12    1
    17    11    10    1
    18    12    13    1
    19    10     9    1
    20    13     9    1
    21     9     1    1
    22     6     1    1
    23     6     5    2
    24     1     2   am
    25     5     4    1
    26     2     7    2
    27     2     3    2
    28     4     3    2
    29     4     8    1
