@<TRIPOS>MOLECULE
2jar_UMP_A_1.pdb
 20 21 0 0 0
SMALL
GASTEIGER

@<TRIPOS>ATOM
      1  N1         7.0570  -22.5030    4.8650 N.am  1200  UMP1200    -0.1790
      2  C2         7.2410  -21.3950    5.7230 C.1   1200  UMP1200     0.2844
      3  N3         6.1360  -20.6290    6.1290 N.2   1200  UMP1200    -0.2452
      4  C4         4.8570  -20.9840    5.6860 C.1   1200  UMP1200     0.2182
      5  C5         4.6680  -22.0900    4.8330 C.2   1200  UMP1200     0.1242
      6  C6         5.7650  -22.8650    4.4210 C.2   1200  UMP1200     0.0928
      7  O2         8.3710  -21.0970    6.0950 O.2   1200  UMP1200    -0.1918
      8  O4         3.8950  -20.3120    6.0670 O.2   1200  UMP1200    -0.2085
      9  C1'        8.2620  -23.2890    4.4960 C.3   1200  UMP1200     0.2090
     10  C2'        8.2100  -24.4510    5.4930 C.3   1200  UMP1200     0.0874
     11  C3'        8.9960  -25.5370    4.7650 C.3   1200  UMP1200     0.1857
     12  C4'        8.8950  -25.1180    3.3190 C.3   1200  UMP1200     0.1774
     13  O3'       10.3730  -25.4700    5.1180 O.3   1200  UMP1200    -0.2203
     14  O4'        8.1220  -23.9030    3.2500 O.3   1200  UMP1200    -0.3339
     15  C5'        7.9520  -26.0390    2.5580 C.3   1200  UMP1200     0.1858
     16  O5'        8.3790  -25.9270    1.2550 O.3   1200  UMP1200    -0.2675
     17  P          7.9040  -26.9740    0.1800 P.3   1200  UMP1200     0.5327
     18  OP1        7.9150  -26.1420   -1.2100 O.2   1200  UMP1200    -0.2224
     19  OP2        9.0270  -28.1100    0.0460 O.3   1200  UMP1200    -0.1145
     20  OP3        6.5780  -27.5640    0.5060 O.3   1200  UMP1200    -0.1145
@<TRIPOS>BOND
     1    18    17    2
     2    19    17    1
     3    17    20    1
     4    17    16    1
     5    16    15    1
     6    15    12    1
     7    14    12    1
     8    14     9    1
     9    12    11    1
    10     6     5    2
    11     6     1    1
    12     9     1    1
    13     9    10    1
    14    11    13    1
    15    11    10    1
    16     5     4    1
    17     1     2   am
    18     4     8    2
    19     4     3    2
    20     2     7    2
    21     2     3    2
