@<TRIPOS>MOLECULE
2jas_DTP_A_1.pdb
 30 32 0 0 0
SMALL
GASTEIGER

@<TRIPOS>ATOM
      1  PG       -43.6480    9.7550   42.3640 P.3   1201  DTP1201     0.5373
      2  O1G      -42.4840    8.8530   42.7430 O.3   1201  DTP1201    -0.1143
      3  O2G      -43.2640   11.1890   42.0660 O.2   1201  DTP1201    -0.2221
      4  O3G      -44.8880    9.6400   43.2170 O.3   1201  DTP1201    -0.1143
      5  PB       -44.0150    9.6270   39.5330 P.3   1201  DTP1201     0.2277
      6  O1B      -42.8420   10.5750   39.4130 O.3   1201  DTP1201    -0.4368
      7  O2B      -44.1750    8.4710   38.5810 O.2   1201  DTP1201    -0.5168
      8  O3B      -44.1180    8.9980   41.0170 O.3   1201  DTP1201    -0.2258
      9  PA       -45.4430   12.0390   39.5780 P.3   1201  DTP1201     0.2189
     10  O1A      -46.7100   12.4050   40.3050 O.3   1201  DTP1201    -0.4371
     11  O2A      -44.1190   12.5990   40.0400 O.2   1201  DTP1201    -0.5170
     12  O3A      -45.3910   10.4470   39.5090 O.3   1201  DTP1201    -0.2700
     13  O5'      -45.5290   12.3540   38.0040 O.3   1201  DTP1201    -0.3112
     14  C5'      -46.4160   13.3440   37.5340 C.3   1201  DTP1201     0.1813
     15  C4'      -45.6530   14.5250   36.9850 C.3   1201  DTP1201     0.1795
     16  O4'      -46.3200   14.8750   35.7820 O.3   1201  DTP1201    -0.3155
     17  C3'      -45.8150   15.7310   37.8900 C.3   1201  DTP1201     0.1883
     18  O3'      -44.7590   16.6550   37.6270 O.3   1201  DTP1201    -0.2202
     19  C2'      -47.1030   16.4030   37.4690 C.3   1201  DTP1201     0.1151
     20  C1'      -47.1860   16.0040   36.0060 C.3   1201  DTP1201     0.2873
     21  N9       -48.5660   15.6770   35.5730 N.pl3 1201  DTP1201    -0.1460
     22  C8       -49.0660   14.4520   35.3250 C.3   1201  DTP1201     0.3377
     23  N7       -50.3570   14.5420   34.9170 N.2   1201  DTP1201    -0.2095
     24  C5       -50.6850   15.8490   34.8960 C.2   1201  DTP1201     0.2526
     25  C6       -51.8780   16.6580   34.5590 C.2   1201  DTP1201     0.4393
     26  N6       -53.0240   16.0660   34.1550 N.pl3 1201  DTP1201     0.2180
     27  N1       -51.7890   18.0060   34.6730 N.2   1201  DTP1201     0.0021
     28  C2       -50.6620   18.6180   35.0800 C.3   1201  DTP1201     0.5254
     29  N3       -49.5420   17.9440   35.4050 N.2   1201  DTP1201    -0.0055
     30  C4       -49.4970   16.5910   35.3300 C.2   1201  DTP1201     0.3518
@<TRIPOS>BOND
     1    26    25    1
     2    25    27    2
     3    25    24    1
     4    27    28    1
     5    24    23    2
     6    24    30    1
     7    23    22    1
     8    28    29    1
     9    22    21    1
    10    30    29    2
    11    30    21    1
    12    21    20    1
    13    16    20    1
    14    16    15    1
    15    20    19    1
    16    15    14    1
    17    15    17    1
    18    19    17    1
    19    14    13    1
    20    18    17    1
    21    13     9    1
    22     7     5    2
    23     6     5    1
    24    12     5    1
    25    12     9    1
    26     5     8    1
    27     9    11    2
    28     9    10    1
    29     8     1    1
    30     3     1    2
    31     1     2    1
    32     1     4    1
