@<TRIPOS>MOLECULE
2jat_DCM_A_1.pdb
 20 21 0 0 0
SMALL
GASTEIGER

@<TRIPOS>ATOM
      1  N1         6.3010   25.0140   13.7190 N.am  1205  DCM1205    -0.1802
      2  C2         5.7990   25.3210   12.4260 C.1   1205  DCM1205     0.2756
      3  N3         5.9840   24.4010   11.3830 N.2   1205  DCM1205    -0.3024
      4  C4         6.6630   23.2030   11.6100 C.2   1205  DCM1205     0.2346
      5  C5         7.1670   22.8970   12.8760 C.2   1205  DCM1205     0.0687
      6  C6         6.9890   23.7920   13.9300 C.2   1205  DCM1205     0.0835
      7  O2         5.1980   26.3700   12.1860 O.2   1205  DCM1205    -0.1925
      8  N4         6.8200   22.3700   10.5960 N.pl3 1205  DCM1205    -0.0921
      9  C1'        6.1160   25.9610   14.8430 C.3   1205  DCM1205     0.2090
     10  C2'        4.7460   25.6210   15.4080 C.3   1205  DCM1205     0.0874
     11  C3'        4.9270   25.6880   16.9110 C.3   1205  DCM1205     0.1857
     12  C4'        6.4330   25.8480   17.1310 C.3   1205  DCM1205     0.1774
     13  O4'        7.0620   25.6180   15.8550 O.3   1205  DCM1205    -0.3339
     14  O3'        4.2630   26.8520   17.4100 O.3   1205  DCM1205    -0.2203
     15  C5'        6.9960   24.8690   18.2020 C.3   1205  DCM1205     0.1858
     16  O5'        6.4320   23.5550   18.1080 O.3   1205  DCM1205    -0.2675
     17  P          5.8880   22.7230   19.3960 P.3   1205  DCM1205     0.5327
     18  O1P        7.1030   21.8950   20.0390 O.3   1205  DCM1205    -0.1145
     19  O2P        5.5080   23.8240   20.5590 O.3   1205  DCM1205    -0.1145
     20  O3P        4.7780   21.8280   19.0210 O.2   1205  DCM1205    -0.2224
@<TRIPOS>BOND
     1     8     4    1
     2     3     4    2
     3     3     2    2
     4     4     5    1
     5     7     2    2
     6     2     1   am
     7     5     6    2
     8     1     6    1
     9     1     9    1
    10     9    10    1
    11     9    13    1
    12    10    11    1
    13    13    12    1
    14    11    12    1
    15    11    14    1
    16    12    15    1
    17    16    15    1
    18    16    17    1
    19    20    17    2
    20    17    18    1
    21    17    19    1
