@<TRIPOS>MOLECULE
2jau_ATM_A_1.pdb
 23 24 0 0 0
SMALL
GASTEIGER

@<TRIPOS>ATOM
      1  P         16.7750   39.7490   28.7000 P.3   1230  ATM1230     0.5327
      2  OP1       16.1470   39.4330   30.1360 O.3   1230  ATM1230    -0.1145
      3  OP2       17.9820   40.7830   28.9650 O.3   1230  ATM1230    -0.1145
      4  OP3       17.2210   38.5070   27.9860 O.2   1230  ATM1230    -0.2224
      5  O5'       15.4460   40.4110   28.0570 O.3   1230  ATM1230    -0.2676
      6  C5'       15.2830   40.7130   26.6900 C.3   1230  ATM1230     0.1853
      7  C4'       14.0520   41.5800   26.4870 C.3   1230  ATM1230     0.1724
      8  O4'       13.1030   40.7890   25.7780 O.3   1230  ATM1230    -0.3345
      9  C3'       13.1950   41.8860   27.7270 C.3   1230  ATM1230     0.1731
     10  N3'       13.7120   43.0280   28.4730 N.2   1230  ATM1230    -0.0969
     11  N4'       13.9370   44.1850   27.9530 N.2   1230  ATM1230    -0.1663
     12  N5'       14.1720   45.3420   27.4810 N.2   1230  ATM1230     0.0678
     13  C2'       11.8740   42.2820   27.1040 C.3   1230  ATM1230     0.0819
     14  C1'       12.0020   41.6840   25.7020 C.3   1230  ATM1230     0.2085
     15  N1        10.8800   40.7930   25.4260 N.am  1230  ATM1230    -0.1794
     16  C2        10.2630   40.8490   24.1810 C.1   1230  ATM1230     0.2844
     17  O2        10.6440   41.6540   23.3290 O.2   1230  ATM1230    -0.1918
     18  N3         9.1950   39.9890   23.9240 N.2   1230  ATM1230    -0.2455
     19  C4         8.7610   39.0700   24.8940 C.1   1230  ATM1230     0.2134
     20  O4         7.8100   38.3280   24.6350 O.2   1230  ATM1230    -0.2088
     21  C5         9.3950   39.0270   26.1400 C.2   1230  ATM1230     0.0891
     22  C6        10.4550   39.8810   26.4050 C.2   1230  ATM1230     0.0877
     23  C5A        8.9860   38.0570   27.2210 C.3   1230  ATM1230     0.0462
@<TRIPOS>BOND
     1    17    16    2
     2    18    16    2
     3    18    19    2
     4    16    15   am
     5    20    19    2
     6    19    21    1
     7    15    14    1
     8    15    22    1
     9    14     8    1
    10    14    13    1
    11     8     7    1
    12    21    22    2
    13    21    23    1
    14     7     6    1
    15     7     9    1
    16     6     5    1
    17    13     9    1
    18    12    11    2
    19     9    10    1
    20    11    10    2
    21     4     1    2
    22     5     1    1
    23     1     3    1
    24     1     2    1
