@<TRIPOS>MOLECULE
2jav_5Z5_A_1.pdb
 23 25 0 0 0
SMALL
GASTEIGER

@<TRIPOS>ATOM
      1  C17       -6.9010   14.7630   21.6830 C.3   1280  5Z51280     0.1388
      2  N3        -6.1930   13.5910   21.1130 N.am  1280  5Z51280    -0.1997
      3  C16       -6.3350   12.3690   21.5950 C.2   1280  5Z51280     0.2668
      4  O2        -7.0540   12.1170   22.5630 O.2   1280  5Z51280    -0.2683
      5  C12       -5.5290   11.2540   20.8880 C.2   1280  5Z51280     0.0786
      6  C11       -4.6760   11.3460   19.7890 C.2   1280  5Z51280     0.0105
      7  C14       -4.3340   12.6440   18.9990 C.3   1280  5Z51280     0.0336
      8  C13       -5.5400    9.9190   21.2430 C.2   1280  5Z51280     0.1131
      9  C15       -6.3210    9.2860   22.3870 C.3   1280  5Z51280     0.0665
     10  N2        -4.7530    9.2340   20.4200 N.2   1280  5Z51280    -0.4104
     11  C10       -4.2010   10.0560   19.5200 C.2   1280  5Z51280     0.1100
     12  C9        -3.3250    9.7960   18.4630 C.3   1280  5Z51280     0.0978
     13  C7        -2.7900    8.5400   18.1250 C.2   1280  5Z51280     0.0820
     14  C5        -1.9060    8.3320   17.0720 C.ar  1280  5Z51280     0.0397
     15  C4        -1.3300    9.1700   16.1190 C.ar  1280  5Z51280     0.0144
     16  C1        -0.4500    8.6470   15.1730 C.ar  1280  5Z51280     0.0578
     17 CL1         0.2570    9.6930   13.9970 Cl    1280  5Z51280    -0.0822
     18  C2        -0.1450    7.2880   15.1620 C.ar  1280  5Z51280     0.0140
     19  C3        -0.7260    6.4570   16.1210 C.ar  1280  5Z51280     0.0339
     20  C6        -1.5950    6.9690   17.0700 C.ar  1280  5Z51280     0.1448
     21  N1        -2.2610    6.3800   18.0620 N.2   1280  5Z51280    -0.3331
     22  C8        -2.9840    7.2850   18.7080 C.1   1280  5Z51280     0.2010
     23  O1        -3.6930    7.0020   19.6710 O.2   1280  5Z51280    -0.2096
@<TRIPOS>BOND
     1    17    16    1
     2    18    16   ar
     3    18    19   ar
     4    16    15   ar
     5    15    14   ar
     6    19    20   ar
     7    20    14   ar
     8    20    21    2
     9    14    13    2
    10    21    22    2
    11    13    12    1
    12    13    22    1
    13    12    11    1
    14    22    23    2
    15     7     6    1
    16    11     6    1
    17    11    10    2
    18     6     5    2
    19    10     8    2
    20     5     8    1
    21     5     3    1
    22     2     3   am
    23     2     1    1
    24     8     9    1
    25     3     4    2
