@<TRIPOS>MOLECULE
2jaw_BVP_A_1.pdb
 23 24 0 0 0
SMALL
GASTEIGER

@<TRIPOS>ATOM
      1  O3'       13.9170   44.5270   27.2090 O.3   1228  BVP1228    -0.2203
      2  C3'       13.6290   43.2380   27.7480 C.3   1228  BVP1228     0.1857
      3  C2'       12.2010   42.8310   27.4610 C.3   1228  BVP1228     0.0871
      4  C1'       12.3120   42.0430   26.1220 C.3   1228  BVP1228     0.2052
      5  O4'       13.6840   41.4720   26.0410 O.3   1228  BVP1228    -0.3342
      6  C4'       14.5000   42.2280   27.0170 C.3   1228  BVP1228     0.1774
      7  C5'       14.8140   41.4290   28.2900 C.3   1228  BVP1228     0.1858
      8  N1        11.2380   41.0170   26.0100 N.am  1228  BVP1228    -0.1977
      9  C6        10.5930   40.9420   24.7620 C.3   1228  BVP1228     0.1447
     10  C5         9.5820   40.0180   24.5590 C.2   1228  BVP1228     0.0906
     11  C5A        8.9640   39.9450   23.3200 C.2   1228  BVP1228    -0.0038
     12  C5B        9.2480   40.8380   22.3120 C.3   1228  BVP1228     0.0940
     13 BR          8.2860   40.5390   20.7380 Br    1228  BVP1228    -0.0756
     14  C4         9.1800   39.1480   25.5740 C.1   1228  BVP1228     0.2135
     15  O4         8.2740   38.3400   25.3410 O.2   1228  BVP1228    -0.2088
     16  N3         9.8000   39.1980   26.8430 N.2   1228  BVP1228    -0.2458
     17  C2        10.8430   40.1430   27.0690 C.1   1228  BVP1228     0.2807
     18  O2        11.3950   40.1910   28.1760 O.2   1228  BVP1228    -0.1922
     19  O5'       15.5190   40.2740   27.9770 O.3   1228  BVP1228    -0.2675
     20  P         16.6910   39.8120   28.9590 P.3   1228  BVP1228     0.5327
     21  O1P       17.7420   40.9900   29.1810 O.3   1228  BVP1228    -0.1145
     22  O2P       15.9960   39.6100   30.4140 O.3   1228  BVP1228    -0.1145
     23  O3P       17.3250   38.5650   28.4710 O.2   1228  BVP1228    -0.2224
@<TRIPOS>BOND
     1    13    12    1
     2    12    11    1
     3    11    10    2
     4    10     9    1
     5    10    14    1
     6     9     8    1
     7    15    14    2
     8    14    16    2
     9     8     4    1
    10     8    17   am
    11     5     4    1
    12     5     6    1
    13     4     3    1
    14    16    17    2
    15     6     2    1
    16     6     7    1
    17    17    18    2
    18     1     2    1
    19     3     2    1
    20    19     7    1
    21    19    20    1
    22    23    20    2
    23    20    21    1
    24    20    22    1
