@<TRIPOS>MOLECULE
2jax_ATP_A_1.pdb
 31 33 0 0 0
SMALL
GASTEIGER

@<TRIPOS>ATOM
      1  PG       -11.9770   29.3010    0.5470 P.3   1295  ATP1295     0.5373
      2  O1G      -12.1770   28.4010   -0.6320 O.2   1295  ATP1295    -0.2221
      3  O2G      -13.2430   29.8650    1.1310 O.3   1295  ATP1295    -0.1143
      4  O3G      -10.8810   30.3050    0.3400 O.3   1295  ATP1295    -0.1143
      5  PB       -12.2870   27.7210    2.8450 P.3   1295  ATP1295     0.2277
      6  O1B      -11.9280   26.2850    3.0730 O.3   1295  ATP1295    -0.4368
      7  O2B      -13.7010   28.1180    2.5500 O.2   1295  ATP1295    -0.5168
      8  O3B      -11.3850   28.3190    1.6660 O.3   1295  ATP1295    -0.2258
      9  PA       -12.1830   30.0750    4.1630 P.3   1295  ATP1295     0.2189
     10  O1A      -13.4690   30.2450    3.3870 O.2   1295  ATP1295    -0.5170
     11  O2A      -10.9320   30.8260    3.8280 O.3   1295  ATP1295    -0.4371
     12  O3A      -11.8250   28.5250    4.1430 O.3   1295  ATP1295    -0.2700
     13  O5'      -12.4550   30.4010    5.6900 O.3   1295  ATP1295    -0.3112
     14  C5'      -11.7670   29.6820    6.6870 C.3   1295  ATP1295     0.1813
     15  C4'      -11.9930   30.4310    7.9840 C.3   1295  ATP1295     0.1821
     16  O4'      -12.5500   31.7010    7.6790 O.3   1295  ATP1295    -0.3135
     17  C3'      -13.0010   29.7340    8.8530 C.3   1295  ATP1295     0.2184
     18  O3'      -12.3020   29.1200    9.9200 O.3   1295  ATP1295    -0.2174
     19  C2'      -13.8570   30.8340    9.4150 C.3   1295  ATP1295     0.2570
     20  O2'      -13.4410   31.1140   10.7410 O.3   1295  ATP1295    -0.2130
     21  C1'      -13.6280   32.0410    8.5400 C.3   1295  ATP1295     0.3186
     22  N9       -14.8530   32.1510    7.7310 N.pl3 1295  ATP1295    -0.1439
     23  C8       -15.1210   31.4120    6.6570 C.3   1295  ATP1295     0.3377
     24  N7       -16.3270   31.7240    6.1380 N.2   1295  ATP1295    -0.2095
     25  C5       -16.8530   32.6820    6.9030 C.2   1295  ATP1295     0.2526
     26  C6       -18.1040   33.4460    6.9160 C.2   1295  ATP1295     0.4393
     27  N6       -19.0570   33.2570    5.9810 N.pl3 1295  ATP1295     0.2180
     28  N1       -18.2680   34.3480    7.8810 N.2   1295  ATP1295     0.0021
     29  C2       -17.3350   34.5490    8.8070 C.3   1295  ATP1295     0.5254
     30  N3       -16.1810   33.8890    8.8560 N.2   1295  ATP1295    -0.0055
     31  C4       -15.8820   32.9550    7.9470 C.2   1295  ATP1295     0.3518
@<TRIPOS>BOND
     1     2     1    2
     2     4     1    1
     3     1     3    1
     4     1     8    1
     5     8     5    1
     6     7     5    2
     7     5     6    1
     8     5    12    1
     9    10     9    2
    10    11     9    1
    11    12     9    1
    12     9    13    1
    13    13    14    1
    14    27    26    1
    15    24    23    1
    16    24    25    2
    17    23    22    1
    18    14    15    1
    19    25    26    1
    20    25    31    1
    21    26    28    2
    22    16    15    1
    23    16    21    1
    24    22    31    1
    25    22    21    1
    26    28    29    1
    27    31    30    2
    28    15    17    1
    29    21    19    1
    30    29    30    1
    31    17    19    1
    32    17    18    1
    33    19    20    1
