@<TRIPOS>MOLECULE
2jb2_PHE_A_1.pdb
 12 12 0 0 0
SMALL
GASTEIGER

@<TRIPOS>ATOM
      1  N         21.6650   44.3320   14.6240 N.3   1490  PHE1490    -0.1205
      2  CA        20.3610   44.0710   13.9510 C.3   1490  PHE1490     0.1986
      3  C         20.4120   44.5510   12.5080 C.2   1490  PHE1490     0.3822
      4  O         21.3830   45.1930   12.1030 O.co2 1490  PHE1490    -0.2440
      5  CB        19.2270   44.7540   14.7170 C.3   1490  PHE1490     0.0569
      6  CG        19.2010   46.2530   14.5600 C.ar  1490  PHE1490    -0.0202
      7  CD1       18.3390   46.8550   13.6600 C.ar  1490  PHE1490    -0.0042
      8  CD2       20.0790   47.0610   15.2720 C.ar  1490  PHE1490    -0.0042
      9  CE1       18.3350   48.2190   13.4880 C.ar  1490  PHE1490    -0.0003
     10  CE2       19.8610   48.4280   15.3180 C.ar  1490  PHE1490    -0.0003
     11  CZ        19.1100   49.0190   14.3080 C.ar  1490  PHE1490    -0.0000
     12  OXT       19.4520   44.4050   11.7550 O.co2 1490  PHE1490    -0.2440
@<TRIPOS>BOND
     1    12     3   ar
     2     4     3   ar
     3     3     2    1
     4     9     7   ar
     5     9    11   ar
     6     7     6   ar
     7     2     1    1
     8     2     5    1
     9    11    10   ar
    10     6     5    1
    11     6     8   ar
    12     8    10   ar
