@<TRIPOS>MOLECULE
2jb3_BE2_A_1.pdb
 10 10 0 0 0
SMALL
GASTEIGER

@<TRIPOS>ATOM
      1  C         20.2650   44.6510   11.8210 C.2   1490  BE21490     0.3891
      2  O1        19.7090   43.8230   11.0740 O.co2 1490  BE21490    -0.2405
      3  O2        21.4980   44.8060   11.7820 O.co2 1490  BE21490    -0.2405
      4  C1        19.5310   45.0990   13.0460 C.ar  1490  BE21490     0.0965
      5  C2        20.0060   44.5730   14.3620 C.ar  1490  BE21490     0.0954
      6  C3        19.3280   44.9640   15.5230 C.ar  1490  BE21490     0.0183
      7  N2        21.2370   44.0040   14.4310 N.pl3 1490  BE21490    -0.1278
      8  C4        18.1990   45.7760   15.4080 C.ar  1490  BE21490     0.0014
      9  C5        17.8200   46.3340   14.1650 C.ar  1490  BE21490     0.0003
     10  C6        18.4730   46.0080   12.9800 C.ar  1490  BE21490     0.0079
@<TRIPOS>BOND
     1     2     1   ar
     2     3     1   ar
     3     1     4    1
     4    10     4   ar
     5    10     9   ar
     6     4     5   ar
     7     9     8   ar
     8     5     7    1
     9     5     6   ar
    10     8     6   ar
