@<TRIPOS>MOLECULE
2jb4_A14_A_1.pdb
 24 26 0 0 0
SMALL
GASTEIGER

@<TRIPOS>ATOM
      1  C1        17.1530   36.4040    5.3890 C.2   1332  A141332     0.3819
      2  C2        15.7290   36.5040    5.9260 C.3   1332  A141332     0.1943
      3  C3        15.1440   37.7660    5.2950 C.3   1332  A141332     0.0311
      4  C4        13.6840   38.0210    5.6990 C.3   1332  A141332     0.0117
      5  C7        13.2320   39.3780    5.1640 C.3   1332  A141332     0.0869
      6  C10       11.8490   39.7120    5.6310 C.2   1332  A141332     0.2414
      7  N11       10.8320   39.6270    4.7790 N.am  1332  A141332    -0.2037
      8  C12        9.4470   39.7090    5.1780 C.3   1332  A141332     0.1354
      9  C13        8.5810   38.8270    6.0350 C.3   1332  A141332     0.1570
     10  N14       15.6240   36.5570    7.3950 N.3   1332  A141332    -0.1208
     11  O15       11.5740   39.9530    6.8100 O.2   1332  A141332    -0.2733
     12  C16        8.0940   39.8100    4.4770 C.3   1332  A141332     0.0902
     13  S17        8.2770   38.8650    2.9230 S.3   1332  A141332    -0.1387
     14  O18        8.8480   38.1850    7.0540 O.3   1332  A141332    -0.2229
     15  O19       17.3060   36.2260    4.1840 O.co2 1332  A141332    -0.2441
     16  O20       18.1190   36.5510    6.1610 O.co2 1332  A141332    -0.2441
     17  C30        6.6520   37.7280    4.7000 C.3   1332  A141332     0.1159
     18  C31        5.3030   37.4490    5.3030 C.2   1332  A141332     0.3652
     19  C32        6.7380   37.9400    3.1910 C.3   1332  A141332     0.0497
     20  C33        6.6800   36.6520    2.3480 C.3   1332  A141332     0.0114
     21  C37        5.6680   38.9270    2.6740 C.3   1332  A141332     0.0114
     22  O42        4.4880   36.6290    4.8030 O.co2 1332  A141332    -0.2456
     23  O43        5.0560   38.1520    6.3310 O.co2 1332  A141332    -0.2456
     24  C15        7.2420   38.9560    5.3880 C.3   1332  A141332     0.0554
@<TRIPOS>BOND
     1    20    19    1
     2    21    19    1
     3    13    19    1
     4    13    12    1
     5    19    17    1
     6    15     1   ar
     7    12     8    1
     8    12    24    1
     9    12     9    1
    10    17    18    1
    11    17    24    1
    12     7     8    1
    13     7     6   am
    14    22    18   ar
    15     5     6    1
    16     5     4    1
    17     8     9    1
    18     3     4    1
    19     3     2    1
    20    18    23   ar
    21    24     9    1
    22     1     2    1
    23     1    16   ar
    24     6    11    2
    25     2    10    1
    26     9    14    1
