@<TRIPOS>MOLECULE
2jb5_T5C_H_1.pdb
 30 31 0 0 0
SMALL
GASTEIGER

@<TRIPOS>ATOM
      1  O36       20.3810   10.1310   35.3680 O.3   1223  T5C1223    -0.3074
      2  S35       20.6020    8.5300   35.7960 S.3   1223  T5C1223    -0.1943
      3  O37       19.7350    8.1740   37.2010 O.3   1223  T5C1223    -0.3074
      4  O38       20.0870    7.5200   34.5470 O.3   1223  T5C1223    -0.3074
      5  C13       22.3410    8.2720   36.1250 C.3   1223  T5C1223     0.1269
      6  C12       23.0560    7.5130   35.0270 C.3   1223  T5C1223     0.1167
      7  N1        24.2270    6.8060   35.5840 N.pl3 1223  T5C1223    -0.2886
      8  C9        25.4410    7.4420   35.9490 C.ar  1223  T5C1223     0.0477
      9  C8        25.7770    8.8320   35.8470 C.ar  1223  T5C1223     0.0158
     10  C7        27.0480    9.2750   36.2890 C.ar  1223  T5C1223     0.0201
     11  C6        27.9710    8.3270   36.8230 C.ar  1223  T5C1223     0.1121
     12  S39       29.5050    8.8560   37.3890 S.3   1223  T5C1223     0.0421
     13  O41       29.6640   10.5310   37.3280 O.3   1223  T5C1223    -0.0650
     14  O40       30.7370    8.1360   36.4930 O.3   1223  T5C1223    -0.0650
     15  O42       29.7040    8.3130   38.9740 O.3   1223  T5C1223    -0.0650
     16  C5        27.6380    6.9460   36.9130 C.ar  1223  T5C1223     0.0162
     17  C4        26.3650    6.4930   36.4710 C.ar  1223  T5C1223    -0.0029
     18  C3        25.7730    5.0910   36.4690 C.3   1223  T5C1223     0.0516
     19  C11       25.7480    4.5900   37.9370 C.3   1223  T5C1223     0.0101
     20  C10       26.6570    4.2500   35.5070 C.3   1223  T5C1223     0.0101
     21  C2        24.3730    5.3930   35.8790 C.2   1223  T5C1223     0.0318
     22  C14       23.3190    4.4740   35.6430 C.2   1223  T5C1223     0.0107
     23  C15       23.3520    2.9810   35.9340 C.2   1223  T5C1223     0.0006
     24  C16       22.2110    2.1300   35.6630 C.2   1223  T5C1223    -0.0042
     25  C17       22.2470    0.7020   35.9540 C.2   1223  T5C1223    -0.0219
     26  C34       23.4760    0.0110   36.5590 C.3   1223  T5C1223     0.0310
     27  C18       21.0350   -0.0210   35.6300 C.2   1223  T5C1223    -0.0046
     28  C19       20.8990   -1.4480   35.8560 C.2   1223  T5C1223    -0.0049
     29  C20       19.6690   -2.1030   35.5100 C.2   1223  T5C1223    -0.0258
     30  C22       19.4410   -3.5110   35.6950 C.3   1223  T5C1223     0.0307
@<TRIPOS>BOND
     1     4     2    1
     2     6     7    1
     3     6     5    1
     4     1     2    1
     5    20    18    1
     6    29    30    1
     7    29    28    2
     8     7    21    1
     9     7     8    1
    10    27    28    1
    11    27    25    2
    12    22    21    2
    13    22    23    1
    14    24    23    2
    15    24    25    1
    16     2     5    1
    17     2     3    1
    18     9     8   ar
    19     9    10   ar
    20    21    18    1
    21     8    17   ar
    22    25    26    1
    23    10    11   ar
    24    18    17    1
    25    18    19    1
    26    17    16   ar
    27    14    12    1
    28    11    16   ar
    29    11    12    1
    30    13    12    1
    31    12    15    1
