@<TRIPOS>MOLECULE
2jb6_T5C_B_1.pdb
 50 53 0 0 0
SMALL
GASTEIGER

@<TRIPOS>ATOM
      1  O36       91.9430   -8.4980  100.5740 O.3   1222  T5C1222    -0.3074
      2  S35       91.7510   -9.8780  100.0440 S.3   1222  T5C1222    -0.1943
      3  O37       90.8840  -10.6510  100.9870 O.3   1222  T5C1222    -0.3074
      4  O38       91.0820   -9.8290   98.7120 O.3   1222  T5C1222    -0.3074
      5  C13       93.3780  -10.6880   99.9030 C.3   1222  T5C1222     0.1269
      6  C12       94.2010  -10.3980   98.6360 C.3   1222  T5C1222     0.1167
      7  N1        95.1780  -11.4980   98.5700 N.pl3 1222  T5C1222    -0.2889
      8  C9        96.3470  -11.4750   99.2280 C.ar  1222  T5C1222     0.0477
      9  C8        96.9290  -10.4860  100.0260 C.ar  1222  T5C1222     0.0158
     10  C7        98.1950  -10.6770  100.5740 C.ar  1222  T5C1222     0.0201
     11  C6        98.9000  -11.8480  100.3170 C.ar  1222  T5C1222     0.1121
     12  S39      100.4760  -12.0750  101.0180 S.3   1222  T5C1222     0.0421
     13  O41      101.1560  -10.7490  101.1520 O.3   1222  T5C1222    -0.0650
     14  O40      100.3280  -12.6920  102.3740 O.3   1222  T5C1222    -0.0650
     15  O42      101.2930  -12.9890  100.1650 O.3   1222  T5C1222    -0.0650
     16  C5        98.3370  -12.8300   99.5090 C.ar  1222  T5C1222     0.0162
     17  C4        97.0680  -12.6390   98.9550 C.ar  1222  T5C1222    -0.0029
     18  C3        96.2010  -13.5020   98.0480 C.3   1222  T5C1222     0.0512
     19  C11       96.9600  -13.7510   96.7380 C.3   1222  T5C1222     0.0101
     20  C10       95.8570  -14.8090   98.7740 C.3   1222  T5C1222     0.0101
     21  C2        94.9720  -12.5960   97.8390 C.2   1222  T5C1222     0.0279
     22  C14       93.8760  -12.9180   97.0260 C.2   1222  T5C1222    -0.0108
     23  C15       93.7470  -14.0950   96.2970 C.3   1222  T5C1222     0.0526
     24  C16       92.6190  -14.3160   95.5180 C.2   1222  T5C1222    -0.0256
     25  C17       92.4660  -15.4850   94.7800 C.2   1222  T5C1222    -0.0258
     26  C34       93.5430  -16.5880   94.7910 C.3   1222  T5C1222     0.0307
     27  C18       91.3110  -15.6330   94.0260 C.2   1222  T5C1222    -0.0045
     28  C19       91.0990  -16.7760   93.2670 C.2   1222  T5C1222     0.0006
     29  C20       89.9320  -16.8910   92.5260 C.2   1222  T5C1222     0.0107
     30  C22       89.5850  -17.9820   91.7220 C.2   1222  T5C1222     0.0318
     31  C23       90.4440  -19.2500   91.5170 C.3   1222  T5C1222     0.0516
     32  C31       90.6810  -19.9980   92.8390 C.3   1222  T5C1222     0.0101
     33  C30       91.7690  -18.9350   90.7990 C.3   1222  T5C1222     0.0101
     34  C24       89.5450  -20.0830   90.6130 C.ar  1222  T5C1222    -0.0029
     35  C25       89.6750  -21.3620   90.0650 C.ar  1222  T5C1222     0.0162
     36  C26       88.6630  -21.8710   89.2570 C.ar  1222  T5C1222     0.1121
     37  S47       88.7830  -23.4530   88.5540 S.3   1222  T5C1222     0.0421
     38  O48       88.8740  -23.3200   87.0670 O.3   1222  T5C1222    -0.0650
     39  O50       90.0080  -24.1490   89.0660 O.3   1222  T5C1222    -0.0650
     40  O49       87.5560  -24.2330   88.9090 O.3   1222  T5C1222    -0.0650
     41  C27       87.5300  -21.1130   89.0010 C.ar  1222  T5C1222     0.0201
     42  C28       87.3990  -19.8410   89.5430 C.ar  1222  T5C1222     0.0158
     43  C29       88.4150  -19.3100   90.3360 C.ar  1222  T5C1222     0.0477
     44  N21       88.4840  -18.1440   90.9870 N.pl3 1222  T5C1222    -0.2886
     45  C32       87.4240  -17.1230   90.9160 C.3   1222  T5C1222     0.1167
     46  C33       87.8080  -16.2570   89.7030 C.3   1222  T5C1222     0.1269
     47  S43       86.9170  -14.6790   89.4900 S.3   1222  T5C1222    -0.1943
     48  O46       86.8330  -13.9640   90.7980 O.3   1222  T5C1222    -0.3074
     49  O44       85.5440  -14.9660   88.9780 O.3   1222  T5C1222    -0.3074
     50  O45       87.6470  -13.8160   88.5100 O.3   1222  T5C1222    -0.3074
@<TRIPOS>BOND
     1    38    37    1
     2    50    47    1
     3    37    40    1
     4    37    39    1
     5    37    36    1
     6    49    47    1
     7    41    36   ar
     8    41    42   ar
     9    36    35   ar
    10    47    46    1
    11    47    48    1
    12    42    43   ar
    13    46    45    1
    14    35    34   ar
    15    43    34   ar
    16    43    44    1
    17    34    31    1
    18    33    31    1
    19    45    44    1
    20    44    30    1
    21    31    30    1
    22    31    32    1
    23    30    29    2
    24    29    28    1
    25    28    27    2
    26    27    25    1
    27    25    26    1
    28    25    24    2
    29    24    23    1
    30    23    22    1
    31    19    18    1
    32    22    21    2
    33    21    18    1
    34    21     7    1
    35    18    20    1
    36    18    17    1
    37     7     6    1
    38     7     8    1
    39     6     5    1
    40     4     2    1
    41    17     8   ar
    42    17    16   ar
    43     8     9   ar
    44    16    11   ar
    45     5     2    1
    46     9    10   ar
    47     2     1    1
    48     2     3    1
    49    15    12    1
    50    11    10   ar
    51    11    12    1
    52    12    13    1
    53    12    14    1
