@<TRIPOS>MOLECULE
2jb7_AMP_A_1.pdb
 23 25 0 0 0
SMALL
GASTEIGER

@<TRIPOS>ATOM
      1  C4'       56.4630   23.4630    2.8900 C.3   1168  AMP1168     0.1823
      2  O4'       57.6450   22.6890    2.6080 O.3   1168  AMP1168    -0.3135
      3  C3'       56.6340   24.0090    4.3010 C.3   1168  AMP1168     0.2184
      4  O3'       55.3810   24.2700    4.9450 O.3   1168  AMP1168    -0.2174
      5  C2'       57.3980   22.8840    4.9510 C.3   1168  AMP1168     0.2570
      6  O2'       56.5020   21.8560    5.4180 O.3   1168  AMP1168    -0.2130
      7  C1'       58.2710   22.3370    3.8330 C.3   1168  AMP1168     0.3186
      8  N9        59.6130   22.9480    3.7740 N.pl3 1168  AMP1168    -0.1439
      9  C8        59.8800   24.2570    3.5770 C.3   1168  AMP1168     0.3377
     10  N7        61.2230   24.4840    3.5410 N.2   1168  AMP1168    -0.2095
     11  C5        61.8260   23.2800    3.7280 C.2   1168  AMP1168     0.2526
     12  C6        63.2030   22.7820    3.7850 C.2   1168  AMP1168     0.4393
     13  N6        64.2880   23.6070    3.6780 N.pl3 1168  AMP1168     0.2180
     14  N1        63.4090   21.4630    3.9490 N.2   1168  AMP1168     0.0021
     15  C2        62.3960   20.5950    4.0650 C.3   1168  AMP1168     0.5254
     16  N3        61.1130   20.9780    4.0190 N.2   1168  AMP1168    -0.0055
     17  C4        60.7720   22.2800    3.8510 C.2   1168  AMP1168     0.3518
     18  P         57.3490   27.1230    2.1550 P.3   1168  AMP1168     0.5327
     19  O1P       58.4700   27.3060    3.1640 O.3   1168  AMP1168    -0.1145
     20  O2P       57.7060   27.6860    0.8110 O.2   1168  AMP1168    -0.2224
     21  O3P       55.9810   27.5460    2.6590 O.3   1168  AMP1168    -0.1145
     22  O5'       57.3480   25.5020    1.8540 O.3   1168  AMP1168    -0.2675
     23  C5'       56.2350   24.5920    1.8830 C.3   1168  AMP1168     0.1860
@<TRIPOS>BOND
     1    20    18    2
     2    22    23    1
     3    22    18    1
     4    23     1    1
     5    18    21    1
     6    18    19    1
     7     2     1    1
     8     2     7    1
     9     1     3    1
    10    10     9    1
    11    10    11    2
    12     9     8    1
    13    13    12    1
    14    11    12    1
    15    11    17    1
    16     8     7    1
    17     8    17    1
    18    12    14    2
    19     7     5    1
    20    17    16    2
    21    14    15    1
    22    16    15    1
    23     3     4    1
    24     3     5    1
    25     5     6    1
