@<TRIPOS>MOLECULE
2jbf_PNM_A_1.pdb
 23 24 0 0 0
SMALL
GASTEIGER

@<TRIPOS>ATOM
      1  O8       -11.0510   24.0550   -8.9950 O.2   300  PNM300     -0.2863
      2  C7        -9.9040   24.5230   -9.1680 C.2   300  PNM300      0.2311
      3  N4        -9.5770   26.5620  -11.0270 N.3   300  PNM300     -0.1957
      4  C3       -10.7700   26.5870  -11.8840 C.3   300  PNM300      0.1857
      5  C11      -11.4090   27.8840  -11.5150 C.2   300  PNM300      0.3811
      6  O13      -10.6360   28.7500  -11.0260 O.co2 300  PNM300     -0.2441
      7  O12      -12.6360   27.9820  -11.7210 O.co2 300  PNM300     -0.2441
      8  C2       -10.2480   26.6200  -13.3440 C.3   300  PNM300      0.0658
      9  C10       -9.4810   27.8980  -13.7000 C.3   300  PNM300      0.0129
     10  C9       -11.3270   26.3400  -14.4000 C.3   300  PNM300      0.0129
     11  S1        -9.0530   25.2560  -13.2010 S.3   300  PNM300     -0.1212
     12  C5        -8.7490   25.3980  -11.3750 C.3   300  PNM300      0.1479
     13  C6        -9.1000   24.1990  -10.4680 C.3   300  PNM300      0.1855
     14  N14       -9.7190   23.1170  -11.2370 N.am  300  PNM300     -0.1965
     15  C15       -8.9910   22.0600  -11.5410 C.2   300  PNM300      0.2462
     16  O16       -7.8170   21.9660  -11.1640 O.2   300  PNM300     -0.2730
     17  C17       -9.7100   20.9500  -12.3640 C.3   300  PNM300      0.1131
     18  C18      -10.5220   21.3950  -13.6160 C.ar  300  PNM300     -0.0130
     19  C19      -10.2990   22.6090  -14.2790 C.ar  300  PNM300     -0.0038
     20  C20      -11.0550   22.9710  -15.4050 C.ar  300  PNM300     -0.0003
     21  C21      -12.0460   22.1120  -15.8870 C.ar  300  PNM300     -0.0000
     22  C22      -12.2750   20.8940  -15.2380 C.ar  300  PNM300     -0.0003
     23  C23      -11.5180   20.5420  -14.1140 C.ar  300  PNM300     -0.0038
@<TRIPOS>BOND
     1    21    20   ar
     2    21    22   ar
     3    20    19   ar
     4    22    23   ar
     5    10     8    1
     6    19    18   ar
     7    23    18   ar
     8     9     8    1
     9    18    17    1
    10     8    11    1
    11     8     4    1
    12    11    12    1
    13    17    15    1
    14     4     5    1
    15     4     3    1
    16     7     5   ar
    17    15    14   am
    18    15    16    2
    19     5     6   ar
    20    12     3    1
    21    12    13    1
    22    14    13    1
    23    13     2    1
    24     2     1    2
