@<TRIPOS>MOLECULE
2jbh_5GP_A_1.pdb
 24 26 0 0 0
SMALL
GASTEIGER

@<TRIPOS>ATOM
      1  P         29.4840   20.7560   13.5230 P.3   1230  5GP1230     0.5327
      2  O1P       29.6540   21.9960   12.5910 O.2   1230  5GP1230    -0.2224
      3  O2P       30.7720   19.8160   13.3720 O.3   1230  5GP1230    -0.1145
      4  O3P       28.2520   19.9680   13.2540 O.3   1230  5GP1230    -0.1145
      5  O5'       29.5000   21.2960   15.0410 O.3   1230  5GP1230    -0.2675
      6  C5'       29.0560   20.4520   16.1010 C.3   1230  5GP1230     0.1859
      7  C4'       28.6200   21.2960   17.3360 C.3   1230  5GP1230     0.1801
      8  O4'       29.8360   21.6300   18.0480 O.3   1230  5GP1230    -0.3326
      9  C3'       27.9350   22.6230   17.0010 C.3   1230  5GP1230     0.2158
     10  O3'       27.0120   22.9110   18.0500 O.3   1230  5GP1230    -0.2175
     11  C2'       29.1160   23.6020   17.0210 C.3   1230  5GP1230     0.2310
     12  O2'       28.6590   24.9290   17.3270 O.3   1230  5GP1230    -0.2158
     13  C1'       29.9380   23.0720   18.1980 C.3   1230  5GP1230     0.2293
     14  N9        31.3760   23.3870   18.0720 N.pl3 1230  5GP1230    -0.2354
     15  C8        32.1650   23.0710   17.0190 C.3   1230  5GP1230     0.2246
     16  N7        33.4070   23.4920   17.2550 N.2   1230  5GP1230    -0.2322
     17  C5        33.4280   24.0490   18.4740 C.2   1230  5GP1230     0.2182
     18  C6        34.4260   24.6470   19.2350 C.1   1230  5GP1230     0.2372
     19  O6        35.5980   24.7780   18.8730 O.2   1230  5GP1230    -0.2069
     20  N1        34.0880   25.1440   20.4930 N.2   1230  5GP1230    -0.2485
     21  C2        32.7900   25.0470   20.9640 C.1   1230  5GP1230     0.2531
     22  N2        32.5270   25.5470   22.1610 N.pl3 1230  5GP1230    -0.0226
     23  N3        31.8420   24.4610   20.2260 N.2   1230  5GP1230    -0.3074
     24  C4        32.1330   23.9700   19.0020 C.2   1230  5GP1230     0.2300
@<TRIPOS>BOND
     1     2     1    2
     2     4     1    1
     3     3     1    1
     4     1     5    1
     5     5     6    1
     6     6     7    1
     7     9    11    1
     8     9     7    1
     9     9    10    1
    10    15    16    1
    11    15    14    1
    12    11    12    1
    13    11    13    1
    14    16    17    2
    15     7     8    1
    16     8    13    1
    17    14    13    1
    18    14    24    1
    19    17    24    1
    20    17    18    1
    21    19    18    2
    22    24    23    2
    23    18    20    2
    24    23    21    2
    25    20    21    2
    26    21    22    1
