@<TRIPOS>MOLECULE
2jbj_G88_A_1.pdb
 14 13 0 0 0
SMALL
GASTEIGER

@<TRIPOS>ATOM
      1  O6        14.0590   48.8280   40.8700 O.co2 1768  G881768    -0.2457
      2  C6        14.0690   47.5920   40.6480 C.2   1768  G881768     0.3649
      3  O7        13.0740   47.0850   39.9020 O.co2 1768  G881768    -0.2457
      4  C5        15.1990   46.7460   41.2650 C.3   1768  G881768     0.1146
      5  C4        14.8500   45.2630   41.5020 C.3   1768  G881768     0.0235
      6  C2        16.1270   44.4920   41.9650 C.3   1768  G881768     0.1112
      7  C3        17.1280   44.6370   40.8390 C.2   1768  G881768     0.3648
      8  O5        18.0480   45.4570   40.8370 O.co2 1768  G881768    -0.2457
      9  O4        17.0190   43.8850   39.7410 O.co2 1768  G881768    -0.2457
     10  C1        16.6240   45.1230   43.2740 C.3   1768  G881768     0.0702
     11  P1        17.5950   43.9790   44.2300 P.3   1768  G881768     0.1177
     12  O2        18.4420   43.0150   43.0240 O.2   1768  G881768    -0.4601
     13  O3        18.7910   44.6540   45.2560 O.3   1768  G881768    -0.3571
     14  O1        16.6370   43.1010   45.0740 O.3   1768  G881768    -0.3571
@<TRIPOS>BOND
     1     9     7   ar
     2     3     2   ar
     3     2     1   ar
     4     2     4    1
     5     8     7   ar
     6     7     6    1
     7     4     5    1
     8     5     6    1
     9     6    10    1
    10    12    11    2
    11    10    11    1
    12    11    14    1
    13    11    13    1
