@<TRIPOS>MOLECULE
2jbk_QUS_A_1.pdb
 13 13 0 0 0
SMALL
GASTEIGER

@<TRIPOS>ATOM
      1  C01       17.0760   44.6590   41.0060 C.2   1764  QUS1764     0.3838
      2  C02       16.0110   44.6090   42.0580 C.3   1764  QUS1764     0.2184
      3  C03       14.6370   45.1680   41.6950 C.3   1764  QUS1764     0.1793
      4  C04       13.7490   46.8120   40.0210 C.1   1764  QUS1764     0.3141
      5  C05       14.3880   48.6370   41.0480 C.1   1764  QUS1764     0.4071
      6  NP3       16.4780   45.3590   43.2350 N.3   1764  QUS1764    -0.1188
      7  N14       14.6770   46.4200   40.9440 N.am  1764  QUS1764    -0.0527
      8  N15       13.6170   48.1190   40.0910 N.2   1764  QUS1764    -0.2120
      9  O16       17.0400   43.8150   40.0890 O.co2 1764  QUS1764    -0.2440
     10  O17       17.9560   45.5410   41.1380 O.co2 1764  QUS1764    -0.2440
     11  O18       13.2360   46.0400   39.2840 O.2   1764  QUS1764    -0.1893
     12  O19       14.5360   49.8000   41.3920 O.2   1764  QUS1764    -0.1667
     13  O20       15.0550   47.6160   41.6480 O.3   1764  QUS1764    -0.2752
@<TRIPOS>BOND
     1    11     4    2
     2     4     8    2
     3     4     7   am
     4     9     1   ar
     5     8     5    2
     6     7    13    1
     7     7     3    1
     8     1    10   ar
     9     1     2    1
    10     5    12    2
    11     5    13    1
    12     3     2    1
    13     2     6    1
