@<TRIPOS>MOLECULE
2jbl_NS5_M_1.pdb
 40 39 0 0 0
SMALL
GASTEIGER

@<TRIPOS>ATOM
      1  C1       124.0100   47.1220   -9.0890 C.3   1328  NS51328     0.0000
      2  CM1      123.2430   45.8390   -8.7990 C.3   1328  NS51328     0.0000
      3  CM2      123.3460   47.9060  -10.2110 C.3   1328  NS51328     0.0000
      4  C2       124.1430   47.9830   -7.8300 C.3   1328  NS51328     0.0003
      5  C3       124.9270   47.3260   -6.7030 C.3   1328  NS51328     0.0043
      6  C4       125.0510   48.2530   -5.5020 C.3   1328  NS51328     0.0217
      7  C5       125.8530   47.6610   -4.4010 C.2   1328  NS51328    -0.0482
      8  C6       127.3220   47.8530   -4.5130 C.3   1328  NS51328     0.0260
      9  C7       125.2920   46.8690   -3.4690 C.2   1328  NS51328    -0.0346
     10  C8       126.0470   46.2100   -2.3600 C.3   1328  NS51328     0.0254
     11  C9       125.1730   45.2990   -1.4880 C.3   1328  NS51328     0.0050
     12  C10      124.5080   46.0270   -0.3400 C.3   1328  NS51328     0.0047
     13  C11      123.2800   46.7860   -0.6970 C.3   1328  NS51328     0.0004
     14  C12      124.7970   45.6550    0.9280 C.3   1328  NS51328     0.0260
     15  C13      124.3370   46.2320    2.1850 C.2   1328  NS51328    -0.0265
     16  C14      124.7870   47.3730    2.7440 C.2   1328  NS51328    -0.0088
     17  C15      124.3820   47.8980    4.0500 C.2   1328  NS51328    -0.0222
     18  C16      123.2390   48.8580    3.9720 C.3   1328  NS51328     0.0310
     19  C17      125.1220   47.7060    5.1710 C.2   1328  NS51328    -0.0046
     20  C18      124.9100   48.3270    6.4730 C.2   1328  NS51328    -0.0049
     21  C19      125.6760   48.3360    7.5840 C.2   1328  NS51328    -0.0258
     22  C20      126.8280   47.5020    7.9030 C.3   1328  NS51328     0.0304
     23  C21      127.6520   47.6840    8.9710 C.3   1328  NS51328     0.0264
     24  C22      127.7020   48.9560    9.7750 C.3   1328  NS51328     0.0050
     25  C23      128.6290   46.6350    9.3630 C.2   1328  NS51328    -0.0261
     26  C24      129.7190   46.8370   10.1320 C.2   1328  NS51328    -0.0049
     27  C25      130.7410   45.8560   10.4600 C.2   1328  NS51328    -0.0046
     28  C26      132.0290   46.0750   10.8180 C.2   1328  NS51328    -0.0219
     29  C27      132.6920   47.4280   10.7480 C.3   1328  NS51328     0.0310
     30  C28      132.8480   44.9740   11.3720 C.2   1328  NS51328    -0.0043
     31  C29      134.1700   45.0520   11.6260 C.2   1328  NS51328    -0.0010
     32  C30      135.0040   44.0050   12.1890 C.2   1328  NS51328    -0.0085
     33  C31      136.2980   44.0830   12.5720 C.2   1328  NS51328    -0.0436
     34  C32      137.1520   45.2790   12.3550 C.3   1328  NS51328     0.0264
     35  C33      136.8660   43.0560   13.5110 C.3   1328  NS51328     0.0267
     36  C34      137.7840   42.0860   12.7870 C.3   1328  NS51328     0.0297
     37  C35      138.3820   41.0970   13.7180 C.2   1328  NS51328    -0.0342
     38  C36      139.2750   40.1580   13.3580 C.2   1328  NS51328    -0.0478
     39  CM3      139.7340   39.9800   11.9560 C.3   1328  NS51328     0.0260
     40  CM4      139.8600   39.2070   14.3340 C.3   1328  NS51328     0.0260
@<TRIPOS>BOND
     1     3     1    1
     2     1     2    1
     3     1     4    1
     4     4     5    1
     5     5     6    1
     6     6     7    1
     7     8     7    1
     8     7     9    2
     9     9    10    1
    10    10    11    1
    11    11    12    1
    12    13    12    1
    13    12    14    1
    14    14    15    1
    15    15    16    2
    16    16    17    1
    17    18    17    1
    18    17    19    2
    19    19    20    1
    20    20    21    2
    21    21    22    1
    22    22    23    1
    23    23    25    1
    24    23    24    1
    25    25    26    2
    26    26    27    1
    27    27    28    2
    28    29    28    1
    29    28    30    1
    30    30    31    2
    31    31    32    1
    32    39    38    1
    33    32    33    2
    34    34    33    1
    35    33    35    1
    36    36    35    1
    37    36    37    1
    38    38    37    2
    39    38    40    1
