@<TRIPOS>MOLECULE
2jbl_MQ7_M_1.pdb
 48 49 0 0 0
SMALL
GASTEIGER

@<TRIPOS>ATOM
      1  C1       125.4330   82.3220    7.8390 C.2   1327  MQ71327     0.1915
      2  O1       125.4060   81.6010    6.8260 O.2   1327  MQ71327    -0.2869
      3  C2       124.6340   81.9840    9.0030 C.2   1327  MQ71327     0.0165
      4  C2M      123.7160   80.7820    8.8700 C.3   1327  MQ71327     0.0342
      5  C3       124.7230   82.7320   10.1540 C.2   1327  MQ71327     0.0202
      6  C4       125.6170   83.8810   10.2070 C.2   1327  MQ71327     0.1918
      7  O4       125.6790   84.5560   11.2140 O.2   1327  MQ71327    -0.2869
      8  C5       126.4100   84.2240    9.0450 C.ar  1327  MQ71327     0.0417
      9  C6       127.2840   85.3050    9.1110 C.ar  1327  MQ71327     0.0033
     10  C7       128.0680   85.6190    8.0210 C.ar  1327  MQ71327     0.0001
     11  C8       127.9740   84.8560    6.8690 C.ar  1327  MQ71327     0.0001
     12  C9       127.0980   83.7860    6.8180 C.ar  1327  MQ71327     0.0033
     13  C10      126.3200   83.4720    7.9050 C.ar  1327  MQ71327     0.0417
     14  C11      123.9200   82.3580   11.3610 C.3   1327  MQ71327     0.0547
     15  C12      124.6280   81.4380   12.2380 C.2   1327  MQ71327    -0.0298
     16  C13      125.1920   81.5650   13.4960 C.2   1327  MQ71327    -0.0475
     17  C14      125.2280   82.8410   14.3510 C.3   1327  MQ71327     0.0260
     18  C15      125.8540   80.3500   14.1630 C.3   1327  MQ71327     0.0264
     19  C16      125.0890   79.7340   15.3260 C.3   1327  MQ71327     0.0297
     20  C17      123.7560   79.2510   14.9890 C.2   1327  MQ71327    -0.0342
     21  C18      123.0660   78.1240   15.4010 C.2   1327  MQ71327    -0.0478
     22  C19      123.6240   77.0880   16.3890 C.3   1327  MQ71327     0.0260
     23  C20      121.6560   77.8610   14.8920 C.3   1327  MQ71327     0.0263
     24  C21      120.5580   78.0220   15.9290 C.3   1327  MQ71327     0.0297
     25  C22      120.3280   79.3600   16.4590 C.2   1327  MQ71327    -0.0342
     26  C23      120.0000   79.6630   17.7690 C.2   1327  MQ71327    -0.0478
     27  C24      119.8250   78.5890   18.8590 C.3   1327  MQ71327     0.0260
     28  C25      119.7630   81.0850   18.2350 C.3   1327  MQ71327     0.0263
     29  C26      118.2950   81.2120   18.5820 C.3   1327  MQ71327     0.0297
     30  C27      117.9220   82.5540   18.9680 C.2   1327  MQ71327    -0.0342
     31  C28      116.6740   83.1290   18.7870 C.2   1327  MQ71327    -0.0478
     32  C29      115.5160   82.3650   18.1380 C.3   1327  MQ71327     0.0260
     33  C30      116.3120   84.5500   19.2040 C.3   1327  MQ71327     0.0263
     34  C31      115.6810   84.6970   20.5750 C.3   1327  MQ71327     0.0297
     35  C32      115.3920   86.1010   20.7700 C.2   1327  MQ71327    -0.0342
     36  C33      114.1740   86.7690   20.7990 C.2   1327  MQ71327    -0.0478
     37  C34      112.7900   86.1040   20.6460 C.3   1327  MQ71327     0.0260
     38  C35      114.0600   88.2720   20.9930 C.3   1327  MQ71327     0.0263
     39  C36      113.6050   88.9880   19.7300 C.3   1327  MQ71327     0.0297
     40  C37      113.4540   90.3970   20.0150 C.2   1327  MQ71327    -0.0342
     41  C38      112.6270   91.3880   19.4980 C.2   1327  MQ71327    -0.0478
     42  C39      111.6140   91.1190   18.3850 C.3   1327  MQ71327     0.0260
     43  C40      112.5980   92.8590   19.9460 C.3   1327  MQ71327     0.0263
     44  C41      111.9790   93.1730   21.3110 C.3   1327  MQ71327     0.0297
     45  C42      112.8260   92.9130   22.5030 C.2   1327  MQ71327    -0.0342
     46  C43      112.8610   92.0530   23.6030 C.2   1327  MQ71327    -0.0478
     47  C44      114.0010   92.1240   24.6350 C.3   1327  MQ71327     0.0260
     48  C45      111.8680   90.9280   23.9890 C.3   1327  MQ71327     0.0260
@<TRIPOS>BOND
     1    12    11   ar
     2    12    13   ar
     3     2     1    2
     4    11    10   ar
     5     1    13    1
     6     1     3    1
     7    13     8   ar
     8    10     9   ar
     9     4     3    1
    10     3     5    2
    11     8     9   ar
    12     8     6    1
    13     5     6    1
    14     5    14    1
    15     6     7    2
    16    14    15    1
    17    15    16    2
    18    16    18    1
    19    16    17    1
    20    18    19    1
    21    23    21    1
    22    23    24    1
    23    20    19    1
    24    20    21    2
    25    21    22    1
    26    24    25    1
    27    25    26    2
    28    26    28    1
    29    26    27    1
    30    32    31    1
    31    28    29    1
    32    42    41    1
    33    29    30    1
    34    31    30    2
    35    31    33    1
    36    33    34    1
    37    41    43    1
    38    41    40    2
    39    39    40    1
    40    39    38    1
    41    43    44    1
    42    34    35    1
    43    37    36    1
    44    35    36    2
    45    36    38    1
    46    44    45    1
    47    45    46    2
    48    46    48    1
    49    46    47    1
