@<TRIPOS>MOLECULE
2jbl_SMA_L_1.pdb
 37 38 0 0 0
SMALL
GASTEIGER

@<TRIPOS>ATOM
      1  C2       131.6690   69.7090   -2.3760 C.ar  1277  SMA1277     0.1220
      2  C3       131.4370   70.4200   -1.2070 C.ar  1277  SMA1277     0.0475
      3  C3M      130.8740   69.7730    0.0140 C.3   1277  SMA1277     0.0373
      4  C4       131.7600   71.8900   -1.1340 C.ar  1277  SMA1277     0.2002
      5  C4A      132.3290   72.4980   -2.3900 C.ar  1277  SMA1277     0.1105
      6  C5       132.7070   73.8980   -2.5180 C.ar  1277  SMA1277     0.1479
      7  C5M      132.8730   76.0750   -1.4470 C.3   1277  SMA1277     0.2525
      8  C6       133.2420   74.4020   -3.7440 C.ar  1277  SMA1277     0.0774
      9  C7       133.4160   73.5410   -4.8610 C.ar  1277  SMA1277     0.1835
     10  C7M      134.3260   75.2930   -6.3270 C.3   1277  SMA1277     0.2526
     11  C8       133.0600   72.1600   -4.7790 C.ar  1277  SMA1277     0.2636
     12  C8A      132.5190   71.6540   -3.5400 C.ar  1277  SMA1277     0.1925
     13  C9       131.4250   68.2370   -2.6190 C.3   1277  SMA1277     0.0644
     14  C10      131.0770   67.9410   -4.0740 C.3   1277  SMA1277     0.0104
     15  C11      130.8830   66.4500   -4.3470 C.3   1277  SMA1277     0.0278
     16  C12      129.7320   65.7570   -3.5470 C.3   1277  SMA1277     0.1179
     17  C13      128.3080   65.6660   -4.1860 C.3   1277  SMA1277     0.0586
     18  C14      127.3840   64.8820   -3.2000 C.3   1277  SMA1277     0.1395
     19  C15      126.0940   64.4880   -3.9060 C.2   1277  SMA1277     0.0029
     20  C16      124.8210   64.7650   -3.5510 C.2   1277  SMA1277    -0.0022
     21  C17      123.7140   64.2990   -4.3760 C.2   1277  SMA1277    -0.0006
     22  C18      122.3990   64.5340   -4.1010 C.2   1277  SMA1277    -0.0046
     23  C19      121.2500   64.0940   -4.9210 C.2   1277  SMA1277    -0.0261
     24  C20      119.9890   64.4150   -4.5090 C.2   1277  SMA1277    -0.0300
     25  C21      118.7090   64.0600   -5.2110 C.3   1277  SMA1277     0.0304
     26  C22      130.7590   66.2170   -5.8610 C.3   1277  SMA1277     0.0025
     27  C23      130.7810   64.1210   -2.1310 C.3   1277  SMA1277     0.1740
     28  C24      127.7070   67.0470   -4.4520 C.3   1277  SMA1277     0.0054
     29  C25      127.3010   64.8830   -0.8080 C.3   1277  SMA1277     0.1745
     30  C26      121.5260   63.3150   -6.1800 C.3   1277  SMA1277     0.0307
     31  O1       132.2010   70.2930   -3.5420 O.2   1277  SMA1277    -0.4544
     32  O4       131.5680   72.5460   -0.0970 O.2   1277  SMA1277    -0.2866
     33  O5       132.5150   74.6850   -1.3900 O.3   1277  SMA1277    -0.4711
     34  O7       133.9300   73.9190   -6.1120 O.3   1277  SMA1277    -0.4680
     35  O8       133.2070   71.2720   -5.8310 O.3   1277  SMA1277    -0.2800
     36  O12      130.1340   64.3790   -3.3750 O.3   1277  SMA1277    -0.3535
     37  O14      127.1810   65.6640   -2.0010 O.3   1277  SMA1277    -0.3491
@<TRIPOS>BOND
     1    10    34    1
     2    30    23    1
     3    34     9    1
     4    26    15    1
     5    35    11    1
     6    25    24    1
     7    23    24    2
     8    23    22    1
     9     9    11   ar
    10     9     8   ar
    11    11    12   ar
    12    28    17    1
    13    21    22    2
    14    21    20    1
    15    15    14    1
    16    15    16    1
    17    17    16    1
    18    17    18    1
    19    14    13    1
    20    19    20    2
    21    19    18    1
    22     8     6   ar
    23    16    36    1
    24    31    12   ar
    25    31     1   ar
    26    12     5   ar
    27    36    27    1
    28    18    37    1
    29    13     1    1
    30     6     5   ar
    31     6    33    1
    32     5     4   ar
    33     1     2   ar
    34    37    29    1
    35     7    33    1
    36     2     4   ar
    37     2     3    1
    38     4    32    2
