@<TRIPOS>MOLECULE
2jbl_HEM_C_1.pdb
 43 50 0 0 0
SMALL
GASTEIGER

@<TRIPOS>ATOM
      1 FE         79.0980   11.3930   15.1020 Fe    1333  HEM1333     0.0000
      2  CHA       79.4770    9.4830   17.9400 C.2   1333  HEM1333     0.0000
      3  CHB       75.8360   10.3350   14.8390 C.2   1333  HEM1333     0.0000
      4  CHC       78.6240   13.4390   12.3860 C.2   1333  HEM1333     0.0000
      5  CHD       82.3630   12.3320   15.2830 C.2   1333  HEM1333     0.0000
      6  NA        77.9100   10.1280   16.1550 N.ar  1333  HEM1333     0.0000
      7  C1A       78.2490    9.4170   17.2860 C.ar  1333  HEM1333     0.0000
      8  C2A       77.1720    8.5200   17.6290 C.ar  1333  HEM1333     0.0000
      9  C3A       76.1290    8.8200   16.8230 C.ar  1333  HEM1333     0.0000
     10  C4A       76.5950    9.8100   15.8790 C.ar  1333  HEM1333     0.0000
     11  CMA       74.7380    8.1780   16.9340 C.3   1333  HEM1333     0.0000
     12  CAA       77.1670    7.4190   18.6630 C.3   1333  HEM1333     0.0000
     13  CBA       77.3760    6.0490   18.0500 C.3   1333  HEM1333     0.0000
     14  CGA       77.5780    4.9890   19.1040 C.2   1333  HEM1333     0.0000
     15  O1A       78.5920    5.0690   19.8270 O.co2 1333  HEM1333     0.0000
     16  O2A       76.7240    4.0840   19.2190 O.co2 1333  HEM1333     0.0000
     17  NB        77.5350   11.8220   13.8660 N.2   1333  HEM1333     0.0000
     18  C1B       76.2730   11.2650   13.9030 C.2   1333  HEM1333     0.0000
     19  C2B       75.4760   11.7940   12.8180 C.2   1333  HEM1333     0.0000
     20  C3B       76.1920   12.7890   12.2540 C.2   1333  HEM1333     0.0000
     21  C4B       77.5180   12.7260   12.8280 C.2   1333  HEM1333     0.0000
     22  CMB       74.0810   11.3660   12.3810 C.3   1333  HEM1333     0.0000
     23  CAB       75.8480   13.8570   11.2260 C.3   1333  HEM1333     0.0000
     24  CBB       74.5930   14.6260   11.6540 C.3   1333  HEM1333     0.0000
     25  NC        80.2670   12.6240   14.0300 N.ar  1333  HEM1333     0.0000
     26  C1C       79.9050   13.3770   12.9310 C.ar  1333  HEM1333     0.0000
     27  C2C       81.0760   14.0060   12.3640 C.ar  1333  HEM1333     0.0000
     28  C3C       82.1310   13.6420   13.1300 C.ar  1333  HEM1333     0.0000
     29  C4C       81.6110   12.8480   14.2260 C.ar  1333  HEM1333     0.0000
     30  CMC       81.1130   14.8780   11.1040 C.3   1333  HEM1333     0.0000
     31  CAC       83.6260   13.8780   12.9830 C.3   1333  HEM1333     0.0000
     32  CBC       83.9510   15.3680   12.9820 C.3   1333  HEM1333     0.0000
     33  ND        80.6080   11.0210   16.3970 N.2   1333  HEM1333     0.0000
     34  C1D       81.8970   11.4950   16.2950 C.2   1333  HEM1333     0.0000
     35  C2D       82.6740   11.0230   17.4200 C.2   1333  HEM1333     0.0000
     36  C3D       81.8240   10.3580   18.2380 C.2   1333  HEM1333     0.0000
     37  C4D       80.5720   10.2410   17.5320 C.2   1333  HEM1333     0.0000
     38  CMD       84.1650   11.2390   17.7040 C.3   1333  HEM1333     0.0000
     39  CAD       82.1640    9.9040   19.6580 C.3   1333  HEM1333     0.0000
     40  CBD       81.5300   10.8180   20.6970 C.3   1333  HEM1333     0.0000
     41  CGD       82.0560   10.5680   22.1040 C.2   1333  HEM1333     0.0000
     42  O1D       81.6400   11.2860   23.0400 O.co2 1333  HEM1333     0.0000
     43  O2D       82.8880    9.6570   22.2750 O.co2 1333  HEM1333     0.0000
@<TRIPOS>BOND
     1    30    27    1
     2    23    24    1
     3    23    20    1
     4    20    19    2
     5    20    21    1
     6    27    26   ar
     7    27    28   ar
     8    22    19    1
     9     4    21    2
    10     4    26    1
    11    19    18    1
    12    21    17    1
    13    26    25   ar
    14    32    31    1
    15    31    28    1
    16    28    29   ar
    17    17    18    2
    18    17     1    1
    19    18     3    1
    20    25    29   ar
    21    25     1    1
    22    29     5    1
    23     3    10    2
    24     1     6    1
    25     1    33    1
    26     5    34    2
    27    10     6   ar
    28    10     9   ar
    29     6     7   ar
    30    34    33    1
    31    34    35    1
    32    33    37    2
    33     9    11    1
    34     9     8   ar
    35     7     8   ar
    36     7     2    2
    37    35    38    1
    38    35    36    2
    39    37     2    1
    40    37    36    1
    41     8    12    1
    42    13    12    1
    43    13    14    1
    44    36    39    1
    45    14    16   ar
    46    14    15   ar
    47    39    40    1
    48    40    41    1
    49    41    43   ar
    50    41    42   ar
