@<TRIPOS>MOLECULE
2jbo_P4O_A_1.pdb
 26 30 0 0 0
SMALL
GASTEIGER

@<TRIPOS>ATOM
      1  C19      238.7100   82.5570  184.3310 C.ar  1348  P4O1348     0.0045
      2  C20      240.0870   82.5030  184.4560 C.ar  1348  P4O1348     0.0177
      3  C25      240.6770   81.6990  185.4610 C.ar  1348  P4O1348     0.0015
      4  C24      242.0680   81.6300  185.5780 C.ar  1348  P4O1348     0.0001
      5  C23      242.8590   82.3760  184.6830 C.ar  1348  P4O1348     0.0015
      6  C22      242.2770   83.1840  183.6910 C.ar  1348  P4O1348     0.0191
      7  C21      240.8790   83.2520  183.5760 C.ar  1348  P4O1348     0.0813
      8  N16      240.3050   84.0120  182.6250 N.ar  1348  P4O1348    -0.2438
      9  C17      238.9860   84.0740  182.5080 C.ar  1348  P4O1348     0.1003
     10  C18      238.1380   83.3530  183.3540 C.ar  1348  P4O1348     0.0368
     11  C14      236.7370   83.4480  183.2370 C.ar  1348  P4O1348     0.0829
     12  C13      235.9010   82.4200  183.6750 C.ar  1348  P4O1348     0.0217
     13  N15      236.2050   84.5760  182.7390 N.ar  1348  P4O1348    -0.2438
     14  C10      234.9080   84.7320  182.6130 C.ar  1348  P4O1348     0.0989
     15  C11      234.0300   83.7360  183.0090 C.ar  1348  P4O1348     0.0232
     16  C12      234.5300   82.5580  183.5370 C.ar  1348  P4O1348     0.0326
     17  C2       233.6580   81.5490  183.9320 C.2   1348  P4O1348     0.1319
     18  C3       232.3460   81.5060  183.6830 C.2   1348  P4O1348     0.0459
     19  C4       231.8450   80.4050  184.2380 C.2   1348  P4O1348     0.1107
     20  C6       230.5730   79.8520  184.3170 C.1   1348  P4O1348     0.1523
     21  O26      229.5960   80.5450  184.0770 O.2   1348  P4O1348    -0.2222
     22  N7       230.4150   78.5170  184.7020 N.2   1348  P4O1348    -0.2020
     23  C8       231.6120   77.6180  185.0130 C.3   1348  P4O1348     0.1453
     24  C9       232.7830   78.4170  185.5990 C.3   1348  P4O1348     0.0869
     25  C5       232.8980   79.7480  184.8610 C.2   1348  P4O1348     0.1219
     26  N1       233.9970   80.4660  184.6400 N.2   1348  P4O1348    -0.4054
@<TRIPOS>BOND
     1     9     8   ar
     2     9    10   ar
     3    14    13   ar
     4    14    15   ar
     5     8     7   ar
     6    13    11   ar
     7    15    16   ar
     8    11    10    1
     9    11    12   ar
    10    10     1   ar
    11    16    12   ar
    12    16    17    1
    13     7     6   ar
    14     7     2   ar
    15    18    17    1
    16    18    19    2
    17     6     5   ar
    18    17    26    2
    19    21    20    2
    20    19    20    1
    21    19    25    1
    22    20    22    2
    23     1     2   ar
    24     2     3   ar
    25    26    25    2
    26     5     4   ar
    27    22    23    1
    28    25    24    1
    29    23    24    1
    30     3     4   ar
