@<TRIPOS>MOLECULE
2jbp_P4O_A_1.pdb
 26 30 0 0 0
SMALL
GASTEIGER

@<TRIPOS>ATOM
      1  C19       28.9470   62.5480  193.9480 C.ar  1351  P4O1351     0.0045
      2  C20       28.7840   61.6320  194.9830 C.ar  1351  P4O1351     0.0177
      3  C25       27.5760   60.9630  195.1600 C.ar  1351  P4O1351     0.0015
      4  C24       27.4440   60.0330  196.1860 C.ar  1351  P4O1351     0.0001
      5  C23       28.5200   59.7770  197.0330 C.ar  1351  P4O1351     0.0015
      6  C22       29.7230   60.4510  196.8600 C.ar  1351  P4O1351     0.0191
      7  C21       29.8570   61.3790  195.8320 C.ar  1351  P4O1351     0.0813
      8  N16       31.0220   62.0140  195.6420 N.ar  1351  P4O1351    -0.2438
      9  C17       31.1930   62.8890  194.6650 C.ar  1351  P4O1351     0.1003
     10  C18       30.1660   63.2000  193.7770 C.ar  1351  P4O1351     0.0368
     11  C14       30.3550   64.1790  192.8010 C.ar  1351  P4O1351     0.0829
     12  C13       29.5760   64.2370  191.6460 C.ar  1351  P4O1351     0.0217
     13  N15       31.3160   65.1000  192.9870 N.ar  1351  P4O1351    -0.2438
     14  C10       31.5540   66.0640  192.1140 C.ar  1351  P4O1351     0.0989
     15  C11       30.8030   66.1600  190.9470 C.ar  1351  P4O1351     0.0232
     16  C12       29.7910   65.2390  190.7030 C.ar  1351  P4O1351     0.0326
     17  C2        28.9580   65.3700  189.5940 C.2   1351  P4O1351     0.1319
     18  C3        29.1460   66.1820  188.5540 C.2   1351  P4O1351     0.0459
     19  C4        28.1390   66.0410  187.6940 C.2   1351  P4O1351     0.1107
     20  C6        27.8180   66.6050  186.4630 C.1   1351  P4O1351     0.1523
     21  O26       28.4900   67.5190  185.9870 O.2   1351  P4O1351    -0.2222
     22  N7        26.7470   66.1020  185.7140 N.2   1351  P4O1351    -0.2020
     23  C8        25.9140   64.9530  186.1420 C.3   1351  P4O1351     0.1453
     24  C9        25.9170   64.7510  187.6580 C.3   1351  P4O1351     0.0869
     25  C5        27.2840   65.1010  188.2450 C.2   1351  P4O1351     0.1219
     26  N1        27.8200   64.7060  189.3970 N.2   1351  P4O1351    -0.4054
@<TRIPOS>BOND
     1    22    23    1
     2    22    20    2
     3    21    20    2
     4    23    24    1
     5    20    19    1
     6    24    25    1
     7    19    25    1
     8    19    18    2
     9    25    26    2
    10    18    17    1
    11    26    17    2
    12    17    16    1
    13    16    15   ar
    14    16    12   ar
    15    15    14   ar
    16    12    11   ar
    17    14    13   ar
    18    11    13   ar
    19    11    10    1
    20    10     1   ar
    21    10     9   ar
    22     1     2   ar
    23     9     8   ar
    24     2     3   ar
    25     2     7   ar
    26     3     4   ar
    27     8     7   ar
    28     7     6   ar
    29     4     5   ar
    30     6     5   ar
