@<TRIPOS>MOLECULE
2jbs_FMN_A_1.pdb
 31 33 0 0 0
SMALL
GASTEIGER

@<TRIPOS>ATOM
      1  N1        34.4380   28.4190   21.9680 N.2   1423  FMN1423    -0.2887
      2  C2        34.7880   28.2680   20.6290 C.1   1423  FMN1423     0.3669
      3  O2        35.3370   29.1760   19.9960 O.2   1423  FMN1423    -0.1744
      4  N3        34.5430   27.0820   19.9720 N.2   1423  FMN1423    -0.2300
      5  C4        33.9500   26.0320   20.6340 C.1   1423  FMN1423     0.2513
      6  O4        33.9700   24.9360   20.0850 O.2   1423  FMN1423    -0.2057
      7  C4A       33.5920   26.1680   21.9870 C.2   1423  FMN1423     0.2703
      8  N5        32.9880   25.1190   22.6760 N.2   1423  FMN1423    -0.3885
      9  C5A       32.6340   25.2630   24.0060 C.2   1423  FMN1423     0.1233
     10  C6        32.0180   24.1990   24.6610 C.3   1423  FMN1423     0.0606
     11  C7        31.6280   24.3140   25.9980 C.3   1423  FMN1423     0.0111
     12  C7M       30.5760   23.3430   26.4340 C.3   1423  FMN1423     0.0008
     13  C8        31.8380   25.5260   26.7070 C.3   1423  FMN1423     0.0238
     14  C8M       30.7000   25.9930   27.6210 C.3   1423  FMN1423     0.0047
     15  C9        32.4980   26.5810   26.0170 C.2   1423  FMN1423    -0.0093
     16  C9A       32.8740   26.4670   24.6740 C.2   1423  FMN1423     0.0750
     17  N10       33.4850   27.5250   24.0110 N.pl3 1423  FMN1423    -0.2548
     18  C10       33.8340   27.3770   22.6620 C.2   1423  FMN1423     0.2449
     19  C1'       34.2850   28.5130   24.8240 C.3   1423  FMN1423     0.1336
     20  C2'       33.6070   29.8930   24.8150 C.3   1423  FMN1423     0.2048
     21  O2'       33.5160   30.4580   23.5230 O.3   1423  FMN1423    -0.2185
     22  C3'       34.3850   30.8730   25.6730 C.3   1423  FMN1423     0.2165
     23  O3'       35.7170   30.9960   25.2280 O.3   1423  FMN1423    -0.2175
     24  C4'       34.3400   30.3890   27.1080 C.3   1423  FMN1423     0.2147
     25  O4'       32.9810   30.2900   27.4850 O.3   1423  FMN1423    -0.2176
     26  C5'       34.9210   31.4310   28.0210 C.3   1423  FMN1423     0.1892
     27  O5'       34.1400   31.3690   29.2130 O.3   1423  FMN1423    -0.2674
     28  P         35.0990   31.6060   30.4640 P.3   1423  FMN1423     0.5327
     29  O1P       34.7690   30.5740   31.5210 O.3   1423  FMN1423    -0.1145
     30  O2P       36.5270   31.3730   29.9500 O.2   1423  FMN1423    -0.2224
     31  O3P       34.9370   33.0500   30.9410 O.3   1423  FMN1423    -0.1145
@<TRIPOS>BOND
     1     4     2    2
     2     4     5    2
     3     3     2    2
     4     6     5    2
     5     2     1    2
     6     5     7    1
     7     1    18    2
     8     7    18    1
     9     7     8    2
    10    18    17    1
    11     8     9    2
    12    21    20    1
    13     9    10    1
    14     9    16    1
    15    17    16    1
    16    17    19    1
    17    10    11    1
    18    16    15    2
    19    20    19    1
    20    20    22    1
    21    23    22    1
    22    22    24    1
    23    11    12    1
    24    11    13    1
    25    15    13    1
    26    13    14    1
    27    24    25    1
    28    24    26    1
    29    26    27    1
    30    27    28    1
    31    30    28    2
    32    28    31    1
    33    28    29    1
