@<TRIPOS>MOLECULE
2jbt_4HP_A_1.pdb
 11 11 0 0 0
SMALL
GASTEIGER

@<TRIPOS>ATOM
      1  C8        25.7850   55.0320   85.1380 C.2   1424  4HP1424     0.3692
      2  O1        25.2040   55.4120   84.0950 O.co2 1424  4HP1424    -0.2453
      3  O2        25.2770   55.1970   86.2690 O.co2 1424  4HP1424    -0.2453
      4  C7        27.1440   54.3570   85.0480 C.3   1424  4HP1424     0.1404
      5  C1        28.0640   55.1080   84.1130 C.ar  1424  4HP1424    -0.0107
      6  C2        28.0310   54.8590   82.7380 C.ar  1424  4HP1424    -0.0004
      7  C3        28.8800   55.5630   81.8840 C.ar  1424  4HP1424     0.0417
      8  C4        29.7530   56.5170   82.4100 C.ar  1424  4HP1424     0.1957
      9  C5        29.7910   56.7650   83.7850 C.ar  1424  4HP1424     0.0417
     10  C6        28.9450   56.0530   84.6390 C.ar  1424  4HP1424    -0.0004
     11  O4        30.5780   57.2110   81.5840 O.3   1424  4HP1424    -0.2866
@<TRIPOS>BOND
     1    11     8    1
     2     7     8   ar
     3     7     6   ar
     4     8     9   ar
     5     6     5   ar
     6     9    10   ar
     7     2     1   ar
     8     5    10   ar
     9     5     4    1
    10     4     1    1
    11     1     3   ar
