@<TRIPOS>MOLECULE
2jbt_FMN_A_1.pdb
 31 33 0 0 0
SMALL
GASTEIGER

@<TRIPOS>ATOM
      1  N1        32.4990   58.2750   86.4370 N.2   1423  FMN1423    -0.2887
      2  C2        32.1650   59.0700   85.3680 C.1   1423  FMN1423     0.3669
      3  O2        31.1250   59.7200   85.4310 O.2   1423  FMN1423    -0.1744
      4  N3        32.9950   59.1240   84.2620 N.2   1423  FMN1423    -0.2300
      5  C4        34.1650   58.3760   84.2290 C.1   1423  FMN1423     0.2513
      6  O4        34.8580   58.3760   83.2080 O.2   1423  FMN1423    -0.2057
      7  C4A       34.5050   57.5640   85.3200 C.2   1423  FMN1423     0.2706
      8  N5        35.6660   56.8030   85.3240 N.2   1423  FMN1423    -0.3841
      9  C5A       35.9660   56.0080   86.4180 C.2   1423  FMN1423     0.1452
     10  C6        37.1310   55.2520   86.4110 C.2   1423  FMN1423     0.0252
     11  C7        37.4620   54.4400   87.4950 C.2   1423  FMN1423    -0.0375
     12  C7M       38.6360   53.5030   87.3620 C.3   1423  FMN1423     0.0268
     13  C8        36.6110   54.3740   88.6110 C.3   1423  FMN1423     0.0417
     14  C8M       36.6170   53.1240   89.4550 C.3   1423  FMN1423     0.0091
     15  C9        35.4450   55.1470   88.6180 C.2   1423  FMN1423    -0.0049
     16  C9A       35.1110   55.9610   87.5260 C.2   1423  FMN1423     0.0795
     17  N10       33.9420   56.7240   87.5310 N.pl3 1423  FMN1423    -0.2545
     18  C10       33.6510   57.5140   86.4290 C.2   1423  FMN1423     0.2449
     19  C1'       33.3460   57.1650   88.8370 C.3   1423  FMN1423     0.1336
     20  C2'       31.9820   56.5210   89.0750 C.3   1423  FMN1423     0.2048
     21  O2'       31.0550   56.8870   88.0840 O.3   1423  FMN1423    -0.2185
     22  C3'       31.4060   56.9370   90.4160 C.3   1423  FMN1423     0.2165
     23  O3'       31.1140   58.3150   90.3930 O.3   1423  FMN1423    -0.2175
     24  C4'       32.3910   56.5950   91.5250 C.3   1423  FMN1423     0.2147
     25  O4'       32.5480   55.1960   91.5900 O.3   1423  FMN1423    -0.2176
     26  C5'       31.9190   57.1160   92.8670 C.3   1423  FMN1423     0.1892
     27  O5'       31.8140   56.0130   93.7260 O.3   1423  FMN1423    -0.2674
     28  P         32.4800   56.0410   95.1780 P.3   1423  FMN1423     0.5327
     29  O1P       33.7370   55.5190   95.0220 O.2   1423  FMN1423    -0.2224
     30  O2P       32.3380   57.0580   95.8230 O.3   1423  FMN1423    -0.1145
     31  O3P       31.8600   55.1900   95.7920 O.3   1423  FMN1423    -0.1145
@<TRIPOS>BOND
     1     6     5    2
     2     5     4    2
     3     5     7    1
     4     4     2    2
     5     7     8    2
     6     7    18    1
     7     8     9    2
     8     2     3    2
     9     2     1    2
    10    10     9    1
    11    10    11    2
    12     9    16    1
    13    18     1    2
    14    18    17    1
    15    12    11    1
    16    11    13    1
    17    16    17    1
    18    16    15    2
    19    17    19    1
    20    21    20    1
    21    13    15    1
    22    13    14    1
    23    19    20    1
    24    20    22    1
    25    23    22    1
    26    22    24    1
    27    24    25    1
    28    24    26    1
    29    26    27    1
    30    27    28    1
    31    29    28    2
    32    28    31    1
    33    28    30    1
