@<TRIPOS>MOLECULE
2jbu_III_C_1.pdb
 15 14 0 0 0
SMALL
GASTEIGER

@<TRIPOS>ATOM
      1  N       -111.0040   62.0050    8.0780 N.3     1  ALA1       -0.1231
      2  CA      -111.7470   61.1520    7.1090 C.3     1  ALA1        0.1694
      3  C       -112.7190   60.1970    7.8330 C.2     1  ALA1        0.2592
      4  O       -112.4970   59.8580    8.9990 O.2     1  ALA1       -0.2718
      5  CB      -110.7140   60.3400    6.2460 C.3     1  ALA1        0.0304
      6  N       -113.8060   59.8040    7.1610 N.am    2  ALA2       -0.1966
      7  CA      -114.7400   58.8210    7.7310 C.3     2  ALA2        0.1728
      8  C       -114.1580   57.5060    7.2110 C.2     2  ALA2        0.2616
      9  O       -113.8570   57.4080    6.0220 O.2     2  ALA2       -0.2715
     10  CB      -116.1830   59.0070    7.1930 C.3     2  ALA2        0.0334
     11  N       -113.9830   56.5180    8.0930 N.am    3  ALA3       -0.1977
     12  CA      -113.4140   55.2130    7.7280 C.3     3  ALA3        0.1597
     13  C       -114.0230   54.6330    6.4590 C.2     3  ALA3        0.2287
     14  O       -115.2410   54.4840    6.3580 O.2     3  ALA3       -0.2864
     15  CB      -113.5800   54.2180    8.8870 C.3     3  ALA3        0.0319
@<TRIPOS>BOND
     1     9     8    2
     2     5     2    1
     3    14    13    2
     4    13    12    1
     5     2     3    1
     6     2     1    1
     7     6     7    1
     8     6     3   am
     9    10     7    1
    10     8     7    1
    11     8    11   am
    12    12    11    1
    13    12    15    1
    14     3     4    2
