@<TRIPOS>MOLECULE
2jbz_COA_A_1.pdb
 48 50 0 0 0
SMALL
GASTEIGER

@<TRIPOS>ATOM
      1  N1A       -0.6180  -15.3160    6.0830 N.2   1126  COA1126     0.0021
      2  C2A       -0.8880  -14.0090    5.7030 C.3   1126  COA1126     0.5254
      3  N3A       -0.6560  -12.9730    6.5780 N.2   1126  COA1126    -0.0055
      4  C4A       -0.1520  -13.2230    7.8010 C.2   1126  COA1126     0.3518
      5  C5A        0.1510  -14.5350    8.2100 C.2   1126  COA1126     0.2526
      6  C6A       -0.0930  -15.5920    7.3450 C.2   1126  COA1126     0.4393
      7  N6A        0.0230  -16.8620    7.7500 N.pl3 1126  COA1126     0.2180
      8  N7A        0.6240  -14.4610    9.4770 N.2   1126  COA1126    -0.2095
      9  C8A        0.6390  -13.1530    9.8560 C.3   1126  COA1126     0.3377
     10  N9A        0.1500  -12.3730    8.8290 N.pl3 1126  COA1126    -0.1439
     11  C1B       -0.2100  -10.9420    8.8730 C.3   1126  COA1126     0.3185
     12  C2B       -0.8480  -10.5090   10.1910 C.3   1126  COA1126     0.2543
     13  O2B       -1.9770   -9.7080    9.9060 O.3   1126  COA1126    -0.2131
     14  C3B        0.2350   -9.6510   10.8190 C.3   1126  COA1126     0.1928
     15  O3B       -0.1870   -8.5900   11.6400 O.3   1126  COA1126    -0.2673
     16  P3B       -0.9520   -8.9190   13.0180 P.3   1126  COA1126     0.5327
     17  O7A       -0.1980  -10.0030   13.7650 O.3   1126  COA1126    -0.1145
     18  O8A       -0.9310   -7.6260   13.7990 O.3   1126  COA1126    -0.1145
     19  O9A       -2.3290   -9.3740   12.6220 O.2   1126  COA1126    -0.2224
     20  C4B        0.9860   -9.0950    9.6320 C.3   1126  COA1126     0.1795
     21  O4B        0.9560  -10.1550    8.7140 O.3   1126  COA1126    -0.3136
     22  C5B        2.4060   -8.6910    9.9800 C.3   1126  COA1126     0.1812
     23  O5B        3.0190   -8.2530    8.7830 O.3   1126  COA1126    -0.3112
     24  P1A        4.3350   -7.3520    8.8650 P.3   1126  COA1126     0.2189
     25  O1A        4.1690   -6.3520    9.9980 O.3   1126  COA1126    -0.4371
     26  O2A        4.6620   -6.7850    7.5290 O.2   1126  COA1126    -0.5170
     27  O3A        5.4240   -8.4290    9.3680 O.3   1126  COA1126    -0.2703
     28  P2A        6.3710   -9.3000    8.4070 P.3   1126  COA1126     0.2188
     29  O4A        7.0630   -8.4440    7.4300 O.2   1126  COA1126    -0.5170
     30  O5A        7.2870  -10.0550    9.3540 O.3   1126  COA1126    -0.4371
     31  O6A        5.3390  -10.2890    7.6740 O.3   1126  COA1126    -0.3138
     32  CBP        4.9010  -12.6770    7.8650 C.3   1126  COA1126     0.0645
     33  CCP        4.6730  -11.2850    8.4320 C.3   1126  COA1126     0.1519
     34  CDP        3.9140  -13.5980    8.5990 C.3   1126  COA1126     0.0056
     35  CEP        4.5970  -12.6490    6.3630 C.3   1126  COA1126     0.0056
     36  CAP        6.3580  -13.0690    8.1240 C.3   1126  COA1126     0.2312
     37  OAP        6.5990  -13.1170    9.5210 O.3   1126  COA1126    -0.2131
     38  C9P        6.7080  -14.3880    7.5030 C.2   1126  COA1126     0.2719
     39  O9P        6.4240  -15.5870    8.1450 O.2   1126  COA1126    -0.2706
     40  N8P        7.3170  -14.3410    6.3360 N.am  1126  COA1126    -0.2028
     41  C7P        7.5980  -15.5680    5.5810 C.3   1126  COA1126     0.1248
     42  C6P        8.3520  -15.1900    4.3180 C.3   1126  COA1126     0.1102
     43  C5P        8.5840  -16.3460    3.3710 C.2   1126  COA1126     0.2432
     44  O5P        8.0030  -17.4460    3.4880 O.2   1126  COA1126    -0.2733
     45  N4P        9.4440  -16.0710    2.3900 N.am  1126  COA1126    -0.2044
     46  C3P        9.9860  -17.1530    1.5860 C.3   1126  COA1126     0.1276
     47  C2P        9.1730  -17.3530    0.3260 C.3   1126  COA1126     0.0920
     48  S1P        9.0310  -15.8350   -0.6500 S.3   1126  COA1126    -0.0802
@<TRIPOS>BOND
     1    48    47    1
     2    47    46    1
     3    46    45    1
     4    45    43   am
     5    43    44    2
     6    43    42    1
     7    42    41    1
     8    41    40    1
     9     2     1    1
    10     2     3    1
    11     1     6    2
    12    40    38   am
    13    35    32    1
    14     3     4    2
    15     6     7    1
    16     6     5    1
    17    29    28    2
    18    38    36    1
    19    38    39    2
    20    26    24    2
    21    31    28    1
    22    31    33    1
    23     4     5    1
    24     4    10    1
    25    32    36    1
    26    32    33    1
    27    32    34    1
    28    36    37    1
    29     5     8    2
    30    28    30    1
    31    28    27    1
    32    21    11    1
    33    21    20    1
    34    23    24    1
    35    23    22    1
    36    10    11    1
    37    10     9    1
    38    24    27    1
    39    24    25    1
    40    11    12    1
    41     8     9    1
    42    20    22    1
    43    20    14    1
    44    13    12    1
    45    12    14    1
    46    14    15    1
    47    15    16    1
    48    19    16    2
    49    16    17    1
    50    16    18    1
