@<TRIPOS>MOLECULE
2jc0_699_A_1.pdb
 32 34 0 0 0
SMALL
GASTEIGER

@<TRIPOS>ATOM
      1  F54        5.4410   41.3790   51.9340 F     1563  6991563    -0.1659
      2  C51        5.2640   42.6940   51.6080 C.3   1563  6991563     0.4186
      3  F52        4.6250   43.3570   52.5940 F     1563  6991563    -0.1659
      4  F53        4.6610   42.9470   50.4290 F     1563  6991563    -0.1659
      5  C2         6.5990   43.4150   51.5370 C.ar  1563  6991563     0.0714
      6  C1         7.3670   43.6370   52.7200 C.ar  1563  6991563     0.0040
      7  C6         8.5800   44.3530   52.6760 C.ar  1563  6991563     0.0045
      8  C3         7.0420   43.9470   50.2940 C.ar  1563  6991563     0.0040
      9  C4         8.2380   44.6590   50.2560 C.ar  1563  6991563     0.0045
     10  C5         9.0280   44.8450   51.4290 C.ar  1563  6991563     0.0536
     11  C11       10.2970   45.6700   51.3370 C.2   1563  6991563     0.2495
     12  O13       10.2210   46.9170   51.5540 O.2   1563  6991563    -0.2699
     13  N12       11.4900   45.1010   50.9700 N.am  1563  6991563    -0.2662
     14  C17       12.8050   45.8570   50.9670 C.3   1563  6991563     0.1548
     15  C34       12.7410   46.9920   49.9010 C.2   1563  6991563     0.3804
     16  O36       11.8250   46.7660   49.0050 O.co2 1563  6991563    -0.2439
     17  O35       13.5590   47.8660   49.7470 O.co2 1563  6991563    -0.2439
     18  C33       13.0380   46.4530   52.4050 C.3   1563  6991563     0.0293
     19  C37       13.2470   45.4710   53.5850 C.3   1563  6991563     0.0021
     20  C44       13.8440   46.2240   54.7440 C.3   1563  6991563     0.0001
     21  C40       11.9260   44.8470   54.0630 C.3   1563  6991563     0.0001
     22  C16       13.7660   44.7240   50.4660 C.3   1563  6991563     0.0426
     23  C15       13.1010   43.4210   50.8420 C.3   1563  6991563     0.1283
     24  C22       13.6050   42.1550   50.1660 C.2   1563  6991563     0.3664
     25  O25       12.8820   41.0770   50.5300 O.co2 1563  6991563    -0.2456
     26  O24       14.6870   42.1320   49.6220 O.co2 1563  6991563    -0.2456
     27  C14       11.6360   43.6760   50.5750 C.3   1563  6991563     0.1152
     28  C20       11.2190   43.3480   49.1640 C.ar  1563  6991563     0.0259
     29  S29       10.2300   41.9930   48.8400 S.2   1563  6991563    -0.0891
     30  C26       11.6100   44.0430   47.9950 C.ar  1563  6991563     0.0043
     31  C27       11.0150   43.3860   46.8770 C.ar  1563  6991563     0.0072
     32  C28       10.2630   42.2990   47.1640 C.ar  1563  6991563     0.0352
@<TRIPOS>BOND
     1    31    32   ar
     2    31    30   ar
     3    32    29   ar
     4    30    28   ar
     5    29    28   ar
     6    16    15   ar
     7    28    27    1
     8    26    24   ar
     9    17    15   ar
    10    15    14    1
    11    24    25   ar
    12    24    23    1
    13     9     8   ar
    14     9    10   ar
    15     8     5   ar
    16     4     2    1
    17    22    23    1
    18    22    14    1
    19    27    23    1
    20    27    13    1
    21    14    13    1
    22    14    18    1
    23    13    11   am
    24    11    10    1
    25    11    12    2
    26    10     7   ar
    27     5     2    1
    28     5     6   ar
    29     2     1    1
    30     2     3    1
    31    18    19    1
    32     7     6   ar
    33    19    21    1
    34    19    20    1
