@<TRIPOS>MOLECULE
2jc1_698_A_1.pdb
 32 34 0 0 0
SMALL
GASTEIGER

@<TRIPOS>ATOM
      1  O24       14.4150   42.2490   49.6710 O.co2 600  698600     -0.2456
      2  C22       13.5990   42.2240   50.5450 C.2   600  698600      0.3664
      3  O1        12.9670   41.1850   50.8000 O.co2 600  698600     -0.2456
      4  C15       13.2920   43.4870   51.3790 C.3   600  698600      0.1299
      5  C14       11.8000   43.8180   51.5600 C.3   600  698600      0.1331
      6  C20       10.9250   43.4490   50.3490 C.ar  600  698600      0.1069
      7  N1        10.3440   42.2300   50.1590 N.ar  600  698600     -0.2395
      8  C28        9.6260   42.1720   49.0130 C.ar  600  698600      0.1061
      9  C27        9.6090   43.3600   48.2830 C.ar  600  698600      0.0572
     10  S1        10.5260   44.5200   49.0910 S.2   600  698600     -0.0686
     11  C16       13.9380   44.7790   50.8630 C.3   600  698600      0.0426
     12  C17       13.1220   45.9150   51.5080 C.3   600  698600      0.1548
     13  C33       13.8510   46.4910   52.7660 C.3   600  698600      0.0293
     14  C37       13.9390   45.6330   54.0660 C.3   600  698600      0.0021
     15  C40       12.7210   45.8660   54.9870 C.3   600  698600      0.0001
     16  C44       15.2260   45.9310   54.8530 C.3   600  698600      0.0001
     17  C34       12.9130   47.0350   50.4310 C.2   600  698600      0.3804
     18  O35       13.4580   48.1010   50.4580 O.co2 600  698600     -0.2439
     19  O36       12.1290   46.8110   49.5220 O.co2 600  698600     -0.2439
     20  N12       11.8220   45.2700   51.8230 N.am  600  698600     -0.2646
     21  C11       10.7570   45.9900   52.2820 C.2   600  698600      0.2496
     22  O13       10.7620   47.2120   52.3060 O.2   600  698600     -0.2699
     23  C5         9.5790   45.2510   52.7540 C.ar  600  698600      0.0536
     24  C4         8.3910   45.3320   52.0440 C.ar  600  698600      0.0042
     25  C3         7.2550   44.6590   52.4740 C.ar  600  698600     -0.0041
     26  C6         9.6330   44.4590   53.9010 C.ar  600  698600      0.0042
     27  C1         8.4930   43.7700   54.3280 C.ar  600  698600     -0.0041
     28  C2         7.2760   43.8520   53.6320 C.ar  600  698600     -0.0228
     29  C51        6.0140   43.1080   54.1030 C.3   600  698600      0.0189
     30  C9         5.5510   41.9360   53.1810 C.3   600  698600      0.0044
     31  C8         6.2560   42.4500   55.4780 C.3   600  698600      0.0044
     32  C7         4.9260   44.1960   54.2050 C.3   600  698600      0.0044
@<TRIPOS>BOND
     1     9     8   ar
     2     9    10   ar
     3     8     7   ar
     4    10     6   ar
     5    19    17   ar
     6     1     2   ar
     7     7     6   ar
     8     6     5    1
     9    17    18   ar
    10    17    12    1
    11     2     3   ar
    12     2     4    1
    13    11     4    1
    14    11    12    1
    15     4     5    1
    16    12    20    1
    17    12    13    1
    18     5    20    1
    19    20    21   am
    20    24    25   ar
    21    24    23   ar
    22    21    22    2
    23    21    23    1
    24    25    28   ar
    25    23    26   ar
    26    13    14    1
    27    30    29    1
    28    28    29    1
    29    28    27   ar
    30    26    27   ar
    31    14    16    1
    32    14    15    1
    33    29    32    1
    34    29    31    1
