@<TRIPOS>MOLECULE
2jc3_PLP_A_1.pdb
 15 15 0 0 0
SMALL
GASTEIGER

@<TRIPOS>ATOM
      1  N1       -15.3800   -1.7500   -0.6470 N.ar  1294  PLP1294    -0.2452
      2  C2       -14.6070   -2.6040    0.0580 C.ar  1294  PLP1294     0.0978
      3  C2A      -13.6410   -3.5450   -0.6870 C.3   1294  PLP1294     0.0555
      4  C3       -14.7090   -2.6600    1.4290 C.ar  1294  PLP1294     0.2049
      5  O3       -13.9470   -3.5810    2.1110 O.3   1294  PLP1294    -0.2857
      6  C4       -15.6160   -1.8390    2.0920 C.ar  1294  PLP1294     0.0182
      7  C4A      -15.8700   -1.9940    3.5860 C.3   1294  PLP1294     0.0342
      8  C5       -16.4010   -0.9570    1.3460 C.ar  1294  PLP1294     0.0261
      9  C6       -16.2660   -0.9320   -0.0140 C.ar  1294  PLP1294     0.0965
     10  C5A      -17.5250   -0.1010    1.9820 C.3   1294  PLP1294     0.1815
     11  O4P      -17.1010    0.7430    3.0960 O.3   1294  PLP1294    -0.2653
     12  P        -18.1640    0.9970    4.3130 P.3   1294  PLP1294     0.5329
     13  O1P      -18.1660   -0.2440    5.1290 O.3   1294  PLP1294    -0.1145
     14  O2P      -17.5290    2.1860    5.1820 O.3   1294  PLP1294    -0.1145
     15  O3P      -19.4250    1.5250    3.7160 O.2   1294  PLP1294    -0.2224
@<TRIPOS>BOND
     1     3     2    1
     2     1     9   ar
     3     1     2   ar
     4     9     8   ar
     5     2     4   ar
     6     8    10    1
     7     8     6   ar
     8     4     6   ar
     9     4     5    1
    10    10    11    1
    11     6     7    1
    12    11    12    1
    13    15    12    2
    14    12    13    1
    15    12    14    1
