@<TRIPOS>MOLECULE
2jc6_QPP_A_1.pdb
 23 26 0 0 0
SMALL
GASTEIGER

@<TRIPOS>ATOM
      1  CAK      -13.1830  -84.9030  -35.5500 C.ar  1314  QPP1314     0.0120
      2  CAL      -13.1730  -85.7240  -34.4260 C.ar  1314  QPP1314     0.0007
      3  CAM      -13.9210  -86.9100  -34.4060 C.ar  1314  QPP1314     0.0000
      4  CAN      -14.6610  -87.2550  -35.5200 C.ar  1314  QPP1314     0.0007
      5  CAO      -14.6710  -86.4430  -36.6420 C.ar  1314  QPP1314     0.0120
      6  CAP      -13.9200  -85.2630  -36.6880 C.ar  1314  QPP1314     0.0857
      7  C2       -13.9330  -84.4230  -37.8200 C.1   1314  QPP1314     0.1414
      8  N1       -12.8910  -83.6030  -38.0760 N.2   1314  QPP1314    -0.2971
      9  N3       -15.0080  -84.3910  -38.6370 N.2   1314  QPP1314    -0.3436
     10  C4       -15.0710  -83.5590  -39.7080 C.2   1314  QPP1314     0.1318
     11  CAA      -16.1980  -83.5340  -40.5440 C.3   1314  QPP1314     0.0861
     12  CAB      -16.2660  -82.6960  -41.6700 C.2   1314  QPP1314    -0.0186
     13  CAC      -15.1790  -81.8650  -41.9750 C.2   1314  QPP1314    -0.0039
     14  CAD      -14.0620  -81.8880  -41.1310 C.2   1314  QPP1314     0.0083
     15  C5       -13.9940  -82.7320  -40.0020 C.2   1314  QPP1314     0.0999
     16  C6       -12.8740  -82.7630  -39.1510 C.2   1314  QPP1314     0.3273
     17  NAQ      -11.8320  -81.9320  -39.4080 N.pl3 1314  QPP1314     0.0264
     18  CAR      -10.7080  -81.8510  -38.6740 C.2   1314  QPP1314     0.3771
     19  CAV      -10.2080  -82.7120  -37.7780 C.3   1314  QPP1314     0.1690
     20  CAU       -9.0730  -82.1370  -37.3990 C.2   1314  QPP1314     0.0959
     21  CAW       -8.0880  -82.7130  -36.3870 C.3   1314  QPP1314     0.0520
     22  NAT       -8.9040  -80.9790  -38.0310 N.2   1314  QPP1314    -0.0426
     23  NAS       -9.8760  -80.8290  -38.7800 N.2   1314  QPP1314     0.0793
@<TRIPOS>BOND
     1    13    12    2
     2    13    14    1
     3    12    11    1
     4    14    15    2
     5    11    10    1
     6    15    10    1
     7    15    16    1
     8    10     9    2
     9    17    16    1
    10    17    18    1
    11    16     8    2
    12    23    18    2
    13    23    22    1
    14    18    19    1
    15     9     7    2
    16     8     7    2
    17    22    20    2
    18     7     6    1
    19    19    20    1
    20    20    21    1
    21     6     5   ar
    22     6     1   ar
    23     5     4   ar
    24     1     2   ar
    25     4     3   ar
    26     2     3   ar
