@<TRIPOS>MOLECULE
2jc9_ADN_A_1.pdb
 19 21 0 0 0
SMALL
GASTEIGER

@<TRIPOS>ATOM
      1  O5'       -5.1130   18.0490   61.9210 O.3   1497  ADN1497    -0.2176
      2  C5'       -3.7820   17.6370   62.1910 C.3   1497  ADN1497     0.2143
      3  C4'       -3.4240   16.4300   61.3120 C.3   1497  ADN1497     0.1851
      4  O4'       -3.4880   16.7860   59.8760 O.3   1497  ADN1497    -0.3134
      5  C3'       -1.9630   16.0920   61.5800 C.3   1497  ADN1497     0.2186
      6  O3'       -1.7200   14.7320   61.2140 O.3   1497  ADN1497    -0.2174
      7  C2'       -1.2380   17.0260   60.6180 C.3   1497  ADN1497     0.2570
      8  O2'        0.0490   16.4800   60.2820 O.3   1497  ADN1497    -0.2130
      9  C1'       -2.1360   16.9870   59.3970 C.3   1497  ADN1497     0.3186
     10  N9        -2.1540   18.2910   58.6080 N.pl3 1497  ADN1497    -0.1439
     11  C8        -1.9660   19.5470   59.0420 C.3   1497  ADN1497     0.3377
     12  N7        -2.0950   20.4030   58.0150 N.2   1497  ADN1497    -0.2095
     13  C5        -2.3170   19.6760   56.9290 C.2   1497  ADN1497     0.2526
     14  C6        -2.5170   20.0140   55.6110 C.2   1497  ADN1497     0.4393
     15  N6        -2.4610   21.3120   55.2270 N.pl3 1497  ADN1497     0.2180
     16  N1        -2.7430   19.0060   54.7510 N.2   1497  ADN1497     0.0021
     17  C2        -2.7990   17.7210   55.1220 C.3   1497  ADN1497     0.5254
     18  N3        -2.6070   17.3460   56.3790 N.2   1497  ADN1497    -0.0055
     19  C4        -2.3720   18.3260   57.2860 C.2   1497  ADN1497     0.3518
@<TRIPOS>BOND
     1    16    17    1
     2    16    14    2
     3    17    18    1
     4    15    14    1
     5    14    13    1
     6    18    19    2
     7    13    19    1
     8    13    12    2
     9    19    10    1
    10    12    11    1
    11    10    11    1
    12    10     9    1
    13     9     4    1
    14     9     7    1
    15     4     3    1
    16     8     7    1
    17     7     5    1
    18     6     5    1
    19     3     5    1
    20     3     2    1
    21     1     2    1
