@<TRIPOS>MOLECULE
2jcb_ADP_A_1.pdb
 27 29 0 0 0
SMALL
GASTEIGER

@<TRIPOS>ATOM
      1  PB        38.4830   11.5930    7.3200 P.3   1190  ADP1190     0.5373
      2  O1B       37.9190   10.2940    7.8880 O.3   1190  ADP1190    -0.1143
      3  O2B       37.5330   12.2230    6.3700 O.2   1190  ADP1190    -0.2221
      4  O3B       39.8870   11.3000    6.8350 O.3   1190  ADP1190    -0.1143
      5  PA        39.6770   13.7380    8.9070 P.3   1190  ADP1190     0.2231
      6  O1A       40.6310   13.9770    7.7660 O.2   1190  ADP1190    -0.5169
      7  O2A       39.0030   14.9050    9.4300 O.3   1190  ADP1190    -0.4370
      8  O3A       38.5820   12.5880    8.5720 O.3   1190  ADP1190    -0.2261
      9  O5'       40.5430   13.1540   10.1410 O.3   1190  ADP1190    -0.3111
     10  C5'       39.8320   13.0450   11.3930 C.3   1190  ADP1190     0.1813
     11  C4'       40.7530   13.2750   12.5660 C.3   1190  ADP1190     0.1821
     12  O4'       41.8530   12.3890   12.4350 O.3   1190  ADP1190    -0.3135
     13  C3'       41.2880   14.7020   12.5270 C.3   1190  ADP1190     0.2184
     14  O3'       40.9600   15.3000   13.7650 O.3   1190  ADP1190    -0.2174
     15  C2'       42.7830   14.5470   12.3370 C.3   1190  ADP1190     0.2570
     16  O2'       43.5040   15.3420   13.2340 O.3   1190  ADP1190    -0.2130
     17  C1'       43.0700   13.0940   12.6710 C.3   1190  ADP1190     0.3186
     18  N9        44.1990   12.5040   11.9050 N.pl3 1190  ADP1190    -0.1439
     19  C8        44.1620   12.1110   10.6180 C.3   1190  ADP1190     0.3377
     20  N7        45.3520   11.5780   10.2520 N.2   1190  ADP1190    -0.2095
     21  C5        46.1820   11.6210   11.2960 C.2   1190  ADP1190     0.2526
     22  C6        47.5790   11.1890   11.5680 C.2   1190  ADP1190     0.4393
     23  N6        48.3350   10.6210   10.6070 N.pl3 1190  ADP1190     0.2180
     24  N1        48.0490   11.3410   12.8070 N.2   1190  ADP1190     0.0021
     25  C2        47.3160   11.9180   13.7810 C.3   1190  ADP1190     0.5254
     26  N3        46.0380   12.3100   13.6070 N.2   1190  ADP1190    -0.0055
     27  C4        45.4080   12.1830   12.4100 C.2   1190  ADP1190     0.3518
@<TRIPOS>BOND
     1     3     1    2
     2     4     1    1
     3     1     2    1
     4     1     8    1
     5     6     5    2
     6     8     5    1
     7     5     7    1
     8     5     9    1
     9     9    10    1
    10    20    19    1
    11    20    21    2
    12    23    22    1
    13    19    18    1
    14    21    22    1
    15    21    27    1
    16    10    11    1
    17    22    24    2
    18    18    27    1
    19    18    17    1
    20    15    13    1
    21    15    17    1
    22    15    16    1
    23    27    26    2
    24    12    11    1
    25    12    17    1
    26    13    11    1
    27    13    14    1
    28    24    25    1
    29    26    25    1
