@<TRIPOS>MOLECULE
2jch_PL7_A_1.pdb
 26 26 0 0 0
SMALL
GASTEIGER

@<TRIPOS>ATOM
      1  O16       50.7330   58.9670   33.6110 O.co2 1793  PL71793    -0.2456
      2  C9        50.2960   60.1270   33.9030 C.2   1793  PL71793     0.3653
      3  O17       50.9640   61.2080   33.9320 O.co2 1793  PL71793    -0.2456
      4  C10       48.8430   60.2820   34.2880 C.3   1793  PL71793     0.1207
      5  C11       48.6070   59.3140   35.4270 C.3   1793  PL71793     0.0679
      6  C8        47.1300   59.3720   35.6160 C.2   1793  PL71793     0.1767
      7  C12       46.2660   58.2750   35.1970 C.2   1793  PL71793     0.4042
      8  O19       46.6470   57.1450   35.4470 O.co2 1793  PL71793    -0.2391
      9  O18       45.2080   58.5150   34.5770 O.co2 1793  PL71793    -0.2391
     10  N1        46.5300   60.3530   36.1240 N.2   1793  PL71793    -0.0807
     11  O13       46.9270   61.5430   36.6430 O.2   1793  PL71793    -0.3750
     12  C5        45.8410   62.3900   36.9730 C.3   1793  PL71793     0.2679
     13  C3        45.1280   61.8170   38.2200 C.3   1793  PL71793     0.2059
     14  C4        44.2160   60.6730   37.9140 C.2   1793  PL71793     0.2327
     15  O14       44.3940   59.4910   38.2740 O.2   1793  PL71793    -0.2863
     16  N2        46.1040   61.4790   39.2670 N.am  1793  PL71793    -0.1920
     17  C6        46.9750   62.3480   39.7830 C.2   1793  PL71793     0.2863
     18  O15       47.0920   63.5080   39.3550 O.2   1793  PL71793    -0.2693
     19  C7        47.8060   61.7940   40.9160 C.3   1793  PL71793     0.2911
     20  O34       49.1890   62.1820   40.9760 O.3   1793  PL71793    -0.4656
     21  C35       50.1050   61.5190   40.1420 C.ar  1793  PL71793     0.1393
     22  C40       51.3210   61.0000   40.6820 C.ar  1793  PL71793     0.0369
     23  C39       52.2040   60.3430   39.8030 C.ar  1793  PL71793     0.0031
     24  C38       51.9040   60.1920   38.4410 C.ar  1793  PL71793     0.0002
     25  C37       50.7220   60.7180   37.9050 C.ar  1793  PL71793     0.0031
     26  C36       49.8490   61.3820   38.7520 C.ar  1793  PL71793     0.0369
@<TRIPOS>BOND
     1     1     2   ar
     2     2     3   ar
     3     2     4    1
     4     4     5    1
     5     9     7   ar
     6     7     8   ar
     7     7     6    1
     8     5     6    1
     9     6    10    2
    10    10    11    1
    11    11    12    1
    12    12    13    1
    13    25    24   ar
    14    25    26   ar
    15    14    13    1
    16    14    15    2
    17    13    16    1
    18    24    23   ar
    19    26    21   ar
    20    16    17   am
    21    18    17    2
    22    17    19    1
    23    23    22   ar
    24    21    22   ar
    25    21    20    1
    26    19    20    1
