@<TRIPOS>MOLECULE
2jcj_UDP_A_1.pdb
 25 26 0 0 0
SMALL
GASTEIGER

@<TRIPOS>ATOM
      1  N1        18.9470   13.5840    4.2130 N.am  1366  UDP1366    -0.1766
      2  C2        17.9180   14.5180    4.1300 C.1   1366  UDP1366     0.2845
      3  N3        18.1570   15.8540    4.4030 N.2   1366  UDP1366    -0.2452
      4  C4        19.4030   16.3880    4.7770 C.1   1366  UDP1366     0.2182
      5  C5        20.4960   15.5290    4.8890 C.2   1366  UDP1366     0.1242
      6  C6        20.2100   14.0520    4.5810 C.2   1366  UDP1366     0.0929
      7  O2        16.8200   14.1910    3.8230 O.2   1366  UDP1366    -0.1918
      8  O4        19.5500   17.5400    4.9980 O.2   1366  UDP1366    -0.2085
      9  C1'       18.7540   12.0830    3.9200 C.3   1366  UDP1366     0.2401
     10  C2'       18.5380   11.8440    2.4130 C.3   1366  UDP1366     0.2319
     11  O2'       17.6270   10.8430    2.3140 O.3   1366  UDP1366    -0.2157
     12  C3'       19.9160   11.5600    1.9870 C.3   1366  UDP1366     0.2158
     13  C4'       20.4310   10.7080    3.2000 C.3   1366  UDP1366     0.1799
     14  O4'       19.8800   11.3670    4.3040 O.3   1366  UDP1366    -0.3320
     15  O3'       20.0270   10.8450    0.8380 O.3   1366  UDP1366    -0.2175
     16  C5'       21.9670   10.7010    3.2940 C.3   1366  UDP1366     0.1813
     17  O5'       22.5980   11.9350    3.0340 O.3   1366  UDP1366    -0.3111
     18  PA        23.4440   12.3640    1.8730 P.3   1366  UDP1366     0.2231
     19  O1A       22.8900   11.8830    0.8770 O.2   1366  UDP1366    -0.5169
     20  O2A       23.4710   13.7190    1.6790 O.3   1366  UDP1366    -0.4370
     21  O3A       24.7620   11.6790    1.9120 O.3   1366  UDP1366    -0.2261
     22  PB        25.7660   11.4530    0.6350 P.3   1366  UDP1366     0.5373
     23  O1B       25.3880   10.4370   -0.2530 O.2   1366  UDP1366    -0.2221
     24  O2B       27.1570   11.1820    1.1600 O.3   1366  UDP1366    -0.1143
     25  O3B       25.8570   12.7650   -0.0740 O.3   1366  UDP1366    -0.1143
@<TRIPOS>BOND
     1    23    22    2
     2    25    22    1
     3    22    24    1
     4    22    21    1
     5    15    12    1
     6    19    18    2
     7    20    18    1
     8    18    21    1
     9    18    17    1
    10    12    10    1
    11    12    13    1
    12    11    10    1
    13    10     9    1
    14    17    16    1
    15    13    16    1
    16    13    14    1
    17     7     2    2
    18     9     1    1
    19     9    14    1
    20     2     1   am
    21     2     3    2
    22     1     6    1
    23     3     4    2
    24     6     5    2
    25     4     5    1
    26     4     8    2
