@<TRIPOS>MOLECULE
2jck_UDP_A_1.pdb
 25 26 0 0 0
SMALL
GASTEIGER

@<TRIPOS>ATOM
      1  N1        19.2060  -13.5660   -4.2710 N.am  3361  UDP3361    -0.1766
      2  C2        18.1400  -14.5000   -4.1210 C.1   3361  UDP3361     0.2845
      3  N3        18.4400  -15.8250   -4.3160 N.2   3361  UDP3361    -0.2452
      4  C4        19.7390  -16.2780   -4.6530 C.1   3361  UDP3361     0.2182
      5  C5        20.7980  -15.3530   -4.8040 C.2   3361  UDP3361     0.1242
      6  C6        20.4960  -14.0130   -4.6070 C.2   3361  UDP3361     0.0929
      7  O2        17.0150  -14.1450   -3.8360 O.2   3361  UDP3361    -0.1918
      8  O4        19.8730  -17.4760   -4.7960 O.2   3361  UDP3361    -0.2085
      9  C1'       18.8770  -12.1010   -4.0530 C.3   3361  UDP3361     0.2401
     10  C2'       18.5720  -11.8790   -2.5450 C.3   3361  UDP3361     0.2319
     11  O2'       17.6900  -10.7820   -2.4000 O.3   3361  UDP3361    -0.2157
     12  C3'       19.9170  -11.5880   -1.9620 C.3   3361  UDP3361     0.2158
     13  C4'       20.5620  -10.7900   -3.1220 C.3   3361  UDP3361     0.1799
     14  O4'       19.9140  -11.2000   -4.2420 O.3   3361  UDP3361    -0.3320
     15  O3'       19.9140  -10.7830   -0.7600 O.3   3361  UDP3361    -0.2175
     16  C5'       22.2010  -10.8200   -3.2170 C.3   3361  UDP3361     0.1813
     17  O5'       22.5940  -12.0680   -2.9410 O.3   3361  UDP3361    -0.3111
     18  PA        23.3780  -12.3620   -1.6810 P.3   3361  UDP3361     0.2231
     19  O1A       22.6980  -11.8030   -0.6760 O.3   3361  UDP3361    -0.4370
     20  O2A       23.4130  -13.6870   -1.6320 O.2   3361  UDP3361    -0.5169
     21  O3A       24.8090  -11.7780   -1.7450 O.3   3361  UDP3361    -0.2261
     22  PB        25.7140  -11.5470   -0.5860 P.3   3361  UDP3361     0.5373
     23  O1B       25.3790  -10.5350    0.2510 O.3   3361  UDP3361    -0.1143
     24  O2B       26.9200  -11.0580   -0.9150 O.2   3361  UDP3361    -0.2221
     25  O3B       26.0550  -12.6530    0.1360 O.3   3361  UDP3361    -0.1143
@<TRIPOS>BOND
     1     5     4    1
     2     5     6    2
     3     8     4    2
     4     4     3    2
     5     6     1    1
     6     3     2    2
     7     1     2   am
     8     1     9    1
     9    14     9    1
    10    14    13    1
    11     2     7    2
    12     9    10    1
    13    16    13    1
    14    16    17    1
    15    13    12    1
    16    17    18    1
    17    10    11    1
    18    10    12    1
    19    12    15    1
    20    21    18    1
    21    21    22    1
    22    18    20    2
    23    18    19    1
    24    24    22    2
    25    22    25    1
    26    22    23    1
