@<TRIPOS>MOLECULE
2jcq_GCU_A_1.pdb
 19 19 0 0 0
SMALL
GASTEIGER

@<TRIPOS>ATOM
      1  C1         5.3150  -14.2070   16.7310 C.3   1176  GCU1176     0.1167
      2  C2         6.8180  -14.2330   17.0160 C.3   1176  GCU1176     0.1122
      3  C3         7.6280  -13.3000   16.1070 C.3   1176  GCU1176     0.1156
      4  C4         7.2960  -13.5230   14.6220 C.3   1176  GCU1176     0.1584
      5  C5         5.7720  -13.4820   14.4830 C.3   1176  GCU1176     0.1911
      6  C6         5.3520  -13.9100   13.0960 C.2   1176  GCU1176     0.3870
      7  O2         7.0140  -13.8550   18.3680 O.3   1176  GCU1176    -0.3865
      8  O3         9.0120  -13.4900   16.3760 O.3   1176  GCU1176    -0.3864
      9  O4         7.9010  -12.5670   13.7650 O.3   1176  GCU1176    -0.2251
     10  O5         5.1000  -14.4020   15.3490 O.3   1176  GCU1176    -0.3539
     11  O6A        5.5770  -15.0960   12.7350 O.co2 1176  GCU1176    -0.2433
     12  O6B        4.7620  -13.0540   12.3840 O.co2 1176  GCU1176    -0.2433
     13  H1         4.9020  -13.2470   17.0380 H     1176  GCU1176     0.0650
     14  H2         7.1670  -15.2560   16.8780 H     1176  GCU1176     0.0647
     15  H3         7.3580  -12.2850   16.3700 H     1176  GCU1176     0.0648
     16  H4         7.6350  -14.5230   14.3510 H     1176  GCU1176     0.0687
     17  H5         5.4140  -12.4710   14.6770 H     1176  GCU1176     0.0743
     18  HO2        6.1440  -13.6790   18.8120 H     1176  GCU1176     0.2100
     19  HO3        9.1180  -14.2320   17.0680 H     1176  GCU1176     0.2100
@<TRIPOS>BOND
     1    12     6   ar
     2    11     6   ar
     3     6     5    1
     4     9     4    1
     5    16     4    1
     6     5     4    1
     7     5    17    1
     8     5    10    1
     9     4     3    1
    10    10     1    1
    11     3    15    1
    12     3     8    1
    13     3     2    1
    14     8    19    1
    15     1     2    1
    16     1    13    1
    17    14     2    1
    18     2     7    1
    19     7    18    1
