@<TRIPOS>MOLECULE
2jcr_BDP_A_1.pdb
 12 12 0 0 0
SMALL
GASTEIGER

@<TRIPOS>ATOM
      1  C1         4.9580  -14.2080   16.7350 C.3   1176  BDP1176     0.1783
      2  C2         6.4460  -14.1190   17.0970 C.3   1176  BDP1176     0.2141
      3  C3         7.3280  -13.4520   16.0440 C.3   1176  BDP1176     0.2178
      4  C4         6.9040  -13.7010   14.6040 C.3   1176  BDP1176     0.2227
      5  C5         5.3850  -13.6610   14.5010 C.3   1176  BDP1176     0.2512
      6  C6         4.9010  -14.0450   13.1190 C.2   1176  BDP1176     0.3940
      7  O2         6.5790  -13.3400   18.2610 O.3   1176  BDP1176    -0.2176
      8  O3         8.6700  -13.8620   16.2100 O.3   1176  BDP1176    -0.2175
      9  O4         7.4540  -12.6860   13.7860 O.3   1176  BDP1176    -0.2171
     10  O5         4.8180  -14.5770   15.3920 O.3   1176  BDP1176    -0.3403
     11  O6A        5.0980  -15.2270   12.7760 O.co2 1176  BDP1176    -0.2429
     12  O6B        4.3430  -13.1650   12.4310 O.co2 1176  BDP1176    -0.2429
@<TRIPOS>BOND
     1    12     6   ar
     2    11     6   ar
     3     6     5    1
     4     9     4    1
     5     5     4    1
     6     5    10    1
     7     4     3    1
     8    10     1    1
     9     3     8    1
    10     3     2    1
    11     1     2    1
    12     2     7    1
