@<TRIPOS>MOLECULE
2jcs_TTP_A_1.pdb
 29 30 0 0 0
SMALL
GASTEIGER

@<TRIPOS>ATOM
      1  PA        11.1520   -3.0280   14.0370 P.3   1210  TTP1210     0.2189
      2  O1A       11.5240   -1.8060   14.8380 O.3   1210  TTP1210    -0.4371
      3  O2A       12.0830   -4.2140   13.9970 O.2   1210  TTP1210    -0.5170
      4  O3A        9.6890   -3.4900   14.5430 O.3   1210  TTP1210    -0.2700
      5  PB         8.9820   -4.8680   14.0950 P.3   1210  TTP1210     0.2277
      6  O1B        7.5820   -4.8230   14.6510 O.3   1210  TTP1210    -0.4368
      7  O2B        9.1710   -5.0750   12.6130 O.2   1210  TTP1210    -0.5168
      8  O3B        9.8440   -5.9810   14.8920 O.3   1210  TTP1210    -0.2258
      9  PG         9.2940   -7.4710   15.1980 P.3   1210  TTP1210     0.5373
     10  O1G        8.8440   -7.9890   13.8530 O.2   1210  TTP1210    -0.2221
     11  O2G       10.4910   -8.1950   15.7630 O.3   1210  TTP1210    -0.1143
     12  O3G        8.1700   -7.2670   16.1840 O.3   1210  TTP1210    -0.1143
     13  O5'       10.9040   -2.5680   12.5190 O.3   1210  TTP1210    -0.3112
     14  C5'        9.7930   -1.7470   12.1560 C.3   1210  TTP1210     0.1812
     15  C4'       10.0400   -1.0450   10.8230 C.3   1210  TTP1210     0.1773
     16  O4'       10.5580    0.2600   11.0690 O.3   1210  TTP1210    -0.3339
     17  C3'       11.0520   -1.7490    9.9330 C.3   1210  TTP1210     0.1857
     18  O3'       10.5860   -1.6670    8.5870 O.3   1210  TTP1210    -0.2203
     19  C2'       12.3370   -0.9560   10.0470 C.3   1210  TTP1210     0.0874
     20  C1'       11.8580    0.4210   10.4790 C.3   1210  TTP1210     0.2090
     21  N1        12.7480    1.0820   11.4350 N.am  1210  TTP1210    -0.1794
     22  C2        13.5890    2.0500   10.9820 C.1   1210  TTP1210     0.2844
     23  O2        13.6050    2.3320    9.7650 O.2   1210  TTP1210    -0.1918
     24  N3        14.4140    2.7150   11.8090 N.2   1210  TTP1210    -0.2455
     25  C4        14.4350    2.4420   13.1180 C.1   1210  TTP1210     0.2134
     26  O4        15.2070    3.0610   13.8780 O.2   1210  TTP1210    -0.2088
     27  C5        13.5290    1.3900   13.6460 C.2   1210  TTP1210     0.0891
     28  C5M       13.4990    1.0360   15.1120 C.3   1210  TTP1210     0.0462
     29  C6        12.7000    0.7450   12.7380 C.2   1210  TTP1210     0.0877
@<TRIPOS>BOND
     1    18    17    1
     2    23    22    2
     3    17    19    1
     4    17    15    1
     5    19    20    1
     6    20    16    1
     7    20    21    1
     8    15    16    1
     9    15    14    1
    10    22    21   am
    11    22    24    2
    12    21    29    1
    13    24    25    2
    14    14    13    1
    15    13     1    1
    16     7     5    2
    17    29    27    2
    18    25    27    1
    19    25    26    2
    20    27    28    1
    21    10     9    2
    22     3     1    2
    23     1     4    1
    24     1     2    1
    25     5     4    1
    26     5     6    1
    27     5     8    1
    28     8     9    1
    29     9    11    1
    30     9    12    1
