@<TRIPOS>MOLECULE
2jcv_FOM_A_1.pdb
 11 10 0 0 0
SMALL
GASTEIGER

@<TRIPOS>ATOM
      1  O2         6.4000    3.2900   44.4880 O.3   1390  FOM1390    -0.4195
      2  N1         5.0320    2.8780   44.5580 N.am  1390  FOM1390    -0.2796
      3  C1         4.1380    3.6990   45.3510 C.2   1390  FOM1390     0.1130
      4  O1         4.5860    4.5810   45.9070 O.2   1390  FOM1390    -0.5358
      5  C2         4.5400    1.6830   43.8730 C.3   1390  FOM1390     0.0985
      6  C3         5.3450    0.4820   44.3560 C.3   1390  FOM1390     0.0297
      7  C4         4.9010   -0.7690   43.6140 C.3   1390  FOM1390     0.0607
      8  PA1        5.8200   -2.1440   43.6970 P.3   1390  FOM1390     0.1172
      9  OP1        6.1200   -2.3080   45.1590 O.3   1390  FOM1390    -0.3571
     10  OP2        7.0440   -1.7850   42.8810 O.2   1390  FOM1390    -0.4601
     11  OP3        4.9940   -3.2780   43.1290 O.3   1390  FOM1390    -0.3571
@<TRIPOS>BOND
     1    10     8    2
     2    11     8    1
     3     7     8    1
     4     7     6    1
     5     8     9    1
     6     5     6    1
     7     5     2    1
     8     1     2    1
     9     2     3   am
    10     3     4    2
