@<TRIPOS>MOLECULE
2jcx_FOM_A_1.pdb
 11 10 0 0 0
SMALL
GASTEIGER

@<TRIPOS>ATOM
      1  O2        23.9160    3.0410  -40.2660 O.3   1390  FOM1390    -0.4195
      2  N1        22.5720    2.6930  -39.9050 N.am  1390  FOM1390    -0.2796
      3  C1        21.7520    3.6920  -39.2320 C.2   1390  FOM1390     0.1130
      4  O1        22.2440    4.6090  -38.7920 O.2   1390  FOM1390    -0.5358
      5  C2        22.0000    1.3770  -40.1930 C.3   1390  FOM1390     0.0985
      6  C3        23.1100    0.4380  -40.6470 C.3   1390  FOM1390     0.0297
      7  C4        22.5500   -0.9430  -40.9660 C.3   1390  FOM1390     0.0607
      8  PA1       23.5040   -2.2720  -40.7620 P.3   1390  FOM1390     0.1172
      9  OP1       23.7920   -2.2620  -39.2850 O.3   1390  FOM1390    -0.3571
     10  OP2       24.7070   -1.9890  -41.6120 O.2   1390  FOM1390    -0.4601
     11  OP3       22.7630   -3.5050  -41.1930 O.3   1390  FOM1390    -0.3571
@<TRIPOS>BOND
     1    10     8    2
     2    11     8    1
     3     7     8    1
     4     7     6    1
     5     8     9    1
     6     6     5    1
     7     1     2    1
     8     5     2    1
     9     2     3   am
    10     3     4    2
