@<TRIPOS>MOLECULE
2jcx_NDP_A_1.pdb
 48 52 0 0 0
SMALL
GASTEIGER

@<TRIPOS>ATOM
      1  PA        19.7530    8.6740  -50.6680 P.3   1391  NDP1391     0.2189
      2  O1A       19.8980    7.9110  -51.9420 O.2   1391  NDP1391    -0.5170
      3  O2A       18.3070    8.3540  -50.0130 O.3   1391  NDP1391    -0.4371
      4  O5B       19.8420   10.2930  -50.9960 O.3   1391  NDP1391    -0.3112
      5  C5B       20.9330   10.6160  -51.9090 C.3   1391  NDP1391     0.1813
      6  C4B       20.9520   12.1660  -52.0570 C.3   1391  NDP1391     0.1820
      7  O4B       22.0480   12.6260  -52.8240 O.3   1391  NDP1391    -0.3136
      8  C3B       19.6980   12.6340  -52.7800 C.3   1391  NDP1391     0.2157
      9  O3B       19.1250   13.8050  -52.2180 O.3   1391  NDP1391    -0.2175
     10  C2B       20.1270   12.8770  -54.2570 C.3   1391  NDP1391     0.2314
     11  O2B       19.3500   13.8910  -54.8960 O.3   1391  NDP1391    -0.2630
     12  C1B       21.5610   13.3740  -53.9670 C.3   1391  NDP1391     0.3158
     13  N9A       22.4730   13.1290  -55.0840 N.pl3 1391  NDP1391    -0.1439
     14  C8A       22.6420   11.9830  -55.8130 C.3   1391  NDP1391     0.3377
     15  N7A       23.5350   12.1430  -56.7450 N.2   1391  NDP1391    -0.2095
     16  C5A       23.9860   13.4170  -56.6640 C.2   1391  NDP1391     0.2526
     17  C6A       24.9290   14.1230  -57.3940 C.2   1391  NDP1391     0.4393
     18  N6A       25.5890   13.5370  -58.4570 N.pl3 1391  NDP1391     0.2180
     19  N1A       25.1690   15.3800  -57.0380 N.2   1391  NDP1391     0.0021
     20  C2A       24.5310   15.9630  -56.0310 C.3   1391  NDP1391     0.5254
     21  N3A       23.6240   15.3510  -55.3130 N.2   1391  NDP1391    -0.0055
     22  C4A       23.3300   14.0530  -55.5910 C.2   1391  NDP1391     0.3518
     23  O3        20.9730    8.2120  -49.6690 O.3   1391  NDP1391    -0.2703
     24  PN        20.7180    8.4950  -48.1240 P.3   1391  NDP1391     0.2189
     25  O1N       19.8470    7.4470  -47.5570 O.3   1391  NDP1391    -0.4371
     26  O2N       20.0290    9.9450  -47.9630 O.2   1391  NDP1391    -0.5170
     27  O5D       22.1070    8.4860  -47.3460 O.3   1391  NDP1391    -0.3112
     28  C5D       23.0910    9.2570  -48.0010 C.3   1391  NDP1391     0.1813
     29  C4D       24.3720    9.0300  -47.2690 C.3   1391  NDP1391     0.1799
     30  O4D       24.0230    8.7600  -45.8950 O.3   1391  NDP1391    -0.3327
     31  C3D       25.1290    7.7790  -47.8090 C.3   1391  NDP1391     0.2158
     32  O3D       26.4960    8.0870  -48.1090 O.3   1391  NDP1391    -0.2175
     33  C2D       25.0280    6.7050  -46.7310 C.3   1391  NDP1391     0.2309
     34  O2D       26.2350    5.9500  -46.6010 O.3   1391  NDP1391    -0.2158
     35  C1D       24.7630    7.5640  -45.4790 C.3   1391  NDP1391     0.2263
     36  N1N       24.0110    6.9160  -44.4610 N.pl3 1391  NDP1391    -0.2787
     37  C2N       22.6420    6.9520  -44.5160 C.3   1391  NDP1391     0.1244
     38  C3N       21.8380    6.2080  -43.6810 C.2   1391  NDP1391     0.0544
     39  C7N       20.4060    6.2390  -43.8580 C.2   1391  NDP1391     0.2818
     40  O7N       19.6800    6.0870  -42.9010 O.2   1391  NDP1391    -0.2670
     41  N7N       19.8760    6.4180  -45.0820 N.am  1391  NDP1391    -0.0839
     42  C4N       22.4770    5.3060  -42.6460 C.2   1391  NDP1391     0.0033
     43  C5N       23.9480    5.6280  -42.4890 C.2   1391  NDP1391     0.0157
     44  C6N       24.6160    6.3410  -43.3460 C.2   1391  NDP1391     0.0633
     45  P2B       18.3640   13.2310  -55.9940 P.3   1391  NDP1391     0.5328
     46  O1X       18.2160   11.7890  -55.7840 O.3   1391  NDP1391    -0.1145
     47  O2X       16.9250   13.9360  -55.8590 O.3   1391  NDP1391    -0.1145
     48  O3X       18.9450   13.4650  -57.4840 O.2   1391  NDP1391    -0.2224
@<TRIPOS>BOND
     1    18    17    1
     2    48    45    2
     3    17    19    2
     4    17    16    1
     5    19    20    1
     6    15    16    2
     7    15    14    1
     8    16    22    1
     9    20    21    1
    10    45    47    1
    11    45    46    1
    12    45    11    1
    13    14    13    1
    14    22    21    2
    15    22    13    1
    16    13    12    1
    17    11    10    1
    18    10    12    1
    19    10     8    1
    20    12     7    1
    21     7     6    1
    22     8     9    1
    23     8     6    1
    24     6     5    1
    25     2     1    2
    26     5     4    1
    27     4     1    1
    28     1     3    1
    29     1    23    1
    30    23    24    1
    31    24    26    2
    32    24    25    1
    33    24    27    1
    34    32    31    1
    35    28    27    1
    36    28    29    1
    37    31    29    1
    38    31    33    1
    39    29    30    1
    40    33    34    1
    41    33    35    1
    42    30    35    1
    43    35    36    1
    44    41    39   am
    45    37    36    1
    46    37    38    1
    47    36    44    1
    48    39    38    1
    49    39    40    2
    50    38    42    2
    51    44    43    2
    52    42    43    1
