@<TRIPOS>MOLECULE
2jd0_NDP_A_1.pdb
 48 52 0 0 0
SMALL
GASTEIGER

@<TRIPOS>ATOM
      1  PA        10.5920    5.5280   -8.5060 P.3   1390  NDP1390     0.2189
      2  O1A       10.9680    4.6030   -9.6080 O.2   1390  NDP1390    -0.5170
      3  O2A        9.1870    5.3330   -8.0580 O.3   1390  NDP1390    -0.4371
      4  O5B       10.8200    7.0470   -9.0080 O.3   1390  NDP1390    -0.3112
      5  C5B       12.0790    7.5000   -9.4630 C.3   1390  NDP1390     0.1813
      6  C4B       12.0350    8.9880   -9.8110 C.3   1390  NDP1390     0.1820
      7  O4B       13.1450    9.3160  -10.6380 O.3   1390  NDP1390    -0.3136
      8  C3B       10.7670    9.3790  -10.5730 C.3   1390  NDP1390     0.2157
      9  O3B       10.1860   10.5420  -10.0250 O.3   1390  NDP1390    -0.2175
     10  C2B       11.2600    9.6470  -11.9820 C.3   1390  NDP1390     0.2314
     11  O2B       10.5130   10.6140  -12.6880 O.3   1390  NDP1390    -0.2630
     12  C1B       12.7000   10.0720  -11.7540 C.3   1390  NDP1390     0.3158
     13  N9A       13.4810    9.8420  -12.9810 N.pl3 1390  NDP1390    -0.1439
     14  C8A       13.4730    8.7250  -13.7830 C.3   1390  NDP1390     0.3377
     15  N7A       14.3220    8.9320  -14.8160 N.2   1390  NDP1390    -0.2095
     16  C5A       14.8680   10.1640  -14.6840 C.2   1390  NDP1390     0.2526
     17  C6A       15.7810   10.8720  -15.4590 C.2   1390  NDP1390     0.4393
     18  N6A       15.8940   10.5590  -16.7500 N.pl3 1390  NDP1390     0.2180
     19  N1A       16.1560   12.1380  -15.0430 N.2   1390  NDP1390     0.0021
     20  C2A       15.6250   12.7080  -13.9030 C.3   1390  NDP1390     0.5254
     21  N3A       14.7140   11.9990  -13.1550 N.2   1390  NDP1390    -0.0055
     22  C4A       14.3440   10.7490  -13.5350 C.2   1390  NDP1390     0.3518
     23  O3        11.6040    5.3410   -7.2560 O.3   1390  NDP1390    -0.2703
     24  PN        12.0100    5.1160   -5.8780 P.3   1390  NDP1390     0.2189
     25  O1N       11.9870    4.1450   -4.7510 O.3   1390  NDP1390    -0.4371
     26  O2N       11.4950    6.5770   -5.3920 O.2   1390  NDP1390    -0.5170
     27  O5D       13.5120    5.1830   -6.4870 O.3   1390  NDP1390    -0.3112
     28  C5D       14.3470    6.1550   -5.8580 C.3   1390  NDP1390     0.1813
     29  C4D       15.5630    5.5170   -5.1810 C.3   1390  NDP1390     0.1799
     30  O4D       15.1600    5.1240   -3.8530 O.3   1390  NDP1390    -0.3327
     31  C3D       16.1610    4.2510   -5.8860 C.3   1390  NDP1390     0.2158
     32  O3D       17.5360    4.4400   -6.2330 O.3   1390  NDP1390    -0.2175
     33  C2D       15.9730    3.0920   -4.8800 C.3   1390  NDP1390     0.2309
     34  O2D       17.1150    2.2370   -4.8530 O.3   1390  NDP1390    -0.2158
     35  C1D       15.8030    3.8340   -3.5550 C.3   1390  NDP1390     0.2263
     36  N1N       15.0140    3.0200   -2.6310 N.pl3 1390  NDP1390    -0.2787
     37  C2N       13.6450    3.2620   -2.5080 C.3   1390  NDP1390     0.1244
     38  C3N       12.8660    2.4380   -1.7440 C.2   1390  NDP1390     0.0544
     39  C7N       11.4630    2.6230   -1.5520 C.2   1390  NDP1390     0.2818
     40  O7N       10.9480    2.3850   -0.4650 O.2   1390  NDP1390    -0.2670
     41  N7N       10.6960    3.0880   -2.5720 N.am  1390  NDP1390    -0.0839
     42  C4N       13.5180    1.2510   -1.0850 C.2   1390  NDP1390     0.0033
     43  C5N       15.0130    1.3010   -1.0440 C.2   1390  NDP1390     0.0157
     44  C6N       15.6790    2.1470   -1.8080 C.2   1390  NDP1390     0.0633
     45  P2B        9.4960   10.1660  -13.8580 P.3   1390  NDP1390     0.5328
     46  O1X        8.9630    8.7890  -13.5390 O.3   1390  NDP1390    -0.1145
     47  O2X        8.3540   11.1450  -13.9000 O.3   1390  NDP1390    -0.1145
     48  O3X       10.2050   10.1370  -15.1920 O.2   1390  NDP1390    -0.2224
@<TRIPOS>BOND
     1    18    17    1
     2    17    19    2
     3    17    16    1
     4    48    45    2
     5    19    20    1
     6    15    16    2
     7    15    14    1
     8    16    22    1
     9    20    21    1
    10    47    45    1
    11    45    46    1
    12    45    11    1
    13    14    13    1
    14    22    21    2
    15    22    13    1
    16    13    12    1
    17    11    10    1
    18    10    12    1
    19    10     8    1
    20    12     7    1
    21     7     6    1
    22     8     9    1
    23     8     6    1
    24     6     5    1
    25     2     1    2
    26     5     4    1
    27     4     1    1
    28     1     3    1
    29     1    23    1
    30    23    24    1
    31    27    24    1
    32    27    28    1
    33    32    31    1
    34    31    29    1
    35    31    33    1
    36    24    26    2
    37    24    25    1
    38    28    29    1
    39    29    30    1
    40    33    34    1
    41    33    35    1
    42    30    35    1
    43    35    36    1
    44    36    37    1
    45    36    44    1
    46    41    39   am
    47    37    38    1
    48    44    43    2
    49    38    39    1
    50    38    42    2
    51    39    40    2
    52    42    43    1
