@<TRIPOS>MOLECULE
2jd1_NDP_A_1.pdb
 48 52 0 0 0
SMALL
GASTEIGER

@<TRIPOS>ATOM
      1  PA        10.6140    5.2150   -8.4060 P.3   1390  NDP1390     0.2189
      2  O1A       10.7540    4.3800   -9.6190 O.2   1390  NDP1390    -0.5170
      3  O2A        9.2280    4.8920   -7.6610 O.3   1390  NDP1390    -0.4371
      4  O5B       10.6110    6.7950   -8.8580 O.3   1390  NDP1390    -0.3112
      5  C5B       11.7760    7.1110   -9.6600 C.3   1390  NDP1390     0.1813
      6  C4B       11.8040    8.6640   -9.8130 C.3   1390  NDP1390     0.1820
      7  O4B       12.9150    9.1500  -10.5650 O.3   1390  NDP1390    -0.3136
      8  C3B       10.5590    9.1690  -10.5540 C.3   1390  NDP1390     0.2157
      9  O3B        9.9940   10.3370   -9.9620 O.3   1390  NDP1390    -0.2175
     10  C2B       11.0090    9.4090  -12.0240 C.3   1390  NDP1390     0.2314
     11  O2B       10.2400   10.4420  -12.6480 O.3   1390  NDP1390    -0.2630
     12  C1B       12.4590    9.8770  -11.7390 C.3   1390  NDP1390     0.3158
     13  N9A       13.3820    9.6030  -12.8450 N.pl3 1390  NDP1390    -0.1439
     14  C8A       13.5540    8.4520  -13.5080 C.3   1390  NDP1390     0.3377
     15  N7A       14.4650    8.5960  -14.4320 N.2   1390  NDP1390    -0.2095
     16  C5A       14.9260    9.8370  -14.4100 C.2   1390  NDP1390     0.2526
     17  C6A       15.8840   10.5720  -15.1310 C.2   1390  NDP1390     0.4393
     18  N6A       16.6080    9.9760  -16.1600 N.pl3 1390  NDP1390     0.2180
     19  N1A       16.0800   11.8230  -14.8020 N.2   1390  NDP1390     0.0021
     20  C2A       15.4340   12.4160  -13.8380 C.3   1390  NDP1390     0.5254
     21  N3A       14.5480   11.8090  -13.1270 N.2   1390  NDP1390    -0.0055
     22  C4A       14.2550   10.5120  -13.3760 C.2   1390  NDP1390     0.3518
     23  O3        11.9040    4.9160   -7.4090 O.3   1390  NDP1390    -0.2703
     24  PN        11.6070    4.8670   -5.8090 P.3   1390  NDP1390     0.2189
     25  O1N       10.8470    3.6460   -5.4670 O.2   1390  NDP1390    -0.5170
     26  O2N       10.7360    6.1430   -5.3960 O.3   1390  NDP1390    -0.4371
     27  O5D       13.0180    4.8910   -5.0150 O.3   1390  NDP1390    -0.3112
     28  C5D       13.9070    5.8240   -5.6090 C.3   1390  NDP1390     0.1813
     29  C4D       15.2860    5.6460   -4.9860 C.3   1390  NDP1390     0.1799
     30  O4D       15.1410    5.4940   -3.5600 O.3   1390  NDP1390    -0.3327
     31  C3D       15.9580    4.3610   -5.5070 C.3   1390  NDP1390     0.2158
     32  O3D       17.3460    4.5380   -5.7400 O.3   1390  NDP1390    -0.2175
     33  C2D       15.6770    3.3190   -4.4340 C.3   1390  NDP1390     0.2309
     34  O2D       16.7540    2.3770   -4.3440 O.3   1390  NDP1390    -0.2158
     35  C1D       15.5680    4.1570   -3.1600 C.3   1390  NDP1390     0.2263
     36  N1N       14.6570    3.5770   -2.1420 N.pl3 1390  NDP1390    -0.2787
     37  C2N       13.2700    3.5800   -2.2990 C.3   1390  NDP1390     0.1244
     38  C3N       12.4260    2.9750   -1.3950 C.2   1390  NDP1390     0.0544
     39  C7N       11.0430    2.8870   -1.6740 C.2   1390  NDP1390     0.2818
     40  O7N       10.2590    2.5270   -0.8210 O.2   1390  NDP1390    -0.2670
     41  N7N       10.5860    3.2150   -2.8870 N.am  1390  NDP1390    -0.0839
     42  C4N       13.0340    2.2800   -0.1740 C.2   1390  NDP1390     0.0033
     43  C5N       14.4950    2.6540   -0.0120 C.2   1390  NDP1390     0.0157
     44  C6N       15.2100    3.2060   -0.9510 C.2   1390  NDP1390     0.0633
     45  P2B        9.2740    9.8360  -13.7800 P.3   1390  NDP1390     0.5328
     46  O1X        9.0340    8.3930  -13.5850 O.3   1390  NDP1390    -0.1145
     47  O2X        7.8650   10.6170  -13.6940 O.3   1390  NDP1390    -0.1145
     48  O3X        9.9450   10.0790  -15.2310 O.2   1390  NDP1390    -0.2224
@<TRIPOS>BOND
     1    18    17    1
     2    48    45    2
     3    17    19    2
     4    17    16    1
     5    19    20    1
     6    15    16    2
     7    15    14    1
     8    16    22    1
     9    20    21    1
    10    45    47    1
    11    45    46    1
    12    45    11    1
    13    14    13    1
    14    22    21    2
    15    22    13    1
    16    13    12    1
    17    11    10    1
    18    10    12    1
    19    10     8    1
    20    12     7    1
    21     7     6    1
    22     8     9    1
    23     8     6    1
    24     6     5    1
    25     5     4    1
    26     2     1    2
    27     4     1    1
    28     1     3    1
    29     1    23    1
    30    23    24    1
    31    24    25    2
    32    24    26    1
    33    24    27    1
    34    32    31    1
    35    28    27    1
    36    28    29    1
    37    31    29    1
    38    31    33    1
    39    29    30    1
    40    33    34    1
    41    33    35    1
    42    30    35    1
    43    35    36    1
    44    41    39   am
    45    37    36    1
    46    37    38    1
    47    36    44    1
    48    39    38    1
    49    39    40    2
    50    38    42    2
    51    44    43    2
    52    42    43    1
