@<TRIPOS>MOLECULE
2jdc_CAO_A_1.pdb
 49 51 0 0 0
SMALL
GASTEIGER

@<TRIPOS>ATOM
      1  N1A        9.9220    6.5590    8.9200 N.2   1147  CAO1147     0.0021
      2  C2A        8.9180    5.7760    8.4700 C.3   1147  CAO1147     0.5254
      3  N3A        8.9950    5.0370    7.3450 N.2   1147  CAO1147    -0.0055
      4  C4A       10.1190    5.0810    6.5800 C.2   1147  CAO1147     0.3518
      5  C5A       11.2370    5.9270    6.9860 C.2   1147  CAO1147     0.2526
      6  C6A       11.0910    6.6790    8.2390 C.2   1147  CAO1147     0.4393
      7  N6A       12.1110    7.4630    8.6470 N.pl3 1147  CAO1147     0.2180
      8  N7A       12.2150    5.7800    6.0730 N.2   1147  CAO1147    -0.2095
      9  C8A       11.7570    4.9030    5.1470 C.3   1147  CAO1147     0.3377
     10  N9A       10.4970    4.5050    5.4520 N.pl3 1147  CAO1147    -0.1439
     11  C1B        9.6440    3.5510    4.7210 C.3   1147  CAO1147     0.3185
     12  C2B        9.6040    3.7210    3.2120 C.3   1147  CAO1147     0.2543
     13  O2B        8.5640    4.6480    2.8210 O.3   1147  CAO1147    -0.2131
     14  C3B        9.3210    2.2980    2.7760 C.3   1147  CAO1147     0.1928
     15  O3B        7.9190    2.0120    2.8850 O.3   1147  CAO1147    -0.2673
     16  P3B        7.0360    1.4820    1.6340 P.3   1147  CAO1147     0.5327
     17  O7A        7.5870    0.1380    1.2190 O.3   1147  CAO1147    -0.1145
     18  O8A        5.6490    1.3900    2.2410 O.3   1147  CAO1147    -0.1145
     19  O9A        7.1850    2.5410    0.5620 O.2   1147  CAO1147    -0.2224
     20  C4B       10.0670    1.4390    3.7900 C.3   1147  CAO1147     0.1795
     21  O4B       10.1150    2.2320    4.9830 O.3   1147  CAO1147    -0.3136
     22  C5B       11.4700    1.0610    3.3240 C.3   1147  CAO1147     0.1812
     23  O5B       12.2510    2.2130    3.0010 O.3   1147  CAO1147    -0.3112
     24  P1A       13.6360    2.0050    2.1930 P.3   1147  CAO1147     0.2189
     25  O1A       13.5400    2.6980    0.8500 O.2   1147  CAO1147    -0.5170
     26  O2A       14.0360    0.5580    2.2150 O.3   1147  CAO1147    -0.4371
     27  O3A       14.5950    2.8370    3.1790 O.3   1147  CAO1147    -0.2703
     28  P2A       15.6420    3.9930    2.8100 P.3   1147  CAO1147     0.2188
     29  O4A       14.8960    5.2300    2.3890 O.3   1147  CAO1147    -0.4371
     30  O5A       16.7100    3.4870    1.8840 O.2   1147  CAO1147    -0.5170
     31  O6A       16.3170    4.2150    4.2410 O.3   1147  CAO1147    -0.3138
     32  CBP       16.4360    5.2410    6.4400 C.3   1147  CAO1147     0.0645
     33  CCP       15.5880    4.4500    5.4490 C.3   1147  CAO1147     0.1519
     34  CDP       17.7590    4.4920    6.6440 C.3   1147  CAO1147     0.0056
     35  CEP       15.6680    5.3130    7.7610 C.3   1147  CAO1147     0.0056
     36  CAP       16.6780    6.6680    5.8900 C.3   1147  CAO1147     0.2312
     37  OAP       15.4400    7.4040    5.8590 O.3   1147  CAO1147    -0.2131
     38  C9P       17.6880    7.4460    6.6960 C.2   1147  CAO1147     0.2719
     39  O9P       18.8870    7.3030    6.5220 O.2   1147  CAO1147    -0.2706
     40  N8P       17.2350    8.3300    7.5950 N.am  1147  CAO1147    -0.2028
     41  C7P       18.1010    9.1830    8.3710 C.3   1147  CAO1147     0.1248
     42  C6P       19.0880    8.4420    9.2680 C.3   1147  CAO1147     0.1102
     43  C5P       18.3720    7.4520   10.1670 C.2   1147  CAO1147     0.2432
     44  O5P       17.4400    7.7940   10.8860 O.2   1147  CAO1147    -0.2733
     45  N4P       18.8280    6.2050   10.1530 N.am  1147  CAO1147    -0.2043
     46  C3P       18.2880    5.1520   10.9920 C.3   1147  CAO1147     0.1304
     47  C2P       19.2100    4.9430   12.1870 C.3   1147  CAO1147     0.1285
     48  S1P       18.5550    3.8690   13.4200 S.3   1147  CAO1147     0.1232
     49  O1P       19.8130    4.1350   14.6420 O.2   1147  CAO1147    -0.2429
@<TRIPOS>BOND
     1    19    16    2
     2    25    24    2
     3    17    16    1
     4    16    18    1
     5    16    15    1
     6    30    28    2
     7    24    26    1
     8    24    23    1
     9    24    27    1
    10    29    28    1
    11    14    15    1
    12    14    12    1
    13    14    20    1
    14    28    27    1
    15    28    31    1
    16    13    12    1
    17    23    22    1
    18    12    11    1
    19    22    20    1
    20    20    21    1
    21    31    33    1
    22    11    21    1
    23    11    10    1
    24     9    10    1
    25     9     8    1
    26    33    32    1
    27    10     4    1
    28    37    36    1
    29    36    32    1
    30    36    38    1
    31     8     5    2
    32    32    34    1
    33    32    35    1
    34    39    38    2
    35     4     5    1
    36     4     3    2
    37    38    40   am
    38     5     6    1
    39     3     2    1
    40    40    41    1
    41     6     7    1
    42     6     1    2
    43    41    42    1
    44     2     1    1
    45    42    43    1
    46    45    43   am
    47    45    46    1
    48    43    44    2
    49    46    47    1
    50    47    48    1
    51    48    49    2
