@<TRIPOS>MOLECULE
2jdd_3PG_A_1.pdb
 11 10 0 0 0
SMALL
GASTEIGER

@<TRIPOS>ATOM
      1  C1        25.1750    4.7650   15.2480 C.2   1148  3PG1148     0.3972
      2  O1        25.8710    5.0380   16.2390 O.co2 1148  3PG1148    -0.2427
      3  O2        24.9080    3.5750   14.9840 O.co2 1148  3PG1148    -0.2427
      4  C2        24.6450    5.8970   14.3790 C.3   1148  3PG1148     0.2838
      5  O3        25.2560    7.1380   14.7540 O.3   1148  3PG1148    -0.2081
      6  C3        23.1480    5.9960   14.6070 C.3   1148  3PG1148     0.1983
      7  O1P       22.9160    5.9470   16.0490 O.3   1148  3PG1148    -0.2669
      8  P         22.5690    7.2440   16.8020 P.3   1148  3PG1148     0.5327
      9  O2P       21.0530    7.5030   16.6010 O.3   1148  3PG1148    -0.1145
     10  O3P       23.4410    8.4150   16.2070 O.2   1148  3PG1148    -0.2224
     11  O4P       22.8960    7.0990   18.2110 O.3   1148  3PG1148    -0.1145
@<TRIPOS>BOND
     1     4     6    1
     2     4     5    1
     3     4     1    1
     4     6     7    1
     5     3     1   ar
     6     1     2   ar
     7     7     8    1
     8    10     8    2
     9     9     8    1
    10     8    11    1
