@<TRIPOS>MOLECULE
2jdh_FUC_A_1.pdb
 11 11 0 0 0
SMALL
GASTEIGER

@<TRIPOS>ATOM
      1  C1        30.9170  -13.7140   32.4770 C.3   1115  FUC1115     0.3023
      2  C2        30.0220  -12.7780   31.6360 C.3   1115  FUC1115     0.2434
      3  C3        29.8170  -11.4770   32.3570 C.3   1115  FUC1115     0.2198
      4  C4        31.1430  -10.8290   32.6830 C.3   1115  FUC1115     0.2118
      5  C5        32.0330  -11.7890   33.4630 C.3   1115  FUC1115     0.1509
      6  C6        33.4360  -11.2230   33.6790 C.3   1115  FUC1115     0.0350
      7  O1        30.2090  -13.9890   33.7040 O.3   1115  FUC1115    -0.1869
      8  O2        28.7600  -13.3710   31.3540 O.3   1115  FUC1115    -0.2148
      9  O3        29.0670  -10.6000   31.4590 O.3   1115  FUC1115    -0.2174
     10  O4        31.7360  -10.4340   31.4130 O.3   1115  FUC1115    -0.2177
     11  O5        32.1480  -13.0390   32.7490 O.3   1115  FUC1115    -0.3264
@<TRIPOS>BOND
     1     8     2    1
     2    10     4    1
     3     9     3    1
     4     2     3    1
     5     2     1    1
     6     3     4    1
     7     1    11    1
     8     1     7    1
     9     4     5    1
    10    11     5    1
    11     5     6    1
