@<TRIPOS>MOLECULE
2jdi_ANP_A_1.pdb
 31 33 0 0 0
SMALL
GASTEIGER

@<TRIPOS>ATOM
      1  PG        39.1320   86.2350  100.2530 P.3   1511  ANP1511     0.4884
      2  O1G       40.5710   86.6900  100.3700 O.3   1511  ANP1511    -0.1240
      3  O2G       38.2050   86.8820  101.2370 O.3   1511  ANP1511    -0.1240
      4  O3G       38.9400   84.7370  100.2120 O.2   1511  ANP1511    -0.2331
      5  PB        37.1130   87.2710   98.2110 P.3   1511  ANP1511     0.4669
      6  O1B       36.3760   85.9800   97.9370 O.2   1511  ANP1511    -0.2351
      7  O2B       36.4940   88.2650   99.1520 O.3   1511  ANP1511    -0.1253
      8  N3B       38.7290   86.8460   98.6830 N.3   1511  ANP1511    -0.0163
      9  PA        38.0390   89.4790   96.6450 P.3   1511  ANP1511     0.2220
     10  O1A       39.2210   89.6050   97.5730 O.3   1511  ANP1511    -0.4370
     11  O2A       36.9630   90.5370   96.6480 O.2   1511  ANP1511    -0.5170
     12  O3A       37.3580   88.0180   96.8140 O.3   1511  ANP1511    -0.2360
     13  O5'       38.5760   89.3340   95.1430 O.3   1511  ANP1511    -0.3111
     14  C5'       39.6240   88.4190   94.8000 C.3   1511  ANP1511     0.1813
     15  C4'       40.4540   89.0200   93.6660 C.3   1511  ANP1511     0.1821
     16  O4'       39.6310   89.2150   92.5070 O.3   1511  ANP1511    -0.3135
     17  C3'       41.0250   90.3860   94.0350 C.3   1511  ANP1511     0.2184
     18  O3'       42.3860   90.4640   93.6210 O.3   1511  ANP1511    -0.2174
     19  C2'       40.1930   91.3760   93.2500 C.3   1511  ANP1511     0.2570
     20  O2'       40.9270   92.5570   92.9100 O.3   1511  ANP1511    -0.2130
     21  C1'       39.7230   90.5630   92.0450 C.3   1511  ANP1511     0.3186
     22  N9        38.3880   91.0200   91.5950 N.pl3 1511  ANP1511    -0.1439
     23  C8        37.2720   91.0560   92.3480 C.3   1511  ANP1511     0.3377
     24  N7        36.2200   91.5360   91.6430 N.2   1511  ANP1511    -0.2095
     25  C5        36.6550   91.8050   90.4050 C.2   1511  ANP1511     0.2526
     26  C6        36.0570   92.3370   89.1580 C.2   1511  ANP1511     0.4393
     27  N6        34.7430   92.6790   89.0980 N.pl3 1511  ANP1511     0.2180
     28  N1        36.8710   92.4710   88.0840 N.2   1511  ANP1511     0.0021
     29  C2        38.1790   92.1390   88.1220 C.3   1511  ANP1511     0.5254
     30  N3        38.7800   91.6500   89.2250 N.2   1511  ANP1511    -0.0055
     31  C4        38.0870   91.4640   90.3750 C.2   1511  ANP1511     0.3518
@<TRIPOS>BOND
     1    28    29    1
     2    28    26    2
     3    29    30    1
     4    27    26    1
     5    26    25    1
     6    30    31    2
     7    31    25    1
     8    31    22    1
     9    25    24    2
    10    22    21    1
    11    22    23    1
    12    24    23    1
    13    21    16    1
    14    21    19    1
    15    16    15    1
    16    20    19    1
    17    19    17    1
    18    18    17    1
    19    15    17    1
    20    15    14    1
    21    14    13    1
    22    13     9    1
    23     9    11    2
    24     9    12    1
    25     9    10    1
    26    12     5    1
    27     6     5    2
    28     5     8    1
    29     5     7    1
    30     8     1    1
    31     4     1    2
    32     1     2    1
    33     1     3    1
