@<TRIPOS>MOLECULE
2jdk_FUC_A_1.pdb
 11 11 0 0 0
SMALL
GASTEIGER

@<TRIPOS>ATOM
      1  C1        30.8960  -13.7470   32.5580 C.3   1115  FUC1115     0.3023
      2  C2        30.0300  -12.8200   31.6940 C.3   1115  FUC1115     0.2434
      3  C3        29.8160  -11.5150   32.3860 C.3   1115  FUC1115     0.2198
      4  C4        31.1180  -10.8370   32.7200 C.3   1115  FUC1115     0.2118
      5  C5        32.0210  -11.8150   33.5010 C.3   1115  FUC1115     0.1509
      6  C6        33.4140  -11.2550   33.7660 C.3   1115  FUC1115     0.0350
      7  O1        30.1820  -14.0260   33.7430 O.3   1115  FUC1115    -0.1869
      8  O2        28.7540  -13.3970   31.4010 O.3   1115  FUC1115    -0.2148
      9  O3        29.0560  -10.6520   31.5100 O.3   1115  FUC1115    -0.2174
     10  O4        31.7270  -10.4770   31.4720 O.3   1115  FUC1115    -0.2177
     11  O5        32.1370  -13.0690   32.8210 O.3   1115  FUC1115    -0.3264
@<TRIPOS>BOND
     1     8     2    1
     2    10     4    1
     3     9     3    1
     4     2     3    1
     5     2     1    1
     6     3     4    1
     7     1    11    1
     8     1     7    1
     9     4     5    1
    10    11     5    1
    11     5     6    1
