@<TRIPOS>MOLECULE
2jdm_FUC_A_1.pdb
 11 11 0 0 0
SMALL
GASTEIGER

@<TRIPOS>ATOM
      1  C1         4.5120  -14.0340   32.5050 C.3   1118  FUC1118     0.3023
      2  C2         3.5960  -13.1140   31.6790 C.3   1118  FUC1118     0.2434
      3  C3         3.3930  -11.7780   32.3690 C.3   1118  FUC1118     0.2198
      4  C4         4.7410  -11.1330   32.6650 C.3   1118  FUC1118     0.2118
      5  C5         5.6200  -12.1080   33.4760 C.3   1118  FUC1118     0.1509
      6  C6         7.0250  -11.5510   33.7140 C.3   1118  FUC1118     0.0350
      7  O1         3.8270  -14.4280   33.6780 O.3   1118  FUC1118    -0.1869
      8  O2         2.3230  -13.6700   31.4020 O.3   1118  FUC1118    -0.2148
      9  O3         2.6290  -10.9070   31.5400 O.3   1118  FUC1118    -0.2174
     10  O4         5.3570  -10.7580   31.4390 O.3   1118  FUC1118    -0.2177
     11  O5         5.7380  -13.3550   32.7920 O.3   1118  FUC1118    -0.3264
@<TRIPOS>BOND
     1     8     2    1
     2    10     4    1
     3     9     3    1
     4     2     3    1
     5     2     1    1
     6     3     4    1
     7     1    11    1
     8     1     7    1
     9     4     5    1
    10    11     5    1
    11     5     6    1
