@<TRIPOS>MOLECULE
2jdm_MFU_B_1.pdb
 12 12 0 0 0
SMALL
GASTEIGER

@<TRIPOS>ATOM
      1  C1        12.4240    4.7100   -3.4780 C.3   1117  MFU1117     0.2695
      2  C2        11.0780    4.5200   -2.7480 C.3   1117  MFU1117     0.2406
      3  C3        10.2290    3.4820   -3.4760 C.3   1117  MFU1117     0.2197
      4  C4        11.0290    2.2050   -3.7330 C.3   1117  MFU1117     0.2118
      5  C5        12.3950    2.4740   -4.3780 C.3   1117  MFU1117     0.1508
      6  C6        13.2140    1.1910   -4.5480 C.3   1117  MFU1117     0.0350
      7  O1        12.1740    5.2640   -4.7830 O.3   1117  MFU1117    -0.3259
      8  O2        10.2970    5.7350   -2.5790 O.3   1117  MFU1117    -0.2149
      9  O3         9.1090    3.1190   -2.6570 O.3   1117  MFU1117    -0.2174
     10  O4        11.2250    1.5360   -2.4730 O.3   1117  MFU1117    -0.2177
     11  O5        13.1140    3.4460   -3.6050 O.3   1117  MFU1117    -0.3284
     12  CM        13.3290    5.8010   -5.4460 C.3   1117  MFU1117     0.1769
@<TRIPOS>BOND
     1    12     7    1
     2     7     1    1
     3     6     5    1
     4     5     4    1
     5     5    11    1
     6     4     3    1
     7     4    10    1
     8    11     1    1
     9     1     2    1
    10     3     2    1
    11     3     9    1
    12     2     8    1
