@<TRIPOS>MOLECULE
2jdn_MMA_B_1.pdb
 13 13 0 0 0
SMALL
GASTEIGER

@<TRIPOS>ATOM
      1  C1        38.7390    2.4480   -4.3800 C.3   700  MMA700      0.2695
      2  C2        37.3660    2.1590   -3.7650 C.3   700  MMA700      0.2406
      3  C3        36.5960    3.4540   -3.5520 C.3   700  MMA700      0.2198
      4  C4        37.4020    4.4970   -2.8290 C.3   700  MMA700      0.2144
      5  C5        38.6660    4.7360   -3.6600 C.3   700  MMA700      0.1835
      6  C6        39.5880    5.7890   -3.0810 C.3   700  MMA700      0.2142
      7  C7        39.6690    2.8300   -6.5130 C.3   700  MMA700      0.1769
      8  O1        38.4490    2.7680   -5.7330 O.3   700  MMA700     -0.3259
      9  O2        37.5340    1.5910   -2.4580 O.3   700  MMA700     -0.2149
     10  O3        35.3930    3.1860   -2.7920 O.3   700  MMA700     -0.2174
     11  O4        36.5900    5.6920   -2.7090 O.3   700  MMA700     -0.2176
     12  O5        39.4020    3.5040   -3.7220 O.3   700  MMA700     -0.3256
     13  O6        40.1340    5.3900   -1.8090 O.3   700  MMA700     -0.2176
@<TRIPOS>BOND
     1     7     8    1
     2     8     1    1
     3     1     2    1
     4     1    12    1
     5     2     3    1
     6     2     9    1
     7    12     5    1
     8     5     6    1
     9     5     4    1
    10     3     4    1
    11     3    10    1
    12     6    13    1
    13     4    11    1
