@<TRIPOS>MOLECULE
2jdn_FUC_A_1.pdb
 11 11 0 0 0
SMALL
GASTEIGER

@<TRIPOS>ATOM
      1  C1        30.7230  -13.9810   32.3840 C.3   999  FUC999      0.3023
      2  C2        29.8300  -13.0600   31.5410 C.3   999  FUC999      0.2434
      3  C3        29.6220  -11.7390   32.2550 C.3   999  FUC999      0.2198
      4  C4        30.9480  -11.1080   32.5910 C.3   999  FUC999      0.2118
      5  C5        31.8600  -12.0920   33.3300 C.3   999  FUC999      0.1509
      6  C6        33.2730  -11.5480   33.5680 C.3   999  FUC999      0.0350
      7  O1        30.0120  -14.3090   33.5720 O.3   999  FUC999     -0.1869
      8  O2        28.5510  -13.6260   31.2570 O.3   999  FUC999     -0.2148
      9  O3        28.8470  -10.9210   31.3500 O.3   999  FUC999     -0.2174
     10  O4        31.5530  -10.7120   31.3580 O.3   999  FUC999     -0.2177
     11  O5        31.9610  -13.3390   32.6540 O.3   999  FUC999     -0.3264
@<TRIPOS>BOND
     1     8     2    1
     2     9     3    1
     3    10     4    1
     4     2     3    1
     5     2     1    1
     6     3     4    1
     7     1    11    1
     8     1     7    1
     9     4     5    1
    10    11     5    1
    11     5     6    1
