@<TRIPOS>MOLECULE
2jdo_I5S_A_1.pdb
 28 30 0 0 0
SMALL
GASTEIGER

@<TRIPOS>ATOM
      1 CL1        41.5950   30.3140  106.2120 Cl    1480  I5S1480    -0.0822
      2  C2        42.0400   29.2260  107.4840 C.ar  1480  I5S1480     0.0577
      3  C3        41.2280   28.1470  107.7880 C.ar  1480  I5S1480     0.0111
      4  C4        41.5800   27.2790  108.7980 C.ar  1480  I5S1480    -0.0010
      5  C5        42.7590   27.4690  109.5090 C.ar  1480  I5S1480     0.0073
      6  C6        43.1460   26.5180  110.6110 C.3   1480  I5S1480     0.1686
      7  O7        43.1770   27.2270  111.8590 O.3   1480  I5S1480    -0.3475
      8  C8        41.8740   27.6430  112.3000 C.3   1480  I5S1480     0.1614
      9  C9        41.9990   28.1640  113.7160 C.3   1480  I5S1480     0.1207
     10  N10       42.1930   29.6180  113.7030 N.3   1480  I5S1480    -0.2138
     11  C13       43.5890   29.9970  113.4950 C.3   1480  I5S1480     0.1096
     12  C14       43.7130   31.5080  113.5590 C.3   1480  I5S1480     0.1342
     13  N15       44.7960   31.9930  112.7090 N.3   1480  I5S1480    -0.0763
     14  S16       44.4990   32.5910  111.2090 S.O2  1480  I5S1480     0.0769
     15  O17       45.7660   32.6550  110.5420 O.2   1480  I5S1480    -0.1516
     16  O18       43.4520   31.8000  110.6290 O.2   1480  I5S1480    -0.1516
     17  C19       43.8860   34.2280  111.4430 C.ar  1480  I5S1480     0.1236
     18  C20       42.5150   34.4410  111.3690 C.ar  1480  I5S1480     0.0200
     19  C21       41.9840   35.6980  111.5610 C.ar  1480  I5S1480     0.0014
     20  C22       42.8060   36.7700  111.8340 C.ar  1480  I5S1480     0.0016
     21  C23       44.1770   36.6000  111.9330 C.ar  1480  I5S1480     0.0205
     22  C24       45.0270   37.6620  112.2180 C.ar  1480  I5S1480     0.0989
     23  N25       46.3540   37.5470  112.3190 N.ar  1480  I5S1480    -0.2423
     24  C26       46.8740   36.3320  112.1230 C.ar  1480  I5S1480     0.0989
     25  C27       46.1160   35.2170  111.8420 C.ar  1480  I5S1480     0.0220
     26  C28       44.7360   35.3260  111.7370 C.ar  1480  I5S1480     0.0217
     27  C29       43.5700   28.5560  109.2010 C.ar  1480  I5S1480    -0.0010
     28  C30       43.2160   29.4260  108.1910 C.ar  1480  I5S1480     0.0111
@<TRIPOS>BOND
     1     1     2    1
     2     2     3   ar
     3     2    28   ar
     4     3     4   ar
     5    28    27   ar
     6     4     5   ar
     7    27     5   ar
     8     5     6    1
     9    15    14    2
    10     6     7    1
    11    16    14    2
    12    14    17    1
    13    14    13    1
    14    18    17   ar
    15    18    19   ar
    16    17    26   ar
    17    19    20   ar
    18    26    25   ar
    19    26    21   ar
    20    20    21   ar
    21    25    24   ar
    22     7     8    1
    23    21    22   ar
    24    24    23   ar
    25    22    23   ar
    26     8     9    1
    27    13    12    1
    28    11    12    1
    29    11    10    1
    30    10     9    1
