@<TRIPOS>MOLECULE
2jdp_MFU_A_1.pdb
 12 12 0 0 0
SMALL
GASTEIGER

@<TRIPOS>ATOM
      1  C1       -34.8140    9.0870  -42.3930 C.3   1115  MFU1115     0.2695
      2  C2       -33.7980    8.8930  -41.2920 C.3   1115  MFU1115     0.2406
      3  C3       -33.8980   10.0480  -40.3070 C.3   1115  MFU1115     0.2197
      4  C4       -35.3050   10.2150  -39.7320 C.3   1115  MFU1115     0.2118
      5  C5       -36.3340   10.2570  -40.8700 C.3   1115  MFU1115     0.1508
      6  C6       -37.7870   10.2780  -40.3860 C.3   1115  MFU1115     0.0350
      7  O1       -34.4750   10.2670  -43.1470 O.3   1115  MFU1115    -0.3259
      8  O2       -32.4840    8.8950  -41.8400 O.3   1115  MFU1115    -0.2149
      9  O3       -32.9580    9.8190  -39.2430 O.3   1115  MFU1115    -0.2174
     10  O4       -35.5300    9.1180  -38.8320 O.3   1115  MFU1115    -0.2177
     11  O5       -36.1080    9.1790  -41.7770 O.3   1115  MFU1115    -0.3284
     12  CM       -35.1970   10.3070  -44.3820 C.3   1115  MFU1115     0.1769
@<TRIPOS>BOND
     1    12     7    1
     2     7     1    1
     3     1    11    1
     4     1     2    1
     5     8     2    1
     6    11     5    1
     7     2     3    1
     8     5     6    1
     9     5     4    1
    10     3     4    1
    11     3     9    1
    12     4    10    1
