@<TRIPOS>MOLECULE
2jdr_L20_A_1.pdb
 30 34 0 0 0
SMALL
GASTEIGER

@<TRIPOS>ATOM
      1  C1        24.7540    5.1480   42.8080 C.3   1480  L201480     0.0540
      2  C2        23.5880    6.0490   42.6400 C.2   1480  L201480     0.0821
      3  N3        23.5550    7.3540   42.7790 N.2   1480  L201480    -0.1523
      4  N4        22.2600    7.8520   42.5400 N.2   1480  L201480    -0.1483
      5  C6        21.4500    6.7790   42.2150 C.2   1480  L201480     0.1034
      6  C7        20.1050    6.6630   41.9140 C.2   1480  L201480     0.0170
      7  C8        19.5860    5.4320   41.6350 C.2   1480  L201480    -0.0160
      8  C9        20.3710    4.2610   41.6810 C.3   1480  L201480     0.0679
      9  C10       21.7160    4.3580   42.0190 C.2   1480  L201480    -0.0148
     10  C11       22.2490    5.6180   42.2680 C.2   1480  L201480     0.0311
     11  C12       19.7380    2.9220   41.4290 C.ar  1480  L201480     0.0078
     12  C13       18.7750    2.7080   40.4540 C.ar  1480  L201480     0.0954
     13  N14       18.2430    1.5120   40.2990 N.ar  1480  L201480    -0.2395
     14  C15       18.5720    0.4950   41.0490 C.ar  1480  L201480     0.1356
     15  C16       19.5030    0.6170   42.0680 C.ar  1480  L201480     0.1574
     16  O17       19.7380   -0.5100   42.7790 O.3   1480  L201480    -0.4723
     17  C18       20.3600   -0.6170   44.0300 C.3   1480  L201480     0.2246
     18  C19       20.6140   -2.1200   44.0980 C.3   1480  L201480     0.1394
     19  N21       19.4080   -2.8910   43.8140 N.3   1480  L201480    -0.1286
     20  C25       21.5730   -2.5550   43.0010 C.3   1480  L201480     0.0471
     21  C26       22.9410   -1.9760   43.2520 C.2   1480  L201480    -0.0143
     22  C27       23.8490   -2.5050   44.1090 C.2   1480  L201480     0.0907
     23  N28       24.9860   -1.7200   44.0820 N.2   1480  L201480    -0.2482
     24  C30       24.8190   -0.6610   43.1940 C.2   1480  L201480     0.0665
     25  C31       25.6390    0.4150   42.7960 C.2   1480  L201480     0.0153
     26  C32       25.2240    1.3550   41.8630 C.2   1480  L201480     0.0009
     27  C33       23.9530    1.2400   41.3080 C.2   1480  L201480    -0.0038
     28  C34       23.1210    0.1960   41.6930 C.2   1480  L201480    -0.0164
     29  C35       23.5320   -0.7740   42.6430 C.3   1480  L201480     0.0819
     30  C36       20.0980    1.8320   42.2610 C.ar  1480  L201480     0.0364
@<TRIPOS>BOND
     1    13    12   ar
     2    13    14   ar
     3    12    11   ar
     4    14    15   ar
     5    27    28    2
     6    27    26    1
     7    11     8    1
     8    11    30   ar
     9     7     8    1
    10     7     6    2
    11     8     9    1
    12    28    29    1
    13    26    25    2
    14     6     5    1
    15     9    10    2
    16    15    30   ar
    17    15    16    1
    18     5    10    1
    19     5     4    2
    20    10     2    1
    21     4     3    1
    22     2     3    2
    23     2     1    1
    24    29    24    1
    25    29    21    1
    26    16    17    1
    27    25    24    1
    28    20    21    1
    29    20    18    1
    30    24    23    2
    31    21    22    2
    32    19    18    1
    33    17    18    1
    34    23    22    1
