@<TRIPOS>MOLECULE
2jds_L20_A_1.pdb
 30 34 0 0 0
SMALL
GASTEIGER

@<TRIPOS>ATOM
      1  C1         5.2660   10.4400    5.5250 C.3   1351  L201351     0.0540
      2  C2         4.6210   10.2650    4.1860 C.2   1351  L201351     0.0821
      3  N3         3.2910   10.2130    3.9520 N.2   1351  L201351    -0.1523
      4  N4         3.0470   10.0550    2.6330 N.2   1351  L201351    -0.1483
      5  C6         4.2510   10.0170    1.9210 C.2   1351  L201351     0.1034
      6  C7         4.5590    9.8680    0.5620 C.2   1351  L201351     0.0170
      7  C8         5.8810    9.8780    0.1840 C.2   1351  L201351    -0.0160
      8  C9         6.9390    9.9970    1.1450 C.3   1351  L201351     0.0679
      9  C10        6.6500   10.1370    2.5050 C.2   1351  L201351    -0.0148
     10  C11        5.3130   10.1620    2.9070 C.2   1351  L201351     0.0311
     11  C12        8.3300    9.9810    0.6680 C.ar  1351  L201351     0.0078
     12  C13        8.5930   10.4500   -0.6350 C.ar  1351  L201351     0.0954
     13  N14        9.7940   10.4900   -1.2240 N.ar  1351  L201351    -0.2395
     14  C15       10.8200   10.0540   -0.4890 C.ar  1351  L201351     0.1356
     15  C16       10.6840    9.5480    0.8020 C.ar  1351  L201351     0.1574
     16  O17       11.8460    9.1220    1.4320 O.3   1351  L201351    -0.4723
     17  C18       11.9780    8.1240    2.4350 C.3   1351  L201351     0.2246
     18  C19       13.4770    7.7060    2.3250 C.3   1351  L201351     0.1394
     19  N21       13.6780    6.9530    1.0090 N.3   1351  L201351    -0.1286
     20  C25       14.4850    8.9090    2.5360 C.3   1351  L201351     0.0471
     21  C26       14.6420    9.8410    1.3870 C.2   1351  L201351    -0.0143
     22  C27       15.3690    9.5750    0.2160 C.2   1351  L201351     0.0907
     23  N28       15.2870   10.6400   -0.6800 N.2   1351  L201351    -0.2482
     24  C30       14.4790   11.6510   -0.1260 C.2   1351  L201351     0.0665
     25  C31       14.0800   12.9000   -0.6610 C.2   1351  L201351     0.0153
     26  C32       13.2600   13.7160    0.1230 C.2   1351  L201351     0.0009
     27  C33       12.8400   13.2790    1.4070 C.2   1351  L201351    -0.0038
     28  C34       13.2220   12.0460    1.9290 C.2   1351  L201351    -0.0164
     29  C35       14.0590   11.1890    1.1860 C.3   1351  L201351     0.0819
     30  C36        9.4230    9.4970    1.4340 C.ar  1351  L201351     0.0364
@<TRIPOS>BOND
     1    13    12   ar
     2    13    14   ar
     3    23    24    2
     4    23    22    1
     5    25    24    1
     6    25    26    2
     7    12    11   ar
     8    14    15   ar
     9    24    29    1
    10    26    27    1
    11     7     6    2
    12     7     8    1
    13    22    21    2
    14     6     5    1
    15    11     8    1
    16    11    30   ar
    17    15    16    1
    18    15    30   ar
    19    19    18    1
    20     8     9    1
    21    29    21    1
    22    29    28    1
    23    21    20    1
    24    27    28    2
    25    16    17    1
    26     5     4    2
    27     5    10    1
    28    18    17    1
    29    18    20    1
    30     9    10    2
    31     4     3    1
    32    10     2    1
    33     3     2    2
    34     2     1    1
