@<TRIPOS>MOLECULE
2jdt_I5S_A_1.pdb
 28 30 0 0 0
SMALL
GASTEIGER

@<TRIPOS>ATOM
      1 CL1        13.2310   14.5970   -0.2260 Cl    1351  I5S1351    -0.0822
      2  C2        13.6970   13.3090    0.7800 C.ar  1351  I5S1351     0.0577
      3  C3        13.0560   13.1470    1.9910 C.ar  1351  I5S1351     0.0111
      4  C4        13.4400   12.1090    2.8110 C.ar  1351  I5S1351    -0.0010
      5  C5        14.4570   11.2710    2.4130 C.ar  1351  I5S1351     0.0073
      6  C6        14.8320   10.1160    3.3140 C.3   1351  I5S1351     0.1686
      7  O7        13.9830    9.0340    2.7510 O.3   1351  I5S1351    -0.3475
      8  C8        14.2990    7.6970    3.1980 C.3   1351  I5S1351     0.1614
      9  C9        13.0100    6.7910    3.3550 C.3   1351  I5S1351     0.1207
     10  N10       11.6830    7.3230    2.8470 N.3   1351  I5S1351    -0.2138
     11  C13       11.0070    7.9290    3.8850 C.3   1351  I5S1351     0.1096
     12  C14        9.5550    8.0250    3.5140 C.3   1351  I5S1351     0.1342
     13  N15        9.0510    9.0620    4.3610 N.3   1351  I5S1351    -0.0763
     14  S16        8.8330   10.5260    3.6980 S.O2  1351  I5S1351     0.0769
     15  O17        8.6970   11.3800    4.8170 O.2   1351  I5S1351    -0.1516
     16  O18        9.8540   10.7370    2.7460 O.2   1351  I5S1351    -0.1516
     17  C19        7.3160   10.3780    2.8450 C.ar  1351  I5S1351     0.1236
     18  C20        7.3180   10.2840    1.4770 C.ar  1351  I5S1351     0.0200
     19  C21        6.1460   10.1500    0.7510 C.ar  1351  I5S1351     0.0014
     20  C22        4.9440   10.0720    1.3880 C.ar  1351  I5S1351     0.0016
     21  C23        4.8970   10.1480    2.7960 C.ar  1351  I5S1351     0.0205
     22  C24        3.6650   10.0830    3.4860 C.ar  1351  I5S1351     0.0989
     23  N25        3.6290   10.1700    4.8120 N.ar  1351  I5S1351    -0.2423
     24  C26        4.7420   10.3040    5.5250 C.ar  1351  I5S1351     0.0989
     25  C27        5.9800   10.3920    4.9460 C.ar  1351  I5S1351     0.0220
     26  C28        6.0960   10.3200    3.5370 C.ar  1351  I5S1351     0.0217
     27  C29       15.0880   11.4220    1.1800 C.ar  1351  I5S1351    -0.0010
     28  C30       14.7010   12.4640    0.3530 C.ar  1351  I5S1351     0.0111
@<TRIPOS>BOND
     1     1     2    1
     2    28     2   ar
     3    28    27   ar
     4    19    20   ar
     5    19    18   ar
     6     2     3   ar
     7    27     5   ar
     8    20    21   ar
     9    18    17   ar
    10     3     4   ar
    11     5     4   ar
    12     5     6    1
    13    16    14    2
    14     7     8    1
    15     7     6    1
    16    21    22   ar
    17    21    26   ar
    18    17    26   ar
    19    17    14    1
    20    10     9    1
    21    10    11    1
    22     8     9    1
    23    22    23   ar
    24    12    11    1
    25    12    13    1
    26    26    25   ar
    27    14    13    1
    28    14    15    2
    29    23    24   ar
    30    25    24   ar
