@<TRIPOS>MOLECULE
2jdu_MFU_C_1.pdb
 12 12 0 0 0
SMALL
GASTEIGER

@<TRIPOS>ATOM
      1  C1       -40.0780   20.3600   11.1970 C.3   1117  MFU1117     0.2695
      2  C2       -38.6790   19.8620   11.4050 C.3   1117  MFU1117     0.2406
      3  C3       -38.1330   20.3660   12.7550 C.3   1117  MFU1117     0.2197
      4  C4       -39.0380   20.0820   13.9480 C.3   1117  MFU1117     0.2118
      5  C5       -40.4120   20.6450   13.6230 C.3   1117  MFU1117     0.1508
      6  C6       -41.4090   20.5160   14.7940 C.3   1117  MFU1117     0.0350
      7  O1       -40.0430   21.7910   11.0070 O.3   1117  MFU1117    -0.3259
      8  O2       -37.7690   20.2470   10.3390 O.3   1117  MFU1117    -0.2149
      9  O3       -36.8690   19.7030   12.9710 O.3   1117  MFU1117    -0.2174
     10  O4       -39.0420   18.6540   14.1730 O.3   1117  MFU1117    -0.2177
     11  O5       -40.8770   20.0520   12.3800 O.3   1117  MFU1117    -0.3284
     12  CM       -41.3320   22.2360   10.4930 C.3   1117  MFU1117     0.1769
@<TRIPOS>BOND
     1     8     2    1
     2    12     7    1
     3     7     1    1
     4     1     2    1
     5     1    11    1
     6     2     3    1
     7    11     5    1
     8     3     9    1
     9     3     4    1
    10     5     4    1
    11     5     6    1
    12     4    10    1
