@<TRIPOS>MOLECULE
2jdv_L20_A_1.pdb
 30 34 0 0 0
SMALL
GASTEIGER

@<TRIPOS>ATOM
      1  C1         4.6300    9.6460    5.4830 C.3   1351  L201351     0.0540
      2  C2         3.9820    9.6170    4.1620 C.2   1351  L201351     0.0821
      3  N3         2.6600    9.5430    3.9270 N.2   1351  L201351    -0.1523
      4  N4         2.4940    9.5320    2.5900 N.2   1351  L201351    -0.1483
      5  C6         3.6740    9.6100    1.9010 C.2   1351  L201351     0.1034
      6  C7         3.9820    9.6390    0.5150 C.2   1351  L201351     0.0170
      7  C8         5.3300    9.7180    0.2000 C.2   1351  L201351    -0.0160
      8  C9         6.3620    9.7830    1.1680 C.3   1351  L201351     0.0679
      9  C10        6.0380    9.7610    2.5410 C.2   1351  L201351    -0.0148
     10  C11        4.6930    9.6820    2.9080 C.2   1351  L201351     0.0311
     11  C12        7.7610    9.8900    0.7360 C.ar  1351  L201351     0.0078
     12  C13        8.1180   10.6090   -0.4380 C.ar  1351  L201351     0.0954
     13  N14        9.3890   10.7540   -0.8510 N.ar  1351  L201351    -0.2395
     14  C15       10.3620   10.1750   -0.1680 C.ar  1351  L201351     0.1356
     15  C16       10.1120    9.4190    0.9860 C.ar  1351  L201351     0.1574
     16  O17       11.1580    8.8460    1.6870 O.3   1351  L201351    -0.4723
     17  C18       11.0350    7.5980    2.3610 C.3   1351  L201351     0.2246
     18  C19       12.4580    7.3990    2.9270 C.3   1351  L201351     0.1394
     19  N21       13.3660    7.2540    1.7530 N.3   1351  L201351    -0.1286
     20  C25       12.9710    8.5600    3.8470 C.3   1351  L201351     0.0471
     21  C26       12.1550    8.6550    5.0680 C.2   1351  L201351    -0.0143
     22  C27       12.4130    7.9870    6.2650 C.2   1351  L201351     0.0907
     23  N28       11.4120    8.2470    7.1860 N.2   1351  L201351    -0.2482
     24  C30       10.4700    9.0920    6.6090 C.2   1351  L201351     0.0665
     25  C31        9.2970    9.6280    7.1460 C.2   1351  L201351     0.0153
     26  C32        8.5450   10.4530    6.3380 C.2   1351  L201351     0.0009
     27  C33        8.9440   10.7100    5.0060 C.2   1351  L201351    -0.0038
     28  C34       10.1130   10.2060    4.4590 C.2   1351  L201351    -0.0164
     29  C35       10.9140    9.3830    5.2540 C.3   1351  L201351     0.0819
     30  C36        8.7980    9.2870    1.4520 C.ar  1351  L201351     0.0364
@<TRIPOS>BOND
     1    13    12   ar
     2    13    14   ar
     3    12    11   ar
     4    14    15   ar
     5     7     6    2
     6     7     8    1
     7     6     5    1
     8    11     8    1
     9    11    30   ar
    10    15    30   ar
    11    15    16    1
    12     8     9    1
    13    16    17    1
    14    19    18    1
    15     5     4    2
    16     5    10    1
    17    17    18    1
    18     9    10    2
    19     4     3    1
    20    10     2    1
    21    18    20    1
    22    20    21    1
    23     3     2    2
    24     2     1    1
    25    28    27    2
    26    28    29    1
    27    27    26    1
    28    21    29    1
    29    21    22    2
    30    29    24    1
    31    22    23    1
    32    26    25    2
    33    24    25    1
    34    24    23    2
