@<TRIPOS>MOLECULE
2jdy_MMA_A_1.pdb
 13 13 0 0 0
SMALL
GASTEIGER

@<TRIPOS>ATOM
      1  C1        -4.4630  -17.8730   -5.8620 C.3   1115  MMA1115     0.2695
      2  C2        -3.7120  -17.2790   -4.6580 C.3   1115  MMA1115     0.2406
      3  C3        -4.6820  -16.6970   -3.6280 C.3   1115  MMA1115     0.2198
      4  C4        -5.6640  -15.7360   -4.2980 C.3   1115  MMA1115     0.2144
      5  C5        -6.4030  -16.5370   -5.3640 C.3   1115  MMA1115     0.1835
      6  C6        -7.5240  -15.7430   -6.0400 C.3   1115  MMA1115     0.2142
      7  C7        -5.5150  -19.9010   -6.5190 C.3   1115  MMA1115     0.1769
      8  O1        -5.1300  -19.0560   -5.4150 O.3   1115  MMA1115    -0.3259
      9  O2        -2.8330  -16.2240   -5.1120 O.3   1115  MMA1115    -0.2149
     10  O3        -3.9410  -15.9340   -2.6550 O.3   1115  MMA1115    -0.2174
     11  O4        -6.5470  -15.1530   -3.3100 O.3   1115  MMA1115    -0.2176
     12  O5        -5.4450  -16.9560   -6.3560 O.3   1115  MMA1115    -0.3256
     13  O6        -8.3180  -16.6950   -6.7870 O.3   1115  MMA1115    -0.2176
@<TRIPOS>BOND
     1    13     6    1
     2     7     8    1
     3    12     1    1
     4    12     5    1
     5     6     5    1
     6     1     8    1
     7     1     2    1
     8     5     4    1
     9     9     2    1
    10     2     3    1
    11     4     3    1
    12     4    11    1
    13     3    10    1
