@<TRIPOS>MOLECULE
2jdz_XMM_A_1.pdb
 23 25 0 0 0
SMALL
GASTEIGER

@<TRIPOS>ATOM
      1  O2        35.2820    1.5770   22.1100 O.3   249  XMM249     -0.2135
      2  C2        34.9030    1.3120   23.4660 C.3   249  XMM249      0.2542
      3  C3        33.3860    1.2300   23.6240 C.3   249  XMM249      0.2211
      4  O3        32.7700    2.4290   23.1310 O.3   249  XMM249     -0.2173
      5  C4        32.7950    0.0120   22.8870 C.3   249  XMM249      0.2145
      6  O4        31.4940   -0.2030   23.4260 O.3   249  XMM249     -0.2176
      7  C5        33.6700   -1.2550   23.1480 C.3   249  XMM249      0.1846
      8  O5        35.0930   -0.9750   22.9720 O.3   249  XMM249     -0.3157
      9  C6        33.3900   -2.4790   22.2440 C.3   249  XMM249      0.2142
     10  O6        33.5180   -2.1420   20.8260 O.3   249  XMM249     -0.2176
     11  C1        35.5900    0.0090   23.8860 C.3   249  XMM249      0.3219
     12  O1        35.3910   -0.2200   25.3120 O.2   249  XMM249     -0.4488
     13  C7        36.0500   -1.3120   25.7650 C.2   249  XMM249      0.1623
     14  C8        37.3700   -1.3500   26.1670 C.2   249  XMM249      0.0609
     15  C9        37.6030   -2.6590   26.5660 C.2   249  XMM249      0.0847
     16  N1        36.4620   -3.3280   26.4120 N.2   249  XMM249     -0.2406
     17  C11       35.5140   -2.5120   25.9270 C.2   249  XMM249      0.1357
     18  C10       38.3910   -0.4240   26.2220 C.2   249  XMM249      0.0542
     19 CL         38.1840    1.2250   25.7430 Cl    249  XMM249     -0.0856
     20  C13       39.6410   -0.8180   26.6940 C.3   249  XMM249      0.1119
     21 BR         40.9870    0.4930   26.7290 Br    249  XMM249     -0.0711
     22  C14       39.8970   -2.1240   27.1010 C.2   249  XMM249     -0.0083
     23  C12       38.8600   -3.0510   27.0330 C.2   249  XMM249      0.0158
@<TRIPOS>BOND
     1    10     9    1
     2     1     2    1
     3     9     7    1
     4     5     7    1
     5     5     6    1
     6     5     3    1
     7     8     7    1
     8     8    11    1
     9     4     3    1
    10     2     3    1
    11     2    11    1
    12    11    12    1
    13    12    13    1
    14    19    18    1
    15    13    17    2
    16    13    14    1
    17    17    16    1
    18    14    18    2
    19    14    15    1
    20    18    20    1
    21    16    15    2
    22    15    23    1
    23    20    21    1
    24    20    22    1
    25    23    22    2
