@<TRIPOS>MOLECULE
2je2_HEC_A_1.pdb
 43 50 0 0 0
SMALL
GASTEIGER

@<TRIPOS>ATOM
      1 FE         22.4690   23.5580   14.3770 Fe    1171  HEC1171     0.0000
      2  CHA       20.0070   24.1240   12.1910 C.2   1171  HEC1171     0.0000
      3  CHB       22.5580   20.2520   13.5280 C.2   1171  HEC1171     0.0000
      4  CHC       25.4480   23.1740   16.1200 C.2   1171  HEC1171     0.0000
      5  CHD       22.1580   26.7360   15.6790 C.2   1171  HEC1171     0.0000
      6  NA        21.4500   22.3540   12.9700 N.ar  1171  HEC1171     0.0000
      7  C1A       20.2950   22.7630   12.4120 C.ar  1171  HEC1171     0.0000
      8  C2A       19.5200   21.5650   12.0700 C.ar  1171  HEC1171     0.0000
      9  C3A       20.2580   20.4860   12.4630 C.ar  1171  HEC1171     0.0000
     10  C4A       21.5020   20.9840   13.0330 C.ar  1171  HEC1171     0.0000
     11  CMA       19.8840   18.9950   12.3460 C.3   1171  HEC1171     0.0000
     12  CAA       18.0960   21.6020   11.4450 C.3   1171  HEC1171     0.0000
     13  CBA       17.0810   21.0730   12.4980 C.3   1171  HEC1171     0.0000
     14  CGA       16.9520   21.9960   13.7040 C.2   1171  HEC1171     0.0000
     15  O1A       17.2360   21.5500   14.8410 O.co2 1171  HEC1171     0.0000
     16  O2A       16.5690   23.1980   13.5790 O.co2 1171  HEC1171     0.0000
     17  NB        23.7870   21.9760   14.7820 N.2   1171  HEC1171     0.0000
     18  C1B       23.6430   20.7140   14.2440 C.2   1171  HEC1171     0.0000
     19  C2B       24.8450   19.9710   14.5590 C.2   1171  HEC1171     0.0000
     20  C3B       25.6610   20.7800   15.2890 C.2   1171  HEC1171     0.0000
     21  C4B       24.9900   22.0670   15.4310 C.2   1171  HEC1171     0.0000
     22  CMB       25.0550   18.5000   14.1200 C.3   1171  HEC1171     0.0000
     23  CAB       27.0840   20.4540   15.8570 C.3   1171  HEC1171     0.0000
     24  CBB       28.1160   20.1930   14.7230 C.3   1171  HEC1171     0.0000
     25  NC        23.6060   24.7500   15.6980 N.ar  1171  HEC1171     0.0000
     26  C1C       24.8070   24.4100   16.2720 C.ar  1171  HEC1171     0.0000
     27  C2C       25.2830   25.5620   17.0470 C.ar  1171  HEC1171     0.0000
     28  C3C       24.4060   26.5800   16.8670 C.ar  1171  HEC1171     0.0000
     29  C4C       23.3120   26.0620   16.0420 C.ar  1171  HEC1171     0.0000
     30  CMC       26.6530   25.5940   17.7690 C.3   1171  HEC1171     0.0000
     31  CAC       24.4180   28.0330   17.4550 C.3   1171  HEC1171     0.0000
     32  CBC       25.8120   28.5670   17.8770 C.3   1171  HEC1171     0.0000
     33  ND        21.2290   25.2280   13.9940 N.2   1171  HEC1171     0.0000
     34  C1D       21.3010   26.4360   14.6510 C.2   1171  HEC1171     0.0000
     35  C2D       20.3060   27.3330   14.0830 C.2   1171  HEC1171     0.0000
     36  C3D       19.6430   26.5350   12.9690 C.2   1171  HEC1171     0.0000
     37  C4D       20.2940   25.2230   12.9970 C.2   1171  HEC1171     0.0000
     38  CMD       19.9840   28.7980   14.4850 C.3   1171  HEC1171     0.0000
     39  CAD       18.4880   27.0340   12.0680 C.3   1171  HEC1171     0.0000
     40  CBD       18.9250   28.3090   11.3280 C.3   1171  HEC1171     0.0000
     41  CGD       19.8270   28.1090   10.1180 C.2   1171  HEC1171     0.0000
     42  O1D       20.3820   29.1270    9.6210 O.co2 1171  HEC1171     0.0000
     43  O2D       20.0450   26.9850    9.6180 O.co2 1171  HEC1171     0.0000
@<TRIPOS>BOND
     1    43    41   ar
     2    42    41   ar
     3    41    40    1
     4    40    39    1
     5    12     8    1
     6    12    13    1
     7    39    36    1
     8     8     7   ar
     9     8     9   ar
    10     2     7    2
    11     2    37    1
    12    11     9    1
    13     7     6   ar
    14     9    10   ar
    15    13    14    1
    16    36    37    1
    17    36    35    2
    18     6    10   ar
    19     6     1    1
    20    37    33    2
    21    10     3    2
    22     3    18    1
    23    16    14   ar
    24    14    15   ar
    25    33     1    1
    26    33    34    1
    27    35    38    1
    28    35    34    1
    29    22    19    1
    30    18    19    1
    31    18    17    2
    32     1    17    1
    33     1    25    1
    34    19    20    2
    35    34     5    2
    36    24    23    1
    37    17    21    1
    38    20    21    1
    39    20    23    1
    40    21     4    2
    41     5    29    1
    42    25    29   ar
    43    25    26   ar
    44    29    28   ar
    45     4    26    1
    46    26    27   ar
    47    28    27   ar
    48    28    31    1
    49    27    30    1
    50    31    32    1
