@<TRIPOS>MOLECULE
2je3_HEC_A_1.pdb
 43 50 0 0 0
SMALL
GASTEIGER

@<TRIPOS>ATOM
      1 FE         22.3890   23.5220   14.5150 Fe    1171  HEC1171     0.0000
      2  CHA       20.1080   24.1390   12.1760 C.2   1171  HEC1171     0.0000
      3  CHB       22.6050   20.2450   13.5020 C.2   1171  HEC1171     0.0000
      4  CHC       25.4580   23.1550   16.1210 C.2   1171  HEC1171     0.0000
      5  CHD       22.1800   26.7360   15.7010 C.2   1171  HEC1171     0.0000
      6  NA        21.5550   22.3460   12.9540 N.ar  1171  HEC1171     0.0000
      7  C1A       20.3830   22.7780   12.4010 C.ar  1171  HEC1171     0.0000
      8  C2A       19.5730   21.5930   12.0830 C.ar  1171  HEC1171     0.0000
      9  C3A       20.2980   20.4990   12.4570 C.ar  1171  HEC1171     0.0000
     10  C4A       21.5580   20.9780   13.0080 C.ar  1171  HEC1171     0.0000
     11  CMA       19.9190   19.0040   12.3640 C.3   1171  HEC1171     0.0000
     12  CAA       18.1420   21.6280   11.4660 C.3   1171  HEC1171     0.0000
     13  CBA       17.1290   21.0750   12.5110 C.3   1171  HEC1171     0.0000
     14  CGA       16.9440   21.9890   13.7200 C.2   1171  HEC1171     0.0000
     15  O1A       17.1910   21.5440   14.8750 O.co2 1171  HEC1171     0.0000
     16  O2A       16.5280   23.1710   13.5580 O.co2 1171  HEC1171     0.0000
     17  NB        23.7840   21.9700   14.7720 N.2   1171  HEC1171     0.0000
     18  C1B       23.6720   20.7230   14.2180 C.2   1171  HEC1171     0.0000
     19  C2B       24.8940   19.9920   14.5270 C.2   1171  HEC1171     0.0000
     20  C3B       25.6920   20.8040   15.2600 C.2   1171  HEC1171     0.0000
     21  C4B       25.0020   22.0680   15.4150 C.2   1171  HEC1171     0.0000
     22  CMB       25.1420   18.5430   14.0790 C.3   1171  HEC1171     0.0000
     23  CAB       27.1100   20.5130   15.8400 C.3   1171  HEC1171     0.0000
     24  CBB       28.1360   20.1750   14.7310 C.3   1171  HEC1171     0.0000
     25  NC        23.6290   24.7500   15.7240 N.ar  1171  HEC1171     0.0000
     26  C1C       24.8230   24.3850   16.2900 C.ar  1171  HEC1171     0.0000
     27  C2C       25.2730   25.5040   17.1190 C.ar  1171  HEC1171     0.0000
     28  C3C       24.4180   26.5430   16.9260 C.ar  1171  HEC1171     0.0000
     29  C4C       23.3310   26.0480   16.0790 C.ar  1171  HEC1171     0.0000
     30  CMC       26.6450   25.5240   17.8320 C.3   1171  HEC1171     0.0000
     31  CAC       24.4210   27.9880   17.5360 C.3   1171  HEC1171     0.0000
     32  CBC       25.7830   28.5070   18.0770 C.3   1171  HEC1171     0.0000
     33  ND        21.2880   25.2550   13.9790 N.2   1171  HEC1171     0.0000
     34  C1D       21.3310   26.4600   14.6530 C.2   1171  HEC1171     0.0000
     35  C2D       20.3220   27.3560   14.0740 C.2   1171  HEC1171     0.0000
     36  C3D       19.6860   26.5460   12.9480 C.2   1171  HEC1171     0.0000
     37  C4D       20.3560   25.2430   12.9850 C.2   1171  HEC1171     0.0000
     38  CMD       19.9820   28.8160   14.4800 C.3   1171  HEC1171     0.0000
     39  CAD       18.5440   26.9980   12.0130 C.3   1171  HEC1171     0.0000
     40  CBD       18.9520   28.3070   11.3240 C.3   1171  HEC1171     0.0000
     41  CGD       19.8230   28.1350   10.1010 C.2   1171  HEC1171     0.0000
     42  O1D       20.3640   29.1640    9.6030 O.co2 1171  HEC1171     0.0000
     43  O2D       20.0140   27.0080    9.5930 O.co2 1171  HEC1171     0.0000
@<TRIPOS>BOND
     1    43    41   ar
     2    42    41   ar
     3    41    40    1
     4    40    39    1
     5    12     8    1
     6    12    13    1
     7    39    36    1
     8     8     7   ar
     9     8     9   ar
    10     2     7    2
    11     2    37    1
    12    11     9    1
    13     7     6   ar
    14     9    10   ar
    15    13    14    1
    16    36    37    1
    17    36    35    2
    18     6    10   ar
    19     6     1    1
    20    37    33    2
    21    10     3    2
    22     3    18    1
    23    16    14   ar
    24    14    15   ar
    25    33     1    1
    26    33    34    1
    27    35    38    1
    28    35    34    1
    29    22    19    1
    30    18    19    1
    31    18    17    2
    32     1    17    1
    33     1    25    1
    34    19    20    2
    35    34     5    2
    36    24    23    1
    37    17    21    1
    38    20    21    1
    39    20    23    1
    40    21     4    2
    41     5    29    1
    42    25    29   ar
    43    25    26   ar
    44    29    28   ar
    45     4    26    1
    46    26    27   ar
    47    28    27   ar
    48    28    31    1
    49    27    30    1
    50    31    32    1
