@<TRIPOS>MOLECULE
2je5_L4C_A_1.pdb
 19 18 0 0 0
SMALL
GASTEIGER

@<TRIPOS>ATOM
      1  O17       35.5240   23.3750   66.0240 O.co2 1789  L4C1789    -0.2456
      2  C9        34.7730   22.9570   65.0620 C.2   1789  L4C1789     0.3653
      3  O16       33.7360   23.5230   64.7970 O.co2 1789  L4C1789    -0.2456
      4  C10       34.9210   21.7440   64.1420 C.3   1789  L4C1789     0.1207
      5  C11       35.9360   20.8190   64.7890 C.3   1789  L4C1789     0.0679
      6  C8        35.8140   19.3560   64.5090 C.2   1789  L4C1789     0.1767
      7  C12       35.5080   18.7520   63.2000 C.2   1789  L4C1789     0.4042
      8  O19       35.8720   19.3830   62.2280 O.co2 1789  L4C1789    -0.2391
      9  O18       35.0150   17.6050   63.0340 O.co2 1789  L4C1789    -0.2391
     10  N1        36.0960   18.4920   65.4320 N.2   1789  L4C1789    -0.0807
     11  O13       36.4680   18.6650   66.7540 O.2   1789  L4C1789    -0.3750
     12  C5        37.3490   17.7520   67.4580 C.3   1789  L4C1789     0.2679
     13  C3        38.6610   17.4520   66.7370 C.3   1789  L4C1789     0.2058
     14  N2        39.3740   18.7050   66.4270 N.am  1789  L4C1789    -0.1951
     15  C6        39.7560   19.6400   67.3170 C.2   1789  L4C1789     0.2423
     16  C7        40.7840   20.7050   66.9190 C.3   1789  L4C1789     0.0964
     17  O15       39.3220   19.6160   68.4730 O.2   1789  L4C1789    -0.2733
     18  C4        38.2210   16.5790   65.5460 C.2   1789  L4C1789     0.2327
     19  O14       38.4530   16.8150   64.3650 O.2   1789  L4C1789    -0.2863
@<TRIPOS>BOND
     1     8     7   ar
     2     9     7   ar
     3     7     6    1
     4     4     5    1
     5     4     2    1
     6    19    18    2
     7     6     5    1
     8     6    10    2
     9     3     2   ar
    10     2     1   ar
    11    10    11    1
    12    18    13    1
    13    14    13    1
    14    14    15   am
    15    13    12    1
    16    11    12    1
    17    16    15    1
    18    15    17    2
