@<TRIPOS>MOLECULE
2je7_XMM_A_1.pdb
 23 25 0 0 0
SMALL
GASTEIGER

@<TRIPOS>ATOM
      1  O2         6.0920   21.1040   22.3800 O.3   1242  XMM1242    -0.2135
      2  C2         6.5680   19.7830   22.4080 C.3   1242  XMM1242     0.2542
      3  C3         7.7790   19.6910   21.4620 C.3   1242  XMM1242     0.2211
      4  O3         7.4170   20.0790   20.1220 O.3   1242  XMM1242    -0.2173
      5  C4         9.0000   20.5100   21.9510 C.3   1242  XMM1242     0.2145
      6  O4        10.1480   20.1090   21.1810 O.3   1242  XMM1242    -0.2176
      7  C5         9.2940   20.2630   23.4460 C.3   1242  XMM1242     0.1846
      8  O5         8.0910   20.3710   24.2810 O.3   1242  XMM1242    -0.3157
      9  C6        10.3230   21.2240   24.0840 C.3   1242  XMM1242     0.2142
     10  O6         9.8330   22.5670   24.0090 O.3   1242  XMM1242    -0.2176
     11  C1         6.9880   19.4980   23.8500 C.3   1242  XMM1242     0.3219
     12  O1         7.4260   18.1490   23.9310 O.2   1242  XMM1242    -0.4488
     13  C7         7.6900   17.6780   25.1810 C.2   1242  XMM1242     0.1623
     14  C8         6.7760   16.9940   25.9740 C.2   1242  XMM1242     0.0605
     15  C9         7.4910   16.6650   27.1260 C.2   1242  XMM1242     0.0673
     16  N1         8.7500   17.1140   26.9860 N.2   1242  XMM1242    -0.2445
     17  C11        8.8750   17.7290   25.8010 C.2   1242  XMM1242     0.1354
     18  C10        5.4210   16.6470   25.8250 C.2   1242  XMM1242     0.0676
     19 CL          4.4960   17.0860   24.4160 Cl    1242  XMM1242    -0.0816
     20  C13        4.7980   15.9470   26.8530 C.2   1242  XMM1242     0.0414
     21 BR          2.9640   15.4200   26.6790 Br    1242  XMM1242    -0.0484
     22  C14        5.5200   15.6140   28.0080 C.2   1242  XMM1242    -0.0122
     23  C12        6.8570   15.9700   28.1620 C.3   1242  XMM1242     0.0724
@<TRIPOS>BOND
     1     4     3    1
     2     6     5    1
     3     3     5    1
     4     3     2    1
     5     5     7    1
     6     1     2    1
     7     2    11    1
     8     7     9    1
     9     7     8    1
    10    11    12    1
    11    11     8    1
    12    12    13    1
    13    10     9    1
    14    19    18    1
    15    13    17    2
    16    13    14    1
    17    17    16    1
    18    18    14    2
    19    18    20    1
    20    14    15    1
    21    21    20    1
    22    20    22    2
    23    16    15    2
    24    15    23    1
    25    22    23    1
