@<TRIPOS>MOLECULE
2je9_XMM_A_1.pdb
 23 25 0 0 0
SMALL
GASTEIGER

@<TRIPOS>ATOM
      1  O2       -15.9300  -16.8640   35.3340 O.3   1242  XMM1242    -0.2135
      2  C2       -16.4190  -16.1780   34.1790 C.3   1242  XMM1242     0.2542
      3  C3       -15.5370  -16.5910   32.9850 C.3   1242  XMM1242     0.2211
      4  O3       -14.1260  -16.4190   33.3430 O.3   1242  XMM1242    -0.2173
      5  C4       -15.8370  -18.0480   32.5620 C.3   1242  XMM1242     0.2145
      6  O4       -15.2830  -18.3240   31.2870 O.3   1242  XMM1242    -0.2176
      7  C5       -17.3620  -18.3700   32.4840 C.3   1242  XMM1242     0.1846
      8  O5       -17.9550  -17.9680   33.7160 O.3   1242  XMM1242    -0.3157
      9  C6       -17.6550  -19.8670   32.3720 C.3   1242  XMM1242     0.2142
     10  O6       -17.0450  -20.5710   33.4730 O.3   1242  XMM1242    -0.2176
     11  C1       -17.9090  -16.5260   33.9630 C.3   1242  XMM1242     0.3219
     12  O1       -18.4600  -15.7380   32.9160 O.2   1242  XMM1242    -0.4488
     13  C7       -19.7890  -15.8940   32.6270 C.2   1242  XMM1242     0.1623
     14  C8       -20.8620  -15.3140   33.2920 C.2   1242  XMM1242     0.0605
     15  C9       -22.0010  -15.7540   32.6190 C.2   1242  XMM1242     0.0673
     16  N1       -21.5990  -16.5350   31.6210 N.2   1242  XMM1242    -0.2445
     17  C11      -20.2700  -16.6140   31.6120 C.2   1242  XMM1242     0.1354
     18  C10      -20.9870  -14.4870   34.4020 C.2   1242  XMM1242     0.0676
     19 CL        -19.6100  -13.9090   35.2870 Cl    1242  XMM1242    -0.0816
     20  C13      -22.2540  -14.0930   34.8340 C.2   1242  XMM1242     0.0414
     21 BR        -22.3450  -12.9520   36.3730 Br    1242  XMM1242    -0.0484
     22  C14      -23.4080  -14.5260   34.1660 C.2   1242  XMM1242    -0.0122
     23  C12      -23.2780  -15.3560   33.0510 C.3   1242  XMM1242     0.0724
@<TRIPOS>BOND
     1     6     5    1
     2    17    16    1
     3    17    13    2
     4    16    15    2
     5     9     7    1
     6     9    10    1
     7     7     5    1
     8     7     8    1
     9     5     3    1
    10    15    23    1
    11    15    14    1
    12    13    12    1
    13    13    14    1
    14    12    11    1
    15     3     4    1
    16     3     2    1
    17    23    22    1
    18    14    18    2
    19     8    11    1
    20    11     2    1
    21    22    20    2
    22     2     1    1
    23    18    20    1
    24    18    19    1
    25    20    21    1
