@<TRIPOS>MOLECULE
2jec_XMM_A_1.pdb
 23 25 0 0 0
SMALL
GASTEIGER

@<TRIPOS>ATOM
      1  O2        15.6290  -16.4900  -35.3040 O.3   242  XMM242     -0.2135
      2  C2        16.1840  -15.8060  -34.1780 C.3   242  XMM242      0.2542
      3  C3        15.4150  -16.1760  -32.8870 C.3   242  XMM242      0.2211
      4  O3        14.0510  -15.8850  -33.0820 O.3   242  XMM242     -0.2173
      5  C4        15.6330  -17.6290  -32.4680 C.3   242  XMM242      0.2145
      6  O4        15.0550  -17.7950  -31.1570 O.3   242  XMM242     -0.2176
      7  C5        17.1540  -17.9560  -32.4480 C.3   242  XMM242      0.1846
      8  O5        17.8410  -17.5650  -33.6860 O.3   242  XMM242     -0.3157
      9  C6        17.5490  -19.3810  -32.2340 C.3   242  XMM242      0.2142
     10  O6        17.0290  -20.1980  -33.2860 O.3   242  XMM242     -0.2176
     11  C1        17.6820  -16.1510  -34.0080 C.3   242  XMM242      0.3219
     12  O1        18.2080  -15.2880  -32.9700 O.2   242  XMM242     -0.4488
     13  C7        19.5420  -15.4030  -32.7160 C.2   242  XMM242      0.1623
     14  C8        20.5700  -14.7620  -33.4010 C.2   242  XMM242      0.0609
     15  C9        21.7450  -15.1810  -32.7510 C.2   242  XMM242      0.0847
     16  N1        21.3980  -16.0010  -31.7630 N.2   242  XMM242     -0.2406
     17  C11       20.0680  -16.1450  -31.7370 C.2   242  XMM242      0.1357
     18  C10       20.6300  -13.8790  -34.4950 C.2   242  XMM242      0.0542
     19 CL         19.1960  -13.3530  -35.3310 Cl    242  XMM242     -0.0856
     20  C13       21.8820  -13.4310  -34.9360 C.3   242  XMM242      0.1119
     21 BR         21.9880  -12.2270  -36.4420 Br    242  XMM242     -0.0711
     22  C14       23.0410  -13.8450  -34.2830 C.2   242  XMM242     -0.0083
     23  C12       22.9880  -14.7070  -33.1790 C.2   242  XMM242      0.0158
@<TRIPOS>BOND
     1    21    20    1
     2    19    18    1
     3     1     2    1
     4    20    18    1
     5    20    22    1
     6    18    14    2
     7    22    23    2
     8     2    11    1
     9     2     3    1
    10    11     8    1
    11    11    12    1
    12     8     7    1
    13    14    15    1
    14    14    13    1
    15    10     9    1
    16    23    15    1
    17     4     3    1
    18    12    13    1
    19     3     5    1
    20    15    16    2
    21    13    17    2
    22     5     7    1
    23     5     6    1
    24     7     9    1
    25    16    17    1
