@<TRIPOS>MOLECULE
2jed_LG8_A_1.pdb
 34 39 0 0 0
SMALL
GASTEIGER

@<TRIPOS>ATOM
      1  CBD       56.9770   19.3370   -3.6640 C.3   1701  LG81701     0.0262
      2  CBB       57.0570   19.2290   -2.1140 C.3   1701  LG81701     0.1058
      3  NAW       57.6050   17.9160   -1.7340 N.ar  1701  LG81701    -0.3306
      4  CAV       57.4160   16.8130   -2.4200 C.ar  1701  LG81701     0.0378
      5  CAX       58.3650   17.6840   -0.6410 C.ar  1701  LG81701     0.0597
      6  CAY       58.7980   18.5860    0.3470 C.ar  1701  LG81701     0.0172
      7  CAZ       59.6060   18.0530    1.3740 C.ar  1701  LG81701     0.0015
      8  CAP       59.9480   16.6850    1.4070 C.ar  1701  LG81701     0.0001
      9  CAO       59.5210   15.8000    0.4140 C.ar  1701  LG81701     0.0015
     10  CAN       58.7090   16.3350   -0.6070 C.ar  1701  LG81701     0.0176
     11  CAM       58.0560   15.7720   -1.8430 C.ar  1701  LG81701     0.0257
     12  CAH       58.1590   14.3360   -2.2090 C.2   1701  LG81701     0.1085
     13  CAE       57.9410   13.2110   -1.2610 C.1   1701  LG81701     0.2158
     14  OAF       57.6190   13.3150   -0.0760 O.2   1701  LG81701    -0.2086
     15  NAD       58.1280   12.0370   -1.8890 N.2   1701  LG81701    -0.2576
     16  CAC       58.4780   12.3030   -3.1530 C.1   1701  LG81701     0.2158
     17  OAB       58.7360   11.4690   -4.0110 O.2   1701  LG81701    -0.2086
     18  CAG       58.5340   13.7550   -3.3790 C.2   1701  LG81701     0.1088
     19  CAL       58.8460   14.3260   -4.7070 C.ar  1701  LG81701     0.0313
     20  CAU       58.5150   13.7420   -5.8910 C.ar  1701  LG81701     0.0767
     21  CAK       59.5030   15.6410   -5.0420 C.ar  1701  LG81701     0.0180
     22  CAJ       60.0550   16.7250   -4.3330 C.ar  1701  LG81701     0.0015
     23  CAI       60.5660   17.7970   -5.0680 C.ar  1701  LG81701     0.0001
     24  CAQ       60.5290   17.7940   -6.4700 C.ar  1701  LG81701     0.0015
     25  CAR       59.9790   16.7200   -7.1750 C.ar  1701  LG81701     0.0172
     26  CAS       59.4680   15.6480   -6.4340 C.ar  1701  LG81701     0.0600
     27  NAT       58.8880   14.5080   -6.8890 N.ar  1701  LG81701    -0.3240
     28  CBA       58.7210   14.2090   -8.3020 C.3   1701  LG81701     0.1305
     29  CBF       56.1510   18.1600   -4.2590 C.3   1701  LG81701     0.0238
     30  CBG       56.1050   18.0640   -5.8230 C.3   1701  LG81701     0.0726
     31  NBH       56.0250   19.3420   -6.5890 N.3   1701  LG81701    -0.2703
     32  C6        56.6040   16.7760   -3.6930 C.3   1701  LG81701     0.0452
     33  CBI       57.3850   19.8780   -6.9510 C.3   1701  LG81701     0.0897
     34  CBJ       55.0480   19.3620   -7.7160 C.3   1701  LG81701     0.0897
@<TRIPOS>BOND
     1    28    27    1
     2    34    31    1
     3    25    24   ar
     4    25    26   ar
     5    33    31    1
     6    27    26   ar
     7    27    20   ar
     8    31    30    1
     9    24    23   ar
    10    26    21   ar
    11    20    19   ar
    12    30    29    1
    13    23    22   ar
    14    21    19   ar
    15    21    22   ar
    16    19    18    1
    17    29    32    1
    18    29     1    1
    19    17    16    2
    20    32     4    1
    21     1     2    1
    22    18    16    1
    23    18    12    2
    24    16    15    2
    25     4    11   ar
    26     4     3   ar
    27    12    11    1
    28    12    13    1
    29     2     3    1
    30    15    13    2
    31    11    10   ar
    32     3     5   ar
    33    13    14    2
    34     5    10   ar
    35     5     6   ar
    36    10     9   ar
    37     6     7   ar
    38     9     8   ar
    39     7     8   ar
