@<TRIPOS>MOLECULE
2jef_DGT_A_1.pdb
 31 33 0 0 0
SMALL
GASTEIGER

@<TRIPOS>ATOM
      1  PG        23.6980   39.4080    2.7530 P.3   1343  DGT1343     0.5373
      2  O1G       23.7350   38.0700    1.8590 O.2   1343  DGT1343    -0.2221
      3  O2G       22.7630   39.0430    4.0090 O.3   1343  DGT1343    -0.1143
      4  O3G       23.1810   40.5620    1.9840 O.3   1343  DGT1343    -0.1143
      5  O3B       25.2140   39.6090    3.2640 O.3   1343  DGT1343    -0.2258
      6  PB        25.6850   40.0700    4.7350 P.3   1343  DGT1343     0.2277
      7  O1B       24.6930   40.5700    5.7130 O.3   1343  DGT1343    -0.4368
      8  O2B       27.1030   40.4910    4.7130 O.2   1343  DGT1343    -0.5168
      9  O3A       25.8720   38.5580    5.2680 O.3   1343  DGT1343    -0.2700
     10  PA        25.1570   37.9110    6.5620 P.3   1343  DGT1343     0.2189
     11  O1A       25.4260   36.3280    6.4590 O.2   1343  DGT1343    -0.5170
     12  O2A       23.7080   38.1960    6.6520 O.3   1343  DGT1343    -0.4371
     13  O5'       25.9890   38.3820    7.8570 O.3   1343  DGT1343    -0.3112
     14  C5'       25.8170   39.6860    8.4160 C.3   1343  DGT1343     0.1812
     15  C4'       27.1680   40.1700    8.9420 C.3   1343  DGT1343     0.1772
     16  O4'       27.7640   39.1950    9.8110 O.3   1343  DGT1343    -0.3347
     17  C3'       28.1720   40.2700    7.7950 C.3   1343  DGT1343     0.1857
     18  O3'       27.9460   41.4830    7.0740 O.3   1343  DGT1343    -0.2203
     19  C2'       29.4300   40.4140    8.6470 C.3   1343  DGT1343     0.0865
     20  C1'       29.1940   39.3150    9.6860 C.3   1343  DGT1343     0.1981
     21  N9        29.7400   38.0200    9.2180 N.pl3 1343  DGT1343    -0.2374
     22  C8        29.1040   37.1060    8.4910 C.3   1343  DGT1343     0.2245
     23  N7        29.9200   36.0820    8.2480 N.2   1343  DGT1343    -0.2322
     24  C5        31.0870   36.3420    8.8280 C.2   1343  DGT1343     0.2182
     25  C6        32.2930   35.6490    8.9060 C.1   1343  DGT1343     0.2372
     26  O6        32.4350   34.5640    8.3480 O.2   1343  DGT1343    -0.2069
     27  N1        33.3540   36.2210    9.6190 N.2   1343  DGT1343    -0.2485
     28  C2        33.1810   37.4670   10.2320 C.1   1343  DGT1343     0.2531
     29  N2        34.1860   38.0050   10.9210 N.pl3 1343  DGT1343    -0.0226
     30  N3        32.0060   38.1050   10.1320 N.2   1343  DGT1343    -0.3074
     31  C4        30.9750   37.5780    9.4540 C.2   1343  DGT1343     0.2299
@<TRIPOS>BOND
     1     2     1    2
     2     4     1    1
     3     1     5    1
     4     1     3    1
     5     5     6    1
     6     8     6    2
     7     6     9    1
     8     6     7    1
     9     9    10    1
    10    11    10    2
    11    10    12    1
    12    10    13    1
    13    18    17    1
    14    17    19    1
    15    17    15    1
    16    13    14    1
    17    23    22    1
    18    23    24    2
    19    26    25    2
    20    14    15    1
    21    22    21    1
    22    19    20    1
    23    24    25    1
    24    24    31    1
    25    25    27    2
    26    15    16    1
    27    21    31    1
    28    21    20    1
    29    31    30    2
    30    27    28    2
    31    20    16    1
    32    30    28    2
    33    28    29    1
