@<TRIPOS>MOLECULE
2jeg_DGT_A_1.pdb
 31 33 0 0 0
SMALL
GASTEIGER

@<TRIPOS>ATOM
      1  PG        23.4380   39.6190    2.7710 P.3   1344  DGT1344     0.5373
      2  O1G       23.5240   38.2620    1.9130 O.2   1344  DGT1344    -0.2221
      3  O2G       22.5340   39.2410    4.0500 O.3   1344  DGT1344    -0.1143
      4  O3G       22.8580   40.7310    1.9870 O.3   1344  DGT1344    -0.1143
      5  O3B       24.9510   39.8990    3.2550 O.3   1344  DGT1344    -0.2258
      6  PB        25.3890   40.3770    4.7290 P.3   1344  DGT1344     0.2277
      7  O1B       24.3530   40.8750    5.6560 O.3   1344  DGT1344    -0.4368
      8  O2B       26.8160   40.7570    4.7980 O.2   1344  DGT1344    -0.5168
      9  O3A       25.5620   38.8580    5.2540 O.3   1344  DGT1344    -0.2700
     10  PA        24.8120   38.2120    6.5300 P.3   1344  DGT1344     0.2189
     11  O1A       24.9450   36.6270    6.3100 O.2   1344  DGT1344    -0.5170
     12  O2A       23.3900   38.5950    6.6500 O.3   1344  DGT1344    -0.4371
     13  O5'       25.6730   38.5920    7.8360 O.3   1344  DGT1344    -0.3112
     14  C5'       25.5170   39.8790    8.4380 C.3   1344  DGT1344     0.1812
     15  C4'       26.8600   40.4360    8.9120 C.3   1344  DGT1344     0.1772
     16  O4'       27.4970   39.5940    9.8880 O.3   1344  DGT1344    -0.3347
     17  C3'       27.8820   40.5690    7.7820 C.3   1344  DGT1344     0.1857
     18  O3'       27.6180   41.7770    7.0670 O.3   1344  DGT1344    -0.2203
     19  C2'       29.1270   40.7750    8.6370 C.3   1344  DGT1344     0.0865
     20  C1'       28.9220   39.6990    9.7100 C.3   1344  DGT1344     0.1981
     21  N9        29.4190   38.3940    9.2230 N.pl3 1344  DGT1344    -0.2374
     22  C8        28.7310   37.5100    8.4940 C.3   1344  DGT1344     0.2245
     23  N7        29.5080   36.4690    8.2170 N.2   1344  DGT1344    -0.2322
     24  C5        30.6990   36.6870    8.7750 C.2   1344  DGT1344     0.2182
     25  C6        31.8850   35.9540    8.8130 C.1   1344  DGT1344     0.2372
     26  O6        31.9810   34.8800    8.2220 O.2   1344  DGT1344    -0.2069
     27  N1        32.9770   36.4730    9.5100 N.2   1344  DGT1344    -0.2485
     28  C2        32.8600   37.7150   10.1570 C.1   1344  DGT1344     0.2531
     29  N2        33.8760   38.1950   10.8610 N.pl3 1344  DGT1344    -0.0226
     30  N3        31.7030   38.3920   10.0890 N.2   1344  DGT1344    -0.3074
     31  C4        30.6390   37.9070    9.4200 C.2   1344  DGT1344     0.2299
@<TRIPOS>BOND
     1     2     1    2
     2     4     1    1
     3     1     5    1
     4     1     3    1
     5     5     6    1
     6     6     8    2
     7     6     9    1
     8     6     7    1
     9     9    10    1
    10    11    10    2
    11    10    12    1
    12    10    13    1
    13    18    17    1
    14    17    19    1
    15    17    15    1
    16    13    14    1
    17    23    22    1
    18    23    24    2
    19    26    25    2
    20    14    15    1
    21    22    21    1
    22    19    20    1
    23    24    25    1
    24    24    31    1
    25    25    27    2
    26    15    16    1
    27    21    31    1
    28    21    20    1
    29    31    30    2
    30    27    28    2
    31    20    16    1
    32    30    28    2
    33    28    29    1
