@<TRIPOS>MOLECULE
2jei_DGT_A_1.pdb
 31 33 0 0 0
SMALL
GASTEIGER

@<TRIPOS>ATOM
      1  PG        23.6390   39.6740    2.7000 P.3   2475  DGT2475     0.5373
      2  O1G       24.1760   38.3210    2.0150 O.3   2475  DGT2475    -0.1143
      3  O2G       22.7410   39.1760    3.9380 O.3   2475  DGT2475    -0.1143
      4  O3G       22.8590   40.5110    1.7590 O.2   2475  DGT2475    -0.2221
      5  O3B       24.9640   40.4250    3.2280 O.3   2475  DGT2475    -0.2258
      6  PB        25.5710   40.3250    4.7180 P.3   2475  DGT2475     0.2277
      7  O1B       25.1510   41.3720    5.6760 O.3   2475  DGT2475    -0.4368
      8  O2B       26.8370   39.5650    4.7760 O.2   2475  DGT2475    -0.5168
      9  O3A       24.5670   39.1520    5.1840 O.3   2475  DGT2475    -0.2700
     10  PA        24.7400   38.2570    6.5150 P.3   2475  DGT2475     0.2189
     11  O1A       25.9770   37.2730    6.2200 O.2   2475  DGT2475    -0.5170
     12  O2A       23.5030   37.5010    6.8110 O.3   2475  DGT2475    -0.4371
     13  O5'       25.2320   39.2030    7.7200 O.3   2475  DGT2475    -0.3112
     14  C5'       26.4850   39.8310    7.4600 C.3   2475  DGT2475     0.1812
     15  C4'       27.1930   40.4660    8.6510 C.3   2475  DGT2475     0.1772
     16  O4'       27.5670   39.5090    9.6580 O.3   2475  DGT2475    -0.3347
     17  C3'       28.4870   40.8240    7.9230 C.3   2475  DGT2475     0.1857
     18  O3'       28.3510   42.1450    7.3920 O.3   2475  DGT2475    -0.2203
     19  C2'       29.4560   40.7950    9.1000 C.3   2475  DGT2475     0.0865
     20  C1'       29.0030   39.5000    9.7790 C.3   2475  DGT2475     0.1981
     21  N9        29.5500   38.2870    9.1250 N.pl3 2475  DGT2475    -0.2374
     22  C8        28.8940   37.4750    8.2990 C.3   2475  DGT2475     0.2245
     23  N7        29.6710   36.4460    7.9660 N.2   2475  DGT2475    -0.2322
     24  C5        30.8340   36.6040    8.5810 C.2   2475  DGT2475     0.2182
     25  C6        32.0140   35.8500    8.6040 C.1   2475  DGT2475     0.2372
     26  O6        32.0860   34.7840    8.0060 O.2   2475  DGT2475    -0.2069
     27  N1        33.0960   36.3140    9.3620 N.2   2475  DGT2475    -0.2485
     28  C2        32.9680   37.5110   10.0790 C.1   2475  DGT2475     0.2531
     29  N2        33.9970   37.9630   10.7900 N.pl3 2475  DGT2475    -0.0226
     30  N3        31.8170   38.2000   10.0380 N.2   2475  DGT2475    -0.3074
     31  C4        30.7670   37.7760    9.3170 C.2   2475  DGT2475     0.2299
@<TRIPOS>BOND
     1     4     1    2
     2     2     1    1
     3     1     5    1
     4     1     3    1
     5     5     6    1
     6     6     8    2
     7     6     9    1
     8     6     7    1
     9     9    10    1
    10    11    10    2
    11    10    12    1
    12    10    13    1
    13    18    17    1
    14    14    13    1
    15    14    15    1
    16    17    15    1
    17    17    19    1
    18    23    22    1
    19    23    24    2
    20    26    25    2
    21    22    21    1
    22    24    25    1
    23    24    31    1
    24    25    27    2
    25    15    16    1
    26    19    20    1
    27    21    31    1
    28    21    20    1
    29    31    30    2
    30    27    28    2
    31    16    20    1
    32    30    28    2
    33    28    29    1
