@<TRIPOS>MOLECULE
2jej_DGT_A_1.pdb
 31 33 0 0 0
SMALL
GASTEIGER

@<TRIPOS>ATOM
      1  PG        23.5770   39.6640    2.8350 P.3   1346  DGT1346     0.5373
      2  O1G       23.0620   40.9200    1.9700 O.3   1346  DGT1346    -0.1143
      3  O2G       23.6500   38.4230    1.8140 O.2   1346  DGT1346    -0.2221
      4  O3G       22.6750   39.3720    3.9710 O.3   1346  DGT1346    -0.1143
      5  O3B       25.1080   39.9630    3.2410 O.3   1346  DGT1346    -0.2258
      6  PB        25.6150   40.3990    4.7090 P.3   1346  DGT1346     0.2277
      7  O1B       24.6770   41.0720    5.6310 O.3   1346  DGT1346    -0.4368
      8  O2B       27.0740   40.6490    4.7040 O.2   1346  DGT1346    -0.5168
      9  O3A       25.6120   38.8880    5.2730 O.3   1346  DGT1346    -0.2700
     10  PA        24.9800   38.3490    6.6570 P.3   1346  DGT1346     0.2189
     11  O1A       25.1160   36.7530    6.5500 O.2   1346  DGT1346    -0.5170
     12  O2A       23.5710   38.7360    6.8770 O.3   1346  DGT1346    -0.4371
     13  O5'       25.9570   38.7680    7.8630 O.3   1346  DGT1346    -0.3112
     14  C5'       25.8170   40.0480    8.4830 C.3   1346  DGT1346     0.1812
     15  C4'       27.2020   40.5620    8.8720 C.3   1346  DGT1346     0.1772
     16  O4'       27.8840   39.6120    9.7080 O.3   1346  DGT1346    -0.3347
     17  C3'       28.0670   40.6620    7.6160 C.3   1346  DGT1346     0.1857
     18  O3'       27.7830   41.8960    6.9470 O.3   1346  DGT1346    -0.2203
     19  C2'       29.4290   40.7400    8.3020 C.3   1346  DGT1346     0.0865
     20  C1'       29.2840   39.6590    9.3780 C.3   1346  DGT1346     0.1981
     21  N9        29.6910   38.3190    8.8910 N.pl3 1346  DGT1346    -0.2374
     22  C8        28.9770   37.4870    8.1320 C.3   1346  DGT1346     0.2245
     23  N7        29.6800   36.3810    7.9010 N.2   1346  DGT1346    -0.2322
     24  C5        30.8550   36.5030    8.5150 C.2   1346  DGT1346     0.2182
     25  C6        31.9770   35.6880    8.6140 C.1   1346  DGT1346     0.2372
     26  O6        32.0290   34.6010    8.0410 O.2   1346  DGT1346    -0.2069
     27  N1        33.0750   36.1410    9.3570 N.2   1346  DGT1346    -0.2485
     28  C2        33.0230   37.3950    9.9780 C.1   1346  DGT1346     0.2531
     29  N2        34.0590   37.8320   10.6910 N.pl3 1346  DGT1346    -0.0226
     30  N3        31.9240   38.1510    9.8560 N.2   1346  DGT1346    -0.3074
     31  C4        30.8570   37.7380    9.1490 C.2   1346  DGT1346     0.2299
@<TRIPOS>BOND
     1     3     1    2
     2     2     1    1
     3     1     5    1
     4     1     4    1
     5     5     6    1
     6     8     6    2
     7     6     9    1
     8     6     7    1
     9     9    10    1
    10    11    10    2
    11    10    12    1
    12    10    13    1
    13    18    17    1
    14    17    19    1
    15    17    15    1
    16    13    14    1
    17    23    22    1
    18    23    24    2
    19    26    25    2
    20    22    21    1
    21    19    20    1
    22    14    15    1
    23    24    25    1
    24    24    31    1
    25    25    27    2
    26    15    16    1
    27    21    31    1
    28    21    20    1
    29    31    30    2
    30    27    28    2
    31    20    16    1
    32    30    28    2
    33    28    29    1
