@<TRIPOS>MOLECULE
2jen_GLC_A_1.pdb
 12 12 0 0 0
SMALL
GASTEIGER

@<TRIPOS>ATOM
      1  C1       -39.9550  -12.5870    2.7290 C.3   1267  GLC1267     0.3024
      2  C2       -40.1490  -11.4970    3.7800 C.3   1267  GLC1267     0.2434
      3  C3       -39.5980  -11.9920    5.0910 C.3   1267  GLC1267     0.2199
      4  C4       -40.3840  -13.2300    5.5100 C.3   1267  GLC1267     0.2144
      5  C5       -40.1730  -14.2480    4.3810 C.3   1267  GLC1267     0.1836
      6  C6       -40.7310  -15.6460    4.6750 C.3   1267  GLC1267     0.2142
      7  O1       -40.3780  -12.1980    1.4520 O.3   1267  GLC1267    -0.1869
      8  O2       -39.4730  -10.2840    3.5340 O.3   1267  GLC1267    -0.2148
      9  O3       -39.6480  -10.8630    5.9650 O.3   1267  GLC1267    -0.2174
     10  O4       -39.8580  -13.7750    6.7000 O.3   1267  GLC1267    -0.2176
     11  O5       -40.7040  -13.7130    3.1770 O.3   1267  GLC1267    -0.3236
     12  O6       -42.1000  -15.6040    5.0160 O.3   1267  GLC1267    -0.2176
@<TRIPOS>BOND
     1     7     1    1
     2     1    11    1
     3     1     2    1
     4    11     5    1
     5     8     2    1
     6     2     3    1
     7     5     6    1
     8     5     4    1
     9     6    12    1
    10     3     4    1
    11     3     9    1
    12     4    10    1
