@<TRIPOS>MOLECULE
2jen_BGC_A_1.pdb
 11 11 0 0 0
SMALL
GASTEIGER

@<TRIPOS>ATOM
      1  C2       -37.4440  -13.4190   18.6420 C.3   1270  BGC1270     0.2141
      2  C3       -37.6590  -13.5260   20.1490 C.3   1270  BGC1270     0.2173
      3  C4       -38.1490  -12.2080   20.7330 C.3   1270  BGC1270     0.2142
      4  C5       -39.3710  -11.7290   19.9670 C.3   1270  BGC1270     0.1810
      5  C6       -39.9300  -10.4190   20.5330 C.3   1270  BGC1270     0.2141
      6  C1       -38.6760  -12.8040   17.9760 C.3   1270  BGC1270     0.1777
      7  O2       -37.1400  -14.6990   18.0840 O.3   1270  BGC1270    -0.2176
      8  O3       -36.4530  -13.8840   20.7920 O.3   1270  BGC1270    -0.2175
      9  O4       -38.4370  -12.3890   22.1130 O.3   1270  BGC1270    -0.2176
     10  O5       -39.0270  -11.5790   18.6000 O.3   1270  BGC1270    -0.3481
     11  O6       -39.2340   -9.3120   19.9960 O.3   1270  BGC1270    -0.2176
@<TRIPOS>BOND
     1     6    10    1
     2     6     1    1
     3     7     1    1
     4    10     4    1
     5     1     2    1
     6     4     5    1
     7     4     3    1
     8    11     5    1
     9     2     3    1
    10     2     8    1
    11     3     9    1
