@<TRIPOS>MOLECULE
2jeq_BGC_A_1.pdb
 12 12 0 0 0
SMALL
GASTEIGER

@<TRIPOS>ATOM
      1  C2        27.1910   12.5870   15.3400 C.3   1396  BGC1396     0.2434
      2  C3        27.7050   11.1530   15.3840 C.3   1396  BGC1396     0.2199
      3  C4        27.0330   10.3430   16.5180 C.3   1396  BGC1396     0.2144
      4  C5        25.5040   10.5350   16.4730 C.3   1396  BGC1396     0.1836
      5  C6        24.6550    9.7690   17.5040 C.3   1396  BGC1396     0.2142
      6  C1        25.6790   12.4630   15.3220 C.3   1396  BGC1396     0.3024
      7  O1        25.0210   13.6630   15.0120 O.3   1396  BGC1396    -0.1869
      8  O2        27.6820   13.2600   14.1950 O.3   1396  BGC1396    -0.2148
      9  O3        29.0940   11.1850   15.5590 O.3   1396  BGC1396    -0.2174
     10  O4        27.3900    8.9840   16.3890 O.3   1396  BGC1396    -0.2176
     11  O5        25.3000   11.9400   16.5760 O.3   1396  BGC1396    -0.3236
     12  O6        25.0610   10.0610   18.8330 O.3   1396  BGC1396    -0.2176
@<TRIPOS>BOND
     1     8     1    1
     2     7     6    1
     3     6     1    1
     4     6    11    1
     5     1     2    1
     6     2     9    1
     7     2     3    1
     8    10     3    1
     9     4     3    1
    10     4    11    1
    11     4     5    1
    12     5    12    1
