@<TRIPOS>MOLECULE
2jeq_GAL_A_1.pdb
 11 11 0 0 0
SMALL
GASTEIGER

@<TRIPOS>ATOM
      1  C1        32.9670   11.0720   23.3740 C.3   1401  GAL1401     0.1777
      2  C2        32.9100   10.1780   24.6260 C.3   1401  GAL1401     0.2141
      3  C3        34.3130    9.9100   25.1780 C.3   1401  GAL1401     0.2173
      4  C4        35.3000    9.5350   24.0590 C.3   1401  GAL1401     0.2142
      5  C5        35.2460   10.6180   22.9800 C.3   1401  GAL1401     0.1810
      6  C6        36.2870   10.4410   21.8750 C.3   1401  GAL1401     0.2141
      7  O2        32.1110   10.8110   25.6120 O.3   1401  GAL1401    -0.2176
      8  O3        34.2990    8.8990   26.1750 O.3   1401  GAL1401    -0.2175
      9  O4        34.9630    8.2700   23.5060 O.3   1401  GAL1401    -0.2176
     10  O5        33.9390   10.6260   22.4400 O.3   1401  GAL1401    -0.3481
     11  O6        37.5020   10.9620   22.3550 O.3   1401  GAL1401    -0.2176
@<TRIPOS>BOND
     1     6    11    1
     2     6     5    1
     3    10     5    1
     4    10     1    1
     5     5     4    1
     6     1     2    1
     7     9     4    1
     8     4     3    1
     9     2     3    1
    10     2     7    1
    11     3     8    1
