@<TRIPOS>MOLECULE
2jew_720_A_1.pdb
 17 17 0 0 0
SMALL
GASTEIGER

@<TRIPOS>ATOM
      1  N         79.4660   16.3410   -0.6950 N.3   1310  7201310    -0.1314
      2  CA        80.3290   17.2560   -1.4440 C.3   1310  7201310     0.1093
      3  CG        80.1640   24.3510    3.2950 C.3   1310  7201310     0.2004
      4  CE1       82.9680   27.6400    2.1870 C.3   1310  7201310     0.0015
      5  CE2       82.2210   25.2580    2.5410 C.3   1310  7201310     0.0742
      6  CZ        82.0740   26.4970    1.6750 C.3   1310  7201310     0.0174
      7  CH        80.9250   18.3120   -0.4950 C.3   1310  7201310     0.0211
      8  CM        79.8310   19.3380   -0.0960 C.3   1310  7201310     0.0132
      9  CA2       80.3960   20.3740    0.8910 C.3   1310  7201310     0.1090
     10  CB2       79.2870   21.4050    1.2370 C.3   1310  7201310     0.0536
     11  CG2       79.9220   22.5910    1.9040 C.2   1310  7201310     0.0499
     12  CD3       81.0240   23.2840    1.6310 C.3   1310  7201310     0.1152
     13  N2        79.4760   23.3650    2.9890 N.2   1310  7201310    -0.2595
     14  C         80.9750   19.8280    2.1520 C.2   1310  7201310     0.3647
     15  N1        81.1310   24.3080    2.4560 N.3   1310  7201310    -0.2473
     16  O         82.2020   19.9810    2.3710 O.co2 1310  7201310    -0.2457
     17  OXT       80.2260   19.2290    2.9540 O.co2 1310  7201310    -0.2457
@<TRIPOS>BOND
     1     2     1    1
     2     2     7    1
     3     7     8    1
     4     8     9    1
     5     9    10    1
     6     9    14    1
     7    10    11    1
     8    12    11    1
     9    12    15    1
    10     6     4    1
    11     6     5    1
    12    11    13    2
    13    14    16   ar
    14    14    17   ar
    15    15     5    1
    16    15     3    1
    17    13     3    1
