@<TRIPOS>MOLECULE
2jey_HLO_A_1.pdb
 24 25 0 0 0
SMALL
GASTEIGER

@<TRIPOS>ATOM
      1  O3        37.6280   18.1470    9.4860 O.2   1543  HLO1543    -0.2667
      2  C14       37.4500   19.1450   10.1520 C.2   1543  HLO1543     0.2839
      3  N4        38.1950   19.3980   11.2320 N.am  1543  HLO1543    -0.0837
      4  C11       36.3610   20.0990    9.7810 C.2   1543  HLO1543     0.0553
      5  C10       36.1270   21.2380   10.5530 C.2   1543  HLO1543    -0.0000
      6  C9        35.1000   22.1150   10.2160 C.3   1543  HLO1543     0.1197
      7  N3        34.3410   21.8520    9.1500 N.pl3 1543  HLO1543    -0.2775
      8  C13       34.5490   20.7600    8.3910 C.2   1543  HLO1543     0.0635
      9  C12       35.5610   19.8490    8.6820 C.2   1543  HLO1543     0.0202
     10  C8        33.2770   22.7690    8.7720 C.3   1543  HLO1543     0.2421
     11  O2        32.3350   22.9920    9.8050 O.3   1543  HLO1543    -0.3136
     12  C7        31.0450   23.1970    9.2280 C.3   1543  HLO1543     0.2423
     13  N2        30.2140   22.1570    9.7890 N.pl3 1543  HLO1543    -0.2741
     14  C2        30.2990   20.9220    9.2770 C.3   1543  HLO1543     0.1424
     15  C1        31.1820   20.5740    8.1300 C.2   1543  HLO1543     0.1426
     16  N1        30.7960   20.6000    6.9260 N.2   1543  HLO1543    -0.0304
     17  O1        31.6850   20.2320    5.9380 O.2   1543  HLO1543    -0.1434
     18  C3        29.5380   19.8980    9.8320 C.2   1543  HLO1543     0.0012
     19  C4        28.6930   20.1510   10.9050 C.2   1543  HLO1543     0.0216
     20  C5        28.6380   21.4470   11.4310 C.2   1543  HLO1543     0.0172
     21  C6        29.4260   22.4470   10.8450 C.2   1543  HLO1543     0.0636
     22  C22       27.9090   19.0230   11.4630 C.2   1543  HLO1543     0.1447
     23  N5        28.5520   18.0210   11.9100 N.2   1543  HLO1543    -0.0278
     24  O4        27.9300   16.8880   12.4610 O.2   1543  HLO1543    -0.1431
@<TRIPOS>BOND
     1    17    16    1
     2    16    15    2
     3    15    14    1
     4     8     9    2
     5     8     7    1
     6     9     4    1
     7    10     7    1
     8    10    11    1
     9     7     6    1
    10    12    13    1
    11    12    11    1
    12    14    13    1
    13    14    18    1
    14     1     2    2
    15     4     2    1
    16     4     5    2
    17    13    21    1
    18    18    19    2
    19     2     3   am
    20     6     5    1
    21    21    20    2
    22    19    20    1
    23    19    22    1
    24    22    23    2
    25    23    24    1
