@<TRIPOS>MOLECULE
2jez_HLO_A_1.pdb
 24 25 0 0 0
SMALL
GASTEIGER

@<TRIPOS>ATOM
      1  O3        37.3390   17.8860    9.8840 O.2   1543  HLO1543    -0.2667
      2  C14       37.7120   19.0370    9.9370 C.2   1543  HLO1543     0.2839
      3  N4        38.9980   19.3410   10.0530 N.am  1543  HLO1543    -0.0837
      4  C11       36.6890   20.1180    9.9050 C.2   1543  HLO1543     0.0553
      5  C10       36.8200   21.2240   10.7370 C.2   1543  HLO1543    -0.0000
      6  C9        35.8510   22.2150   10.7030 C.3   1543  HLO1543     0.1197
      7  N3        34.8020   22.0920    9.8770 N.pl3 1543  HLO1543    -0.2775
      8  C13       34.6550   21.0240    9.0680 C.2   1543  HLO1543     0.0635
      9  C12       35.5970   20.0030    9.0590 C.2   1543  HLO1543     0.0202
     10  C8        33.7850   23.1390    9.8580 C.3   1543  HLO1543     0.2421
     11  O2        32.6600   22.6180    9.1670 O.3   1543  HLO1543    -0.3136
     12  C7        31.5230   23.4430    9.3160 C.3   1543  HLO1543     0.2423
     13  N2        30.4050   22.7120    9.9150 N.pl3 1543  HLO1543    -0.2741
     14  C2        29.7290   21.7550    9.2350 C.3   1543  HLO1543     0.1424
     15  C1        30.1070   21.4170    7.8290 C.2   1543  HLO1543     0.1426
     16  N1        31.1510   20.7580    7.5350 N.2   1543  HLO1543    -0.0304
     17  O1        31.4790   20.4670    6.2120 O.2   1543  HLO1543    -0.1434
     18  C3        28.6550   21.0940    9.8580 C.2   1543  HLO1543     0.0012
     19  C4        28.3000   21.4090   11.1820 C.2   1543  HLO1543     0.0216
     20  C5        29.0280   22.4050   11.8460 C.2   1543  HLO1543     0.0172
     21  C6        30.0720   23.0430   11.1780 C.2   1543  HLO1543     0.0636
     22  C22       27.1610   20.7320   11.8870 C.2   1543  HLO1543     0.1447
     23  N5        26.6900   21.1990   12.9860 N.2   1543  HLO1543    -0.0278
     24  O4        25.6200   20.6080   13.6750 O.2   1543  HLO1543    -0.1431
@<TRIPOS>BOND
     1    17    16    1
     2    16    15    2
     3    15    14    1
     4     9     8    2
     5     9     4    1
     6     8     7    1
     7    11    12    1
     8    11    10    1
     9    14    18    1
    10    14    13    1
    11    12    13    1
    12    18    19    2
    13    10     7    1
    14     7     6    1
    15     1     2    2
    16     4     2    1
    17     4     5    2
    18    13    21    1
    19     2     3   am
    20     6     5    1
    21    21    20    2
    22    19    20    1
    23    19    22    1
    24    22    23    2
    25    23    24    1
