@<TRIPOS>MOLECULE
2jf0_HBP_A_1.pdb
 25 26 0 0 0
SMALL
GASTEIGER

@<TRIPOS>ATOM
      1  C1        29.5600   22.3980   11.3260 C.3   1544  HBP1544     0.0911
      2  C5        30.8200   21.7170    9.1790 C.3   1544  HBP1544     0.0018
      3  O10       26.2190   20.5830    8.4540 O.3   1544  HBP1544    -0.1001
      4  N9        26.3850   20.4360    9.8190 N.4   1544  HBP1544    -0.0456
      5  C8A       27.0550   21.3430   10.3430 C.3   1544  HBP1544     0.1488
      6  C7        27.3290   21.3810   11.7760 C.3   1544  HBP1544     0.1153
      7  C6        26.3420   20.9040   12.6390 C.2   1544  HBP1544    -0.0052
      8  C4        27.7800   21.4390   14.4430 C.2   1544  HBP1544     0.0155
      9  C3        28.7320   21.9140   13.5390 C.2   1544  HBP1544     0.0616
     10  N2        28.5020   21.8780   12.2180 N.pl3 1544  HBP1544    -0.3030
     11  C2        29.4890   21.8510    9.9010 C.3   1544  HBP1544     0.0214
     12  C5A       26.5640   20.9320   13.9990 C.2   1544  HBP1544    -0.0016
     13  C8        31.7810   22.8310    9.5580 C.3   1544  HBP1544     0.0001
     14  C11       33.1630   22.4800    9.0500 C.3   1544  HBP1544     0.0018
     15  C14       34.2210   23.0830    9.9540 C.3   1544  HBP1544     0.0214
     16  C17       35.5540   22.7850    9.2970 C.3   1544  HBP1544     0.0911
     17  N20       36.3100   23.9990    8.9610 N.pl3 1544  HBP1544    -0.3023
     18  C21       35.8340   24.8240    7.9990 C.3   1544  HBP1544     0.1175
     19  C22       36.5140   25.9990    7.6420 C.2   1544  HBP1544    -0.0047
     20  C23       37.7110   26.3130    8.2970 C.2   1544  HBP1544    -0.0016
     21  C24       38.1880   25.4460    9.2860 C.2   1544  HBP1544     0.0159
     22  C25       37.4740   24.2780    9.6010 C.2   1544  HBP1544     0.0709
     23  C26       38.0130   23.3750   10.6570 C.2   1544  HBP1544     0.1594
     24  N27       37.8890   22.1190   10.6180 N.2   1544  HBP1544    -0.0265
     25  O28       38.3930   21.3330   11.6440 O.2   1544  HBP1544    -0.1431
@<TRIPOS>BOND
     1    19    18    1
     2    19    20    2
     3    18    17    1
     4    20    21    1
     5     3     4    1
     6    17    16    1
     7    17    22    1
     8    14    13    1
     9    14    15    1
    10     2    13    1
    11     2    11    1
    12    21    22    2
    13    16    15    1
    14    22    23    1
    15     4     5    1
    16    11     1    1
    17     5     6    1
    18    24    23    2
    19    24    25    1
    20     1    10    1
    21     6    10    1
    22     6     7    1
    23    10     9    1
    24     7    12    2
    25     9     8    2
    26    12     8    1
