@<TRIPOS>MOLECULE
2jf3_UD1_A_1.pdb
 39 41 0 0 0
SMALL
GASTEIGER

@<TRIPOS>ATOM
      1  C1'       30.1930   12.2930    1.6770 C.3   1263  UD11263     0.2633
      2  C2'       29.8930   13.1500    2.9210 C.3   1263  UD11263     0.1845
      3  C3'       28.7880   14.1870    2.6450 C.3   1263  UD11263     0.2094
      4  C4'       28.9830   14.9330    1.3090 C.3   1263  UD11263     0.2136
      5  C5'       29.3690   13.9790    0.1590 C.3   1263  UD11263     0.1834
      6  C6'       29.7240   14.7090   -1.1460 C.3   1263  UD11263     0.2142
      7  C7'       30.3510   11.7850    4.9340 C.2   1263  UD11263     0.2420
      8  C8'       29.7150   10.9080    6.0150 C.3   1263  UD11263     0.0964
      9  N2'       29.4900   12.2820    4.0430 N.am  1263  UD11263    -0.1992
     10  O1'       29.0810   11.4250    1.3630 O.3   1263  UD11263    -0.2864
     11  O3'       28.7530   15.1370    3.7140 O.3   1263  UD11263    -0.2183
     12  O4'       27.7730   15.6220    0.9800 O.3   1263  UD11263    -0.2176
     13  O5'       30.4980   13.1480    0.5460 O.3   1263  UD11263    -0.3260
     14  O6'       31.0230   15.3030   -1.0400 O.3   1263  UD11263    -0.2176
     15  O7'       31.5660   11.9880    4.9250 O.2   1263  UD11263    -0.2733
     16  N1        29.9660    3.8140    2.5500 N.am  1263  UD11263    -0.1766
     17  C2        29.0630    2.7280    2.5880 C.1   1263  UD11263     0.2845
     18  N3        28.2370    2.4720    1.4800 N.2   1263  UD11263    -0.2452
     19  C4        28.3050    3.2930    0.3420 C.1   1263  UD11263     0.2182
     20  C5        29.1920    4.3670    0.3050 C.2   1263  UD11263     0.1242
     21  C6        30.0140    4.6280    1.3980 C.2   1263  UD11263     0.0929
     22  O2        28.9880    1.9960    3.5760 O.2   1263  UD11263    -0.1918
     23  O4        27.5800    3.0640   -0.6240 O.2   1263  UD11263    -0.2085
     24  C1B       30.8490    4.1100    3.7190 C.3   1263  UD11263     0.2401
     25  C2B       32.3190    4.3760    3.3730 C.3   1263  UD11263     0.2319
     26  O2'       33.0750    3.1680    3.5120 O.3   1263  UD11263    -0.2157
     27  C3B       32.7520    5.3960    4.4280 C.3   1263  UD11263     0.2158
     28  C4B       31.4630    6.1480    4.7810 C.3   1263  UD11263     0.1799
     29  O4B       30.3450    5.3370    4.3190 O.3   1263  UD11263    -0.3320
     30  O3B       33.2510    4.7350    5.5980 O.3   1263  UD11263    -0.2175
     31  C5B       31.4220    7.5120    4.0680 C.3   1263  UD11263     0.1813
     32  O5B       30.8810    7.3650    2.7480 O.3   1263  UD11263    -0.3112
     33  PA        31.1000    8.4570    1.5880 P.3   1263  UD11263     0.2189
     34  O1A       31.4480    7.7430    0.3430 O.2   1263  UD11263    -0.5170
     35  O2A       31.9890    9.5310    2.0840 O.3   1263  UD11263    -0.4371
     36  O3A       29.6030    9.0160    1.4330 O.3   1263  UD11263    -0.2703
     37  PB        29.2460   10.1690    0.3700 P.3   1263  UD11263     0.2208
     38  O1B       27.9200    9.8590   -0.2050 O.3   1263  UD11263    -0.4371
     39  O2B       30.3980   10.3770   -0.5370 O.2   1263  UD11263    -0.5170
@<TRIPOS>BOND
     1     6    14    1
     2     6     5    1
     3    23    19    2
     4    39    37    2
     5    38    37    1
     6     5    13    1
     7     5     4    1
     8    20    19    1
     9    20    21    2
    10    19    18    2
    11    34    33    2
    12    37    10    1
    13    37    36    1
    14    13     1    1
    15    12     4    1
    16     4     3    1
    17    10     1    1
    18    21    16    1
    19    36    33    1
    20    18    17    2
    21    33    35    1
    22    33    32    1
    23     1     2    1
    24    16    17   am
    25    16    24    1
    26    17    22    2
    27     3     2    1
    28     3    11    1
    29    32    31    1
    30     2     9    1
    31    25    26    1
    32    25    24    1
    33    25    27    1
    34    24    29    1
    35     9     7   am
    36    31    28    1
    37    29    28    1
    38    27    28    1
    39    27    30    1
    40    15     7    2
    41     7     8    1
