@<TRIPOS>MOLECULE
2jf4_VDM_A_1.pdb
 23 24 0 0 0
SMALL
GASTEIGER

@<TRIPOS>ATOM
      1  O7        29.3480   51.1170   15.0070 O.3   1548  VDM1548    -0.2155
      2  C7        30.4530   51.0700   14.1080 C.3   1548  VDM1548     0.2066
      3  C5        30.1730   52.1660   13.1190 C.2   1548  VDM1548     0.0180
      4  C6        29.6470   51.8400   11.9170 C.2   1548  VDM1548    -0.0100
      5  C4        30.4060   53.5980   13.5600 C.3   1548  VDM1548     0.2053
      6  O4        31.6810   53.8010   14.1500 O.3   1548  VDM1548    -0.2157
      7  C3        30.2820   54.5860   12.4220 C.3   1548  VDM1548     0.2179
      8  O3        30.2030   55.8860   13.0200 O.3   1548  VDM1548    -0.2172
      9  C2        29.0530   54.2270   11.5790 C.3   1548  VDM1548     0.2049
     10  O2        28.7160   55.3020   10.6960 O.3   1548  VDM1548    -0.2184
     11  C1        29.3270   52.8890   10.8540 C.3   1548  VDM1548     0.1272
     12  N1'       30.4380   52.9570    9.8930 N.3   1548  VDM1548    -0.2111
     13  C1'       31.1980   51.7480    9.5260 C.3   1548  VDM1548     0.1063
     14  C2'       32.6950   51.9990    9.3400 C.3   1548  VDM1548     0.2005
     15  O2'       33.2030   52.8780   10.3480 O.3   1548  VDM1548    -0.2188
     16  C6'       30.5730   50.9450    8.3630 C.3   1548  VDM1548     0.0253
     17  C5'       31.0630   51.3040    6.9550 C.3   1548  VDM1548     0.0675
     18  C7'       30.5460   50.3000    5.9240 C.3   1548  VDM1548     0.1847
     19  O7'       29.1050   50.2800    5.9320 O.3   1548  VDM1548    -0.2203
     20  C4'       32.5910   51.4640    6.9100 C.3   1548  VDM1548     0.1872
     21  O4'       33.0270   51.8160    5.5890 O.3   1548  VDM1548    -0.2202
     22  C3'       33.0170   52.5180    7.9340 C.3   1548  VDM1548     0.2136
     23  O3'       34.4160   52.7770    7.7980 O.3   1548  VDM1548    -0.2176
@<TRIPOS>BOND
     1    21    20    1
     2    18    19    1
     3    18    17    1
     4    20    17    1
     5    20    22    1
     6    17    16    1
     7    23    22    1
     8    22    14    1
     9    16    13    1
    10    14    13    1
    11    14    15    1
    12    13    12    1
    13    12    11    1
    14    10     9    1
    15    11     9    1
    16    11     4    1
    17     9     7    1
    18     4     3    2
    19     7     8    1
    20     7     5    1
    21     3     5    1
    22     3     2    1
    23     5     6    1
    24     2     1    1
