@<TRIPOS>MOLECULE
2jf6_S55_A_1.pdb
 38 42 0 0 0
SMALL
GASTEIGER

@<TRIPOS>ATOM
      1  O24       47.0060   72.4860    8.4090 O.2   1509  S551509    -0.2500
      2  C21       46.1730   72.4800    9.3140 C.2   1509  S551509     0.3190
      3  O22       46.6880   72.4220   10.6660 O.3   1509  S551509    -0.4443
      4  C23       45.8680   72.7640   11.8000 C.3   1509  S551509     0.2556
      5  C20       44.7050   72.5320    9.1020 C.3   1509  S551509     0.1288
      6  C19       43.8900   72.6670   10.1640 C.3   1509  S551509     0.1558
      7  O18       42.4640   72.4140   10.0520 O.3   1509  S551509    -0.3299
      8  C17       41.7640   72.6070    8.8250 C.3   1509  S551509     0.2369
      9  O27       40.7980   73.6370    8.9780 O.3   1509  S551509    -0.3037
     10  C28       39.5000   73.1570    9.2310 C.3   1509  S551509     0.2713
     11  O33       39.5180   71.9110    8.5670 O.3   1509  S551509    -0.3256
     12  C32       38.2710   71.3630    8.2270 C.3   1509  S551509     0.1835
     13  C33       38.6910   70.0760    7.5430 C.3   1509  S551509     0.2142
     14  O34       40.1180   69.9180    7.6930 O.3   1509  S551509    -0.2176
     15  C31       37.6230   72.3770    7.2940 C.3   1509  S551509     0.2144
     16  O35       36.3640   71.9220    6.8460 O.3   1509  S551509    -0.2176
     17  C30       37.3070   73.6670    7.9970 C.3   1509  S551509     0.2198
     18  O36       36.9830   74.6300    7.0240 O.3   1509  S551509    -0.2174
     19  C29       38.5140   74.2160    8.7010 C.3   1509  S551509     0.2406
     20  O37       37.9750   74.9640    9.8020 O.3   1509  S551509    -0.2149
     21  C16       42.6880   73.0990    7.7270 C.3   1509  S551509     0.0572
     22  C25       41.9460   72.9500    6.4130 C.3   1509  S551509     0.0050
     23  C26       42.7540   73.7150    5.4000 C.3   1509  S551509     0.0002
     24  C15       44.0810   72.4560    7.7270 C.3   1509  S551509     0.0197
     25  C14       44.0230   71.0220    7.2130 C.3   1509  S551509     0.0254
     26  C13       45.3550   70.3010    7.2080 C.3   1509  S551509     0.1243
     27  N12       46.3840   70.9180    6.3910 N.3   1509  S551509    -0.2120
     28  C11       47.6120   70.1740    6.1400 C.3   1509  S551509     0.0939
     29  C10       47.4180   68.7640    5.5890 C.3   1509  S551509     0.0475
     30  C7        45.9940   68.3240    5.8410 C.2   1509  S551509     0.0085
     31  C8        45.0710   69.0280    6.5780 C.2   1509  S551509     0.1208
     32  C5        45.3270   67.1940    5.4100 C.ar  1509  S551509     0.0278
     33  C4        44.0240   67.2470    5.8990 C.ar  1509  S551509     0.1308
     34  N9        43.8980   68.3850    6.6090 N.2   1509  S551509    -0.4052
     35  C6        45.7640   66.1290    4.6320 C.ar  1509  S551509     0.0023
     36  C1        44.8540   65.1060    4.3570 C.ar  1509  S551509     0.0002
     37  C2        43.5410   65.1380    4.8440 C.ar  1509  S551509     0.0026
     38  C3        43.1180   66.2150    5.6180 C.ar  1509  S551509     0.0320
@<TRIPOS>BOND
     1    36    35   ar
     2    36    37   ar
     3    35    32   ar
     4    37    38   ar
     5    23    22    1
     6    32    30    2
     7    32    33   ar
     8    29    30    1
     9    29    28    1
    10    38    33   ar
    11    30    31    1
    12    33    34    2
    13    28    27    1
    14    27    26    1
    15    22    21    1
    16    31    34    2
    17    31    26    1
    18    16    15    1
    19    18    17    1
    20    26    25    1
    21    25    24    1
    22    15    17    1
    23    15    12    1
    24    13    14    1
    25    13    12    1
    26    21    24    1
    27    21     8    1
    28    24     5    1
    29    17    19    1
    30    12    11    1
    31     1     2    2
    32    11    10    1
    33    19    10    1
    34    19    20    1
    35     8     9    1
    36     8     7    1
    37     9    10    1
    38     5     2    1
    39     5     6    1
    40     2     3    1
    41     7     6    1
    42     3     4    1
