@<TRIPOS>MOLECULE
2jf9_OHT_A_1.pdb
 29 31 0 0 0
SMALL
GASTEIGER

@<TRIPOS>ATOM
      1  C10       70.9210   37.2450   20.0740 C.3   600  OHT600      0.0050
      2  C9        69.7090   37.7940   19.3450 C.3   600  OHT600      0.0264
      3  C8        68.8780   36.7120   18.6320 C.2   600  OHT600     -0.0222
      4  C11       68.6140   35.5140   19.3530 C.ar  600  OHT600     -0.0040
      5  C16       69.1930   34.3200   18.8880 C.ar  600  OHT600     -0.0003
      6  C15       69.0340   33.0960   19.5440 C.ar  600  OHT600     -0.0000
      7  C14       68.3130   33.0550   20.7340 C.ar  600  OHT600     -0.0000
      8  C13       67.7530   34.2440   21.2200 C.ar  600  OHT600     -0.0000
      9  C12       67.9100   35.4580   20.5500 C.ar  600  OHT600     -0.0003
     10  C7        68.4500   36.9030   17.3000 C.2   600  OHT600     -0.0040
     11  C1        68.7790   38.0140   16.4990 C.ar  600  OHT600     -0.0001
     12  C2        67.8240   38.7310   15.7760 C.ar  600  OHT600      0.0033
     13  C3        68.1840   39.7730   14.9330 C.ar  600  OHT600      0.0420
     14  C4        69.5220   40.0840   14.7300 C.ar  600  OHT600      0.1957
     15  O4        69.8560   41.0950   13.8790 O.3   600  OHT600     -0.2866
     16  C5        70.4820   39.3660   15.4010 C.ar  600  OHT600      0.0420
     17  C6        70.1170   38.3310   16.2680 C.ar  600  OHT600      0.0033
     18  C17       67.6750   35.9210   16.6260 C.ar  600  OHT600     -0.0001
     19  C18       68.1010   35.3490   15.4330 C.ar  600  OHT600      0.0031
     20  C19       67.3470   34.3970   14.7730 C.ar  600  OHT600      0.0369
     21  C20       66.1070   34.0040   15.2490 C.ar  600  OHT600      0.1386
     22  O20       65.4460   33.0290   14.5450 O.3   600  OHT600     -0.4740
     23  C23       64.0700   33.0510   14.3440 C.3   600  OHT600      0.2226
     24  C24       63.7520   31.7290   13.6480 C.3   600  OHT600      0.1201
     25  N24       63.6830   31.8900   12.1810 N.3   600  OHT600     -0.2672
     26  C25       65.0310   31.9480   11.6040 C.3   600  OHT600      0.0898
     27  C26       62.9710   30.7160   11.6250 C.3   600  OHT600      0.0898
     28  C21       65.6360   34.5760   16.4320 C.ar  600  OHT600      0.0369
     29  C22       66.4130   35.5300   17.1120 C.ar  600  OHT600      0.0031
@<TRIPOS>BOND
     1    26    25    1
     2    27    25    1
     3    25    24    1
     4    24    23    1
     5    15    14    1
     6    23    22    1
     7    22    21    1
     8    14    13   ar
     9    14    16   ar
    10    20    21   ar
    11    20    19   ar
    12    13    12   ar
    13    21    28   ar
    14    16    17   ar
    15    19    18   ar
    16    12    11   ar
    17    17    11   ar
    18    28    29   ar
    19    11    10    1
    20    18    29   ar
    21    18    10    1
    22    10     3    2
    23     3     2    1
    24     3     4    1
    25     5     4   ar
    26     5     6   ar
    27     2     1    1
    28     4     9   ar
    29     6     7   ar
    30     9     8   ar
    31     7     8   ar
