@<TRIPOS>MOLECULE
2jfa_RAL_A_1.pdb
 34 38 0 0 0
SMALL
GASTEIGER

@<TRIPOS>ATOM
      1  C1       -35.1830   44.6710   -1.2360 C.ar  600  RAL600      0.0039
      2  C2       -36.0880   45.6920   -0.9970 C.ar  600  RAL600      0.0421
      3  C3       -37.4430   45.5280   -1.2530 C.ar  600  RAL600      0.1962
      4  O3       -38.2900   46.5600   -1.0040 O.3   600  RAL600     -0.2866
      5  C4       -37.9320   44.3160   -1.7510 C.ar  600  RAL600      0.0485
      6  C5       -37.0540   43.2680   -1.9960 C.ar  600  RAL600      0.0327
      7  S6       -37.5130   41.7690   -2.6360 S.2   600  RAL600     -0.0867
      8  C7       -35.9080   41.1790   -2.5530 C.ar  600  RAL600      0.0325
      9  C8       -35.6160   39.8210   -3.0600 C.ar  600  RAL600      0.0063
     10  C9       -34.7840   38.9730   -2.3520 C.ar  600  RAL600      0.0038
     11  C10      -34.4660   37.7160   -2.8470 C.ar  600  RAL600      0.0420
     12  C11      -34.9490   37.3090   -4.0840 C.ar  600  RAL600      0.1957
     13  O11      -34.6040   36.0750   -4.5720 O.3   600  RAL600     -0.2866
     14  C12      -35.7720   38.1740   -4.8130 C.ar  600  RAL600      0.0420
     15  C13      -36.0950   39.4350   -4.3080 C.ar  600  RAL600      0.0038
     16  C14      -35.6410   43.4710   -1.7200 C.ar  600  RAL600      0.0098
     17  C15      -34.9870   42.2110   -2.0870 C.ar  600  RAL600      0.0454
     18  C16      -33.5310   42.0180   -1.9340 C.2   600  RAL600      0.1960
     19  O16      -32.8350   41.9720   -2.9230 O.2   600  RAL600     -0.2866
     20  C17      -32.9310   41.8340   -0.5840 C.ar  600  RAL600      0.0392
     21  C18      -33.7450   41.5550    0.4920 C.ar  600  RAL600      0.0063
     22  C19      -33.1970   41.3750    1.7460 C.ar  600  RAL600      0.0370
     23  C20      -31.8280   41.4690    1.9390 C.ar  600  RAL600      0.1386
     24  C21      -30.9980   41.7440    0.8590 C.ar  600  RAL600      0.0370
     25  C22      -31.5580   41.9220   -0.4030 C.ar  600  RAL600      0.0063
     26  O23      -31.3740   41.2630    3.2020 O.3   600  RAL600     -0.4740
     27  C24      -30.0420   41.5210    3.6460 C.3   600  RAL600      0.2226
     28  C25      -29.8920   40.9400    5.0440 C.3   600  RAL600      0.1200
     29  N26      -30.4090   41.8920    6.0470 N.3   600  RAL600     -0.2696
     30  C27      -31.8880   41.8220    6.1220 C.3   600  RAL600      0.0722
     31  C28      -32.4910   42.4250    7.3870 C.3   600  RAL600      0.0174
     32  C29      -31.7410   41.9950    8.6350 C.3   600  RAL600      0.0029
     33  C30      -30.2850   42.3940    8.4690 C.3   600  RAL600      0.0174
     34  C31      -29.7150   41.5830    7.3200 C.3   600  RAL600      0.0722
@<TRIPOS>BOND
     1    14    15   ar
     2    14    12   ar
     3    13    12    1
     4    15     9   ar
     5    12    11   ar
     6     9     8    1
     7     9    10   ar
     8    19    18    2
     9    11    10   ar
    10     7     8   ar
    11     7     6   ar
    12     8    17   ar
    13    17    18    1
    14    17    16   ar
    15     6     5   ar
    16     6    16   ar
    17    18    20    1
    18     5     3   ar
    19    16     1   ar
    20     3     4    1
    21     3     2   ar
    22     1     2   ar
    23    20    25   ar
    24    20    21   ar
    25    25    24   ar
    26    21    22   ar
    27    24    23   ar
    28    22    23   ar
    29    23    26    1
    30    26    27    1
    31    27    28    1
    32    28    29    1
    33    29    30    1
    34    29    34    1
    35    30    31    1
    36    34    33    1
    37    31    32    1
    38    33    32    1
