@<TRIPOS>MOLECULE
2jff_LK2_A_1.pdb
 28 29 0 0 0
SMALL
GASTEIGER

@<TRIPOS>ATOM
      1  O32      -22.0190    5.6770   19.3350 O.2   1440  LK21440    -0.1516
      2  S11      -21.9440    4.5360   18.4290 S.O2  1440  LK21440     0.0773
      3  O33      -21.5980    4.9850   17.0550 O.2   1440  LK21440    -0.1516
      4  N        -23.4250    3.8850   18.3550 N.3   1440  LK21440    -0.0677
      5  CA       -24.2530    3.7370   19.5640 C.3   1440  LK21440     0.2007
      6  C        -24.9150    5.0380   20.0050 C.2   1440  LK21440     0.3822
      7  O        -25.2850    5.8350   19.1220 O.co2 1440  LK21440    -0.2440
      8  OXT      -25.0870    5.2830   21.2310 O.co2 1440  LK21440    -0.2440
      9  CB       -25.3040    2.6510   19.2910 C.3   1440  LK21440     0.0427
     10  CG       -26.3460    2.5600   20.4160 C.3   1440  LK21440     0.1161
     11  CD       -27.2290    1.3350   20.2880 C.2   1440  LK21440     0.3649
     12  OE2      -28.0300    1.1560   21.2340 O.co2 1440  LK21440    -0.2457
     13  OE1      -27.1460    0.5700   19.2940 O.co2 1440  LK21440    -0.2457
     14  C12      -20.8850    3.4240   18.9710 C.ar  1440  LK21440     0.1236
     15  C13      -20.6850    3.2660   20.3470 C.ar  1440  LK21440     0.0200
     16  C14      -19.7860    2.3120   20.8480 C.ar  1440  LK21440     0.0015
     17  C15      -19.0670    1.4980   19.9670 C.ar  1440  LK21440     0.0031
     18  C16      -19.2560    1.6350   18.5730 C.ar  1440  LK21440     0.0015
     19  C17      -20.1750    2.5890   18.0920 C.ar  1440  LK21440     0.0200
     20  C21      -18.1690    0.5510   20.4830 C.ar  1440  LK21440     0.0369
     21  C20      -17.4530   -0.2710   19.5830 C.ar  1440  LK21440     0.1386
     22  C19      -17.6290   -0.1490   18.1910 C.ar  1440  LK21440     0.0369
     23  C18      -18.5380    0.8140   17.6750 C.ar  1440  LK21440     0.0032
     24  O22      -16.5530   -1.2000   20.0870 O.3   1440  LK21440    -0.4755
     25  C23      -15.9440   -1.0340   21.3780 C.3   1440  LK21440     0.2054
     26  C24      -14.5000   -1.5200   21.3490 C.3   1440  LK21440     0.0473
     27  C29      -13.5990   -0.6210   20.5160 C.3   1440  LK21440     0.0038
     28  C44      -12.1790   -1.1210   20.6040 C.3   1440  LK21440     0.0001
@<TRIPOS>BOND
     1     3     2    2
     2    23    22   ar
     3    23    18   ar
     4    19    18   ar
     5    19    14   ar
     6    22    21   ar
     7     4     2    1
     8     4     5    1
     9     2    14    1
    10     2     1    2
    11    18    17   ar
    12    14    15   ar
    13     7     6   ar
    14     9     5    1
    15     9    10    1
    16    13    11   ar
    17     5     6    1
    18    21    24    1
    19    21    20   ar
    20    17    20   ar
    21    17    16   ar
    22     6     8   ar
    23    24    25    1
    24    11    10    1
    25    11    12   ar
    26    15    16   ar
    27    27    28    1
    28    27    26    1
    29    26    25    1
