@<TRIPOS>MOLECULE
2jfg_ADP_A_1.pdb
 27 29 0 0 0
SMALL
GASTEIGER

@<TRIPOS>ATOM
      1  PB        24.7720    3.0470   12.7940 P.3   1441  ADP1441     0.5373
      2  O1B       25.3460    2.7370   14.1650 O.3   1441  ADP1441    -0.1143
      3  O2B       23.3780    3.6060   12.8290 O.3   1441  ADP1441    -0.1143
      4  O3B       25.7700    3.7690   11.8900 O.2   1441  ADP1441    -0.2221
      5  PA        25.2640    0.2830   11.7270 P.3   1441  ADP1441     0.2231
      6  O1A       24.8030   -0.2180   10.4120 O.2   1441  ADP1441    -0.5169
      7  O2A       26.7210    0.4150   12.0950 O.3   1441  ADP1441    -0.4370
      8  O3A       24.5520    1.7100   11.8980 O.3   1441  ADP1441    -0.2261
      9  O5'       24.5210   -0.4780   12.9170 O.3   1441  ADP1441    -0.3111
     10  C5'       25.1320   -0.3320   14.2100 C.3   1441  ADP1441     0.1813
     11  C4'       24.5060   -1.2980   15.1760 C.3   1441  ADP1441     0.1821
     12  O4'       23.1040   -1.4550   14.9030 O.3   1441  ADP1441    -0.3135
     13  C3'       25.1230   -2.6650   14.9720 C.3   1441  ADP1441     0.2184
     14  O3'       25.3430   -3.1560   16.2910 O.3   1441  ADP1441    -0.2174
     15  C2'       24.0430   -3.4520   14.2140 C.3   1441  ADP1441     0.2570
     16  O2'       24.0090   -4.8560   14.5050 O.3   1441  ADP1441    -0.2130
     17  C1'       22.7240   -2.8210   14.6190 C.3   1441  ADP1441     0.3186
     18  N9        21.7370   -2.6730   13.5180 N.pl3 1441  ADP1441    -0.1439
     19  C8        21.9500   -2.7230   12.1850 C.3   1441  ADP1441     0.3377
     20  N7        20.7740   -2.5110   11.4970 N.2   1441  ADP1441    -0.2095
     21  C5        19.8070   -2.2780   12.4000 C.2   1441  ADP1441     0.2526
     22  C6        18.3510   -1.9600   12.3780 C.2   1441  ADP1441     0.4393
     23  N6        17.7190   -1.8330   11.1940 N.pl3 1441  ADP1441     0.2180
     24  N1        17.7010   -1.8080   13.5700 N.2   1441  ADP1441     0.0021
     25  C2        18.3700   -1.9340   14.7370 C.3   1441  ADP1441     0.5254
     26  N3        19.6990   -2.1990   14.8370 N.2   1441  ADP1441    -0.0055
     27  C4        20.4510   -2.3850   13.7270 C.2   1441  ADP1441     0.3518
@<TRIPOS>BOND
     1     6     5    2
     2    23    22    1
     3    20    19    1
     4    20    21    2
     5     5     8    1
     6     5     7    1
     7     5     9    1
     8     4     1    2
     9     8     1    1
    10    19    18    1
    11    22    21    1
    12    22    24    2
    13    21    27    1
    14     1     3    1
    15     1     2    1
    16     9    10    1
    17    18    27    1
    18    18    17    1
    19    24    25    1
    20    27    26    2
    21    10    11    1
    22    15    16    1
    23    15    17    1
    24    15    13    1
    25    17    12    1
    26    25    26    1
    27    12    11    1
    28    13    11    1
    29    13    14    1
