@<TRIPOS>MOLECULE
2jfg_UMA_A_1.pdb
 49 51 0 0 0
SMALL
GASTEIGER

@<TRIPOS>ATOM
      1  N1        33.1490   17.5340   22.5790 N.am  1440  UMA1440    -0.1766
      2  C2        33.2940   18.3700   23.7050 C.1   1440  UMA1440     0.2845
      3  N3        33.5140   19.6890   23.5240 N.2   1440  UMA1440    -0.2452
      4  C4        33.6440   20.2120   22.2850 C.1   1440  UMA1440     0.2182
      5  C5        33.5000   19.4120   21.1510 C.2   1440  UMA1440     0.1242
      6  C6        33.2460   18.0590   21.3290 C.2   1440  UMA1440     0.0929
      7  O2        33.1810   17.8860   24.8580 O.2   1440  UMA1440    -0.1918
      8  O4        33.8800   21.4300   22.1520 O.2   1440  UMA1440    -0.2085
      9  C1B       32.9030   16.0990   22.8050 C.3   1440  UMA1440     0.2401
     10  C2B       31.5560   15.6400   22.2650 C.3   1440  UMA1440     0.2319
     11  O2'       30.4760   15.7880   23.1910 O.3   1440  UMA1440    -0.2157
     12  C3B       31.7860   14.2090   21.8590 C.3   1440  UMA1440     0.2158
     13  C4B       33.2580   14.2120   21.4830 C.3   1440  UMA1440     0.1799
     14  O4B       33.8510   15.4070   22.0140 O.3   1440  UMA1440    -0.3320
     15  O3B       31.6040   13.3490   22.9910 O.3   1440  UMA1440    -0.2175
     16  C5B       33.4900   14.1490   19.9820 C.3   1440  UMA1440     0.1813
     17  O5B       32.8110   15.2270   19.3190 O.3   1440  UMA1440    -0.3112
     18  PA        33.3270   15.7390   17.8870 P.3   1440  UMA1440     0.2189
     19  O1A       32.2160   16.5830   17.2850 O.2   1440  UMA1440    -0.5170
     20  O2A       34.7100   16.2770   17.9530 O.3   1440  UMA1440    -0.4371
     21  O3A       33.3830   14.3340   17.1250 O.3   1440  UMA1440    -0.2703
     22  PB        34.3290   13.8850   15.9150 P.3   1440  UMA1440     0.2208
     23  O1B       35.5730   13.2290   16.4540 O.3   1440  UMA1440    -0.4371
     24  O2B       34.4280   15.0230   14.9650 O.2   1440  UMA1440    -0.5170
     25  O1'       33.4440   12.7130   15.3130 O.3   1440  UMA1440    -0.2864
     26  C1'       32.1940   13.0910   14.7450 C.3   1440  UMA1440     0.2632
     27  C2'       31.1320   12.0530   15.0880 C.3   1440  UMA1440     0.1813
     28  N2'       30.9380   12.0790   16.5350 N.am  1440  UMA1440    -0.1994
     29  C7'       29.8770   12.6840   17.0850 C.2   1440  UMA1440     0.2420
     30  O7'       28.9900   13.2360   16.4250 O.2   1440  UMA1440    -0.2733
     31  C8'       29.8460   12.6350   18.5890 C.3   1440  UMA1440     0.0964
     32  C3'       31.6080   10.7010   14.5560 C.3   1440  UMA1440     0.1733
     33  O3'       30.6380    9.6900   14.7690 O.3   1440  UMA1440    -0.3449
     34  C4'       31.7520   10.8450   13.0260 C.3   1440  UMA1440     0.2103
     35  O4'       32.2380    9.6290   12.4320 O.3   1440  UMA1440    -0.2178
     36  C5'       32.6850   11.9900   12.6220 C.3   1440  UMA1440     0.1833
     37  O5'       32.3030   13.1880   13.3250 O.3   1440  UMA1440    -0.3260
     38  C6'       32.6770   12.2910   11.1160 C.3   1440  UMA1440     0.2142
     39  O6'       31.3890   12.8310   10.7630 O.3   1440  UMA1440    -0.2176
     40  C18       30.8210    8.9330   15.9630 C.3   1440  UMA1440     0.1926
     41  C19       29.5710    8.9830   16.7840 C.2   1440  UMA1440     0.2690
     42  O18       29.5560    8.5000   17.9110 O.2   1440  UMA1440    -0.2707
     43  C20       31.0450    7.4660   15.5890 C.3   1440  UMA1440     0.0421
     44  N4        28.5080    9.5570   16.2450 N.am  1440  UMA1440    -0.1936
     45  C21       27.2490    9.5850   16.9790 C.3   1440  UMA1440     0.1979
     46  C22       26.5270    8.2830   16.7490 C.2   1440  UMA1440     0.3842
     47  O19       25.6390    7.9250   17.5440 O.co2 1440  UMA1440    -0.2437
     48  O20       26.8440    7.5750   15.7650 O.co2 1440  UMA1440    -0.2437
     49  C23       26.3900   10.7520   16.5120 C.3   1440  UMA1440     0.0356
@<TRIPOS>BOND
     1    39    38    1
     2    38    36    1
     3    35    34    1
     4    36    34    1
     5    36    37    1
     6    34    32    1
     7    37    26    1
     8    32    33    1
     9    32    27    1
    10    26    27    1
    11    26    25    1
    12    33    40    1
    13    24    22    2
    14    27    28    1
    15    25    22    1
    16    43    40    1
    17    48    46   ar
    18    22    23    1
    19    22    21    1
    20    40    41    1
    21    44    41   am
    22    44    45    1
    23    30    29    2
    24    49    45    1
    25    28    29   am
    26    46    45    1
    27    46    47   ar
    28    41    42    2
    29    29    31    1
    30    21    18    1
    31    19    18    2
    32    18    20    1
    33    18    17    1
    34    17    16    1
    35    16    13    1
    36     5     6    2
    37     5     4    1
    38     6     1    1
    39    13    12    1
    40    13    14    1
    41    12    10    1
    42    12    15    1
    43    14     9    1
    44     8     4    2
    45    10     9    1
    46    10    11    1
    47     4     3    2
    48     1     9    1
    49     1     2   am
    50     3     2    2
    51     2     7    2
