@<TRIPOS>MOLECULE
2jfh_LK1_A_1.pdb
 28 29 0 0 0
SMALL
GASTEIGER

@<TRIPOS>ATOM
      1  O28       21.9100   -4.5900   18.4290 O.2   1441  LK11441    -0.1516
      2  S11       21.8960   -4.2890   19.8140 S.O2  1441  LK11441     0.0773
      3  O27       21.6840   -5.4490   20.5860 O.2   1441  LK11441    -0.1516
      4  N         23.2680   -3.6380   20.3080 N.3   1441  LK11441    -0.0677
      5  CA        24.6290   -3.8380   19.8440 C.3   1441  LK11441     0.2007
      6  C         25.3050   -5.1450   20.2270 C.2   1441  LK11441     0.3822
      7  OXT       25.6270   -5.3590   21.3890 O.co2 1441  LK11441    -0.2440
      8  O         25.3980   -5.9360   19.2930 O.co2 1441  LK11441    -0.2440
      9  CB        25.4110   -2.6580   20.4150 C.3   1441  LK11441     0.0427
     10  CG        26.7770   -2.5710   19.7860 C.3   1441  LK11441     0.1161
     11  CD        27.4540   -1.3150   20.2360 C.2   1441  LK11441     0.3649
     12  OE2       27.9500   -1.3150   21.3630 O.co2 1441  LK11441    -0.2457
     13  OE1       27.4870   -0.3600   19.4490 O.co2 1441  LK11441    -0.2457
     14  C12       20.8230   -3.1900   20.1820 C.ar  1441  LK11441     0.1236
     15  C17       20.5440   -3.0640   21.5230 C.ar  1441  LK11441     0.0200
     16  C16       19.6630   -2.1230   22.0020 C.ar  1441  LK11441     0.0015
     17  C15       19.0480   -1.2710   21.1090 C.ar  1441  LK11441     0.0031
     18  C21       18.1580   -0.3560   21.6070 C.ar  1441  LK11441     0.0369
     19  C20       17.5430    0.5350   20.7710 C.ar  1441  LK11441     0.1386
     20  C19       17.7780    0.4820   19.4000 C.ar  1441  LK11441     0.0369
     21  C18       18.6650   -0.4600   18.8950 C.ar  1441  LK11441     0.0032
     22  C14       19.3190   -1.3500   19.7510 C.ar  1441  LK11441     0.0015
     23  C13       20.2190   -2.3190   19.2720 C.ar  1441  LK11441     0.0200
     24  O22       16.6610    1.4250   21.3000 O.3   1441  LK11441    -0.4755
     25  C23       15.4310    1.5780   20.6070 C.3   1441  LK11441     0.2054
     26  C24       14.3090    0.8080   21.2630 C.3   1441  LK11441     0.0473
     27  C25       13.0040    1.1700   20.5780 C.3   1441  LK11441     0.0038
     28  C26       11.8530    1.2940   21.5410 C.3   1441  LK11441     0.0001
@<TRIPOS>BOND
     1     1     2    2
     2    21    20   ar
     3    21    22   ar
     4    23    22   ar
     5    23    14   ar
     6     8     6   ar
     7    20    19   ar
     8    13    11   ar
     9    22    17   ar
    10    10    11    1
    11    10     9    1
    12     2    14    1
    13     2     4    1
    14     2     3    2
    15     5     6    1
    16     5     4    1
    17     5     9    1
    18    14    15   ar
    19     6     7   ar
    20    11    12   ar
    21    27    26    1
    22    27    28    1
    23    25    26    1
    24    25    24    1
    25    19    24    1
    26    19    18   ar
    27    17    18   ar
    28    17    16   ar
    29    15    16   ar
