@<TRIPOS>MOLECULE
2jfk_COA_D_1.pdb
 12 11 0 0 0
SMALL
GASTEIGER

@<TRIPOS>ATOM
      1  CAP       20.0200    5.5860  126.5430 C.3   1821  COA1821     0.0964
      2  C9P       20.8360    4.8950  127.6080 C.2   1821  COA1821     0.2419
      3  O9P       20.2600    3.9500  128.4840 O.2   1821  COA1821    -0.2733
      4  N8P       22.1280    5.1990  127.6920 N.am  1821  COA1821    -0.2049
      5  C7P       23.1150    4.1400  127.8120 C.3   1821  COA1821     0.1248
      6  C6P       23.0630    3.4110  129.1640 C.3   1821  COA1821     0.1102
      7  C5P       23.0120    1.9020  128.9970 C.2   1821  COA1821     0.2432
      8  O5P       23.8220    1.1870  129.6030 O.2   1821  COA1821    -0.2733
      9  N4P       22.0990    1.3810  128.1830 N.am  1821  COA1821    -0.2044
     10  C3P       22.2870    0.0910  127.5460 C.3   1821  COA1821     0.1276
     11  C2P       23.4450    0.0930  126.5510 C.3   1821  COA1821     0.0920
     12  S1P       24.6920   -1.1350  127.0250 S.3   1821  COA1821    -0.0802
@<TRIPOS>BOND
     1     1     2    1
     2    11    12    1
     3    11    10    1
     4    10     9    1
     5     2     4   am
     6     2     3    2
     7     4     5    1
     8     5     6    1
     9     9     7   am
    10     7     6    1
    11     7     8    2
