@<TRIPOS>MOLECULE
2jfl_DKI_A_1.pdb
 28 30 0 0 0
SMALL
GASTEIGER

@<TRIPOS>ATOM
      1  FAF      -28.4910   44.6460   -7.9100 F     1309  DKI1309    -0.2027
      2  CAU      -29.5330   44.7440   -8.7370 C.ar  1309  DKI1309     0.1575
      3  CAI      -29.5940   43.8550   -9.8100 C.ar  1309  DKI1309     0.0311
      4  CAH      -30.6660   43.8980  -10.6970 C.ar  1309  DKI1309     0.0047
      5  CAJ      -31.6750   44.8360  -10.4930 C.ar  1309  DKI1309     0.0311
      6  CAV      -31.6140   45.7290   -9.4140 C.ar  1309  DKI1309     0.1575
      7  FAG      -32.6200   46.6170   -9.2610 F     1309  DKI1309    -0.2027
      8  CAZ      -30.5190   45.7230   -8.5420 C.ar  1309  DKI1309     0.1271
      9  NAQ      -30.5710   46.4070   -7.3630 N.am  1309  DKI1309    -0.1854
     10  CAS      -31.2260   45.9710   -6.2340 C.2   1309  DKI1309     0.1862
     11  SAE      -32.1630   44.6860   -6.0400 S.2   1309  DKI1309    -0.0145
     12  NBA      -30.8820   46.8100   -5.1610 N.am  1309  DKI1309    -0.1152
     13  NAP      -30.1630   48.0090   -5.3730 N.2   1309  DKI1309    -0.0877
     14  CAT      -31.1090   46.7000   -3.8380 C.2   1309  DKI1309     0.3142
     15  NAA      -31.7600   45.7210   -3.1740 N.pl3 1309  DKI1309    -0.0755
     16  NAO      -30.5710   47.7250   -3.1410 N.2   1309  DKI1309    -0.2988
     17  CAX      -30.0030   48.4890   -4.1110 C.1   1309  DKI1309     0.1878
     18  NAR      -29.3490   49.6340   -3.7440 N.pl3 1309  DKI1309    -0.1347
     19  CAW      -28.6480   50.5210   -4.5280 C.ar  1309  DKI1309     0.0827
     20  CAL      -28.5430   50.4270   -5.9200 C.ar  1309  DKI1309     0.0187
     21  CAN      -27.8180   51.3680   -6.6410 C.ar  1309  DKI1309     0.0214
     22  CAK      -27.9880   51.5850   -3.8860 C.ar  1309  DKI1309     0.0187
     23  CAM      -27.2460   52.5220   -4.6040 C.ar  1309  DKI1309     0.0214
     24  CAY      -27.1630   52.4290   -5.9980 C.ar  1309  DKI1309     0.1251
     25  SBB      -26.3030   53.4740   -6.8860 S.O2  1309  DKI1309     0.0935
     26  OAC      -25.2060   52.7170   -7.4300 O.2   1309  DKI1309    -0.1503
     27  OAD      -25.7650   54.5300   -6.0680 O.2   1309  DKI1309    -0.1503
     28  NAB      -27.1250   54.1240   -8.0980 N.3   1309  DKI1309     0.0392
@<TRIPOS>BOND
     1     4     5   ar
     2     4     3   ar
     3     5     6   ar
     4     3     2   ar
     5     6     7    1
     6     6     8   ar
     7     2     8   ar
     8     2     1    1
     9     8     9    1
    10    28    25    1
    11    26    25    2
    12     9    10    1
    13    25    27    2
    14    25    24    1
    15    21    24   ar
    16    21    20   ar
    17    10    11    2
    18    10    12    1
    19    24    23   ar
    20    20    19   ar
    21    13    12    1
    22    13    17    2
    23    12    14    1
    24    23    22   ar
    25    19    22   ar
    26    19    18    1
    27    17    18    1
    28    17    16    2
    29    14    15    1
    30    14    16    2
