@<TRIPOS>MOLECULE
2jfn_UMA_A_1.pdb
 49 51 0 0 0
SMALL
GASTEIGER

@<TRIPOS>ATOM
      1  N1        41.0350   30.8950   30.8220 N.am  1286  UMA1286    -0.1766
      2  C2        40.6200   30.4400   32.1730 C.1   1286  UMA1286     0.2845
      3  N3        41.6580   30.1740   33.0530 N.2   1286  UMA1286    -0.2452
      4  C4        43.0270   30.3000   32.7720 C.1   1286  UMA1286     0.2182
      5  C5        43.3810   30.7710   31.3680 C.2   1286  UMA1286     0.1242
      6  C6        42.3920   31.0340   30.4900 C.2   1286  UMA1286     0.0929
      7  O2        39.4560   30.2950   32.5140 O.2   1286  UMA1286    -0.1918
      8  O4        43.8490   30.0290   33.6350 O.2   1286  UMA1286    -0.2085
      9  C1B       39.9200   31.1860   29.8530 C.3   1286  UMA1286     0.2401
     10  C2B       39.3720   32.5870   30.0630 C.3   1286  UMA1286     0.2319
     11  O2'       37.8980   32.6770   29.9500 O.3   1286  UMA1286    -0.2157
     12  C3B       40.0480   33.4940   29.0890 C.3   1286  UMA1286     0.2158
     13  C4B       40.1970   32.5160   27.9390 C.3   1286  UMA1286     0.1799
     14  O4B       40.3330   31.2190   28.5080 O.3   1286  UMA1286    -0.3320
     15  O3B       39.0890   34.5680   28.8970 O.3   1286  UMA1286    -0.2175
     16  C5B       41.3820   32.7350   27.0860 C.3   1286  UMA1286     0.1813
     17  O5B       42.5060   32.9190   27.8710 O.3   1286  UMA1286    -0.3112
     18  PA        43.9180   33.3710   27.2960 P.3   1286  UMA1286     0.2189
     19  O1A       44.8730   32.9870   28.3450 O.3   1286  UMA1286    -0.4371
     20  O2A       44.1160   32.7740   26.0150 O.2   1286  UMA1286    -0.5170
     21  O3A       43.7780   34.9850   27.2530 O.3   1286  UMA1286    -0.2703
     22  PB        42.6920   36.0100   27.8150 P.3   1286  UMA1286     0.2208
     23  O1B       41.3900   35.8160   27.2130 O.2   1286  UMA1286    -0.5170
     24  O2B       43.2870   37.3490   27.7630 O.3   1286  UMA1286    -0.4371
     25  O1'       42.7110   35.5930   29.4030 O.3   1286  UMA1286    -0.2864
     26  C1'       43.2830   36.3390   30.4780 C.3   1286  UMA1286     0.2632
     27  C2'       43.9510   35.4420   31.4860 C.3   1286  UMA1286     0.1813
     28  N2'       45.0670   34.6820   30.8930 N.am  1286  UMA1286    -0.1994
     29  C7'       46.3460   34.9100   31.2350 C.2   1286  UMA1286     0.2420
     30  O7'       46.6490   35.6380   32.1760 O.2   1286  UMA1286    -0.2733
     31  C8'       47.4430   34.2290   30.4440 C.3   1286  UMA1286     0.0964
     32  C3'       42.8830   34.5080   32.0800 C.3   1286  UMA1286     0.1733
     33  O3'       43.4600   33.6710   33.1400 O.3   1286  UMA1286    -0.3449
     34  C4'       41.6970   35.3120   32.6640 C.3   1286  UMA1286     0.2103
     35  O4'       40.7040   34.4460   33.1760 O.3   1286  UMA1286    -0.2178
     36  C5'       41.1020   36.2230   31.5860 C.3   1286  UMA1286     0.1833
     37  O5'       42.1790   37.0850   31.0560 O.3   1286  UMA1286    -0.3260
     38  C6'       40.0200   37.1540   32.1030 C.3   1286  UMA1286     0.2142
     39  O6'       40.5090   37.9130   33.1990 O.3   1286  UMA1286    -0.2176
     40  C18       44.2490   34.0790   34.2860 C.3   1286  UMA1286     0.1926
     41  C19       43.4550   34.2330   35.5410 C.2   1286  UMA1286     0.2690
     42  O18       43.7820   35.0350   36.3980 O.2   1286  UMA1286    -0.2707
     43  C20       45.4930   33.1700   34.3640 C.3   1286  UMA1286     0.0421
     44  N4        42.3840   33.4280   35.6360 N.am  1286  UMA1286    -0.1936
     45  C21       41.5280   33.2760   36.8210 C.3   1286  UMA1286     0.1979
     46  C22       42.2900   32.9950   38.1510 C.2   1286  UMA1286     0.3842
     47  O19       43.3720   32.3710   38.0700 O.co2 1286  UMA1286    -0.2437
     48  O20       41.8060   33.4120   39.2340 O.co2 1286  UMA1286    -0.2437
     49  C23       40.5110   32.1560   36.5710 C.3   1286  UMA1286     0.0356
@<TRIPOS>BOND
     1    20    18    2
     2    16    17    1
     3    16    13    1
     4    23    22    2
     5    21    18    1
     6    21    22    1
     7    18    17    1
     8    18    19    1
     9    24    22    1
    10    22    25    1
    11    13    14    1
    12    13    12    1
    13    14     9    1
    14    15    12    1
    15    12    10    1
    16    25    26    1
    17     9    10    1
    18     9     1    1
    19    11    10    1
    20    31    29    1
    21    26    37    1
    22    26    27    1
    23     6     1    1
    24     6     5    2
    25     1     2   am
    26    28    29   am
    27    28    27    1
    28    37    36    1
    29    29    30    2
    30     5     4    1
    31    27    32    1
    32    36    38    1
    33    36    34    1
    34    32    34    1
    35    32    33    1
    36    38    39    1
    37     2     7    2
    38     2     3    2
    39    34    35    1
    40     4     3    2
    41     4     8    2
    42    33    40    1
    43    40    43    1
    44    40    41    1
    45    41    44   am
    46    41    42    2
    47    44    45    1
    48    49    45    1
    49    45    46    1
    50    47    46   ar
    51    46    48   ar
