@<TRIPOS>MOLECULE
2jfn_GLU_A_1.pdb
 10 9 0 0 0
SMALL
GASTEIGER

@<TRIPOS>ATOM
      1  N         31.4500   21.0330   34.9640 N.3   1287  GLU1287    -0.1208
      2  CA        30.3670   21.9270   35.3840 C.3   1287  GLU1287     0.1949
      3  C         30.9300   23.3260   35.5460 C.2   1287  GLU1287     0.3819
      4  O         31.8290   23.7530   34.7340 O.co2 1287  GLU1287    -0.2441
      5  CB        29.7700   21.4310   36.7100 C.3   1287  GLU1287     0.0424
      6  CG        28.2260   21.4550   36.6500 C.3   1287  GLU1287     0.1161
      7  CD        27.6230   21.2600   38.0350 C.2   1287  GLU1287     0.3649
      8  OE1       26.5640   21.8110   38.3230 O.co2 1287  GLU1287    -0.2457
      9  OE2       28.1820   20.5440   38.8720 O.co2 1287  GLU1287    -0.2457
     10  OXT       30.5040   24.0850   36.4780 O.co2 1287  GLU1287    -0.2441
@<TRIPOS>BOND
     1     4     3   ar
     2     1     2    1
     3     2     3    1
     4     2     5    1
     5     3    10   ar
     6     6     5    1
     7     6     7    1
     8     7     8   ar
     9     7     9   ar
