@<TRIPOS>MOLECULE
2jfo_DGL_B_1.pdb
 10 9 0 0 0
SMALL
GASTEIGER

@<TRIPOS>ATOM
      1  N         43.7830   46.8000    0.8810 N.3   1270  DGL1270    -0.1208
      2  CA        43.6330   48.1180    0.2410 C.3   1270  DGL1270     0.1949
      3  C         42.7620   49.0350    1.0890 C.2   1270  DGL1270     0.3819
      4  O         42.5990   48.8140    2.3360 O.co2 1270  DGL1270    -0.2441
      5  CB        45.0140   48.7520    0.0490 C.3   1270  DGL1270     0.0424
      6  CG        45.8820   47.8760   -0.8710 C.3   1270  DGL1270     0.1161
      7  CD        45.5010   48.0720   -2.3170 C.2   1270  DGL1270     0.3649
      8  OE1       45.6310   49.1680   -2.8460 O.co2 1270  DGL1270    -0.2457
      9  OE2       45.0670   47.1310   -2.9610 O.co2 1270  DGL1270    -0.2457
     10  OXT       42.1830   50.0360    0.5540 O.co2 1270  DGL1270    -0.2441
@<TRIPOS>BOND
     1     9     7   ar
     2     8     7   ar
     3     7     6    1
     4     6     5    1
     5     5     2    1
     6     2     1    1
     7     2     3    1
     8    10     3   ar
     9     3     4   ar
