@<TRIPOS>MOLECULE
2jfo_GLU_A_1.pdb
 10 9 0 0 0
SMALL
GASTEIGER

@<TRIPOS>ATOM
      1  N         14.7620   44.0470   34.8220 N.3   1270  GLU1270    -0.1208
      2  CA        15.2780   42.9940   35.7120 C.3   1270  GLU1270     0.1949
      3  C         16.3910   42.2200   35.0050 C.2   1270  GLU1270     0.3819
      4  O         17.3700   42.8520   34.4880 O.co2 1270  GLU1270    -0.2441
      5  CB        14.1360   42.0520   36.1150 C.3   1270  GLU1270     0.0424
      6  CG        13.8360   42.2400   37.6060 C.3   1270  GLU1270     0.1161
      7  CD        12.6050   41.4560   37.9810 C.2   1270  GLU1270     0.3649
      8  OE1       12.6100   40.7390   38.9690 O.co2 1270  GLU1270    -0.2457
      9  OE2       11.5990   41.5420   37.2960 O.co2 1270  GLU1270    -0.2457
     10  OXT       16.3620   40.9480   34.9350 O.co2 1270  GLU1270    -0.2441
@<TRIPOS>BOND
     1     4     3   ar
     2     1     2    1
     3    10     3   ar
     4     3     2    1
     5     2     5    1
     6     5     6    1
     7     9     7   ar
     8     6     7    1
     9     7     8   ar
