@<TRIPOS>MOLECULE
2jfp_DGL_A_1.pdb
 10 9 0 0 0
SMALL
GASTEIGER

@<TRIPOS>ATOM
      1  N         10.6930  -22.5680   20.5460 N.3   1270  DGL1270    -0.1208
      2  CA        12.0580  -22.2340   20.9780 C.3   1270  DGL1270     0.1949
      3  C         12.0320  -21.3530   22.2250 C.2   1270  DGL1270     0.3819
      4  O         11.2910  -20.3260   22.2530 O.co2 1270  DGL1270    -0.2441
      5  CB        12.9120  -23.5320   21.2140 C.3   1270  DGL1270     0.0424
      6  CG        12.1090  -24.6970   21.8330 C.3   1270  DGL1270     0.1161
      7  CD        12.9310  -25.9810   21.7660 C.2   1270  DGL1270     0.3649
      8  OE1       13.1960  -26.6000   22.7820 O.co2 1270  DGL1270    -0.2457
      9  OE2       13.3290  -26.4010   20.6950 O.co2 1270  DGL1270    -0.2457
     10  OXT       12.7490  -21.6230   23.2400 O.co2 1270  DGL1270    -0.2441
@<TRIPOS>BOND
     1     1     2    1
     2     9     7   ar
     3     2     5    1
     4     2     3    1
     5     5     6    1
     6     7     6    1
     7     7     8   ar
     8     3     4   ar
     9     3    10   ar
