@<TRIPOS>MOLECULE
2jfv_FLC_A_1.pdb
 13 12 0 0 0
SMALL
GASTEIGER

@<TRIPOS>ATOM
      1  CAC        9.5890   55.5640   15.9700 C.2   1271  FLC1271     0.3680
      2  CA         8.8560   54.2690   16.3140 C.3   1271  FLC1271     0.1560
      3  CB         7.3600   54.2830   15.8930 C.3   1271  FLC1271     0.2402
      4  CBC        6.5980   55.4000   16.6180 C.2   1271  FLC1271     0.3927
      5  CG         6.7550   52.9020   16.2560 C.3   1271  FLC1271     0.1560
      6  CGC        5.3740   52.6680   15.6490 C.2   1271  FLC1271     0.3680
      7  OA1       10.4840   55.9540   16.6940 O.co2 1271  FLC1271    -0.2455
      8  OA2        9.2910   56.2130   14.9770 O.co2 1271  FLC1271    -0.2455
      9  OB1        6.9150   55.7410   17.7500 O.co2 1271  FLC1271    -0.2429
     10  OB2        5.6700   55.9590   16.0630 O.co2 1271  FLC1271    -0.2429
     11  OG1        5.1210   53.0190   14.5050 O.co2 1271  FLC1271    -0.2455
     12  OG2        4.5140   52.1170   16.3110 O.co2 1271  FLC1271    -0.2455
     13  OHB        7.2780   54.4850   14.4720 O.3   1271  FLC1271    -0.2129
@<TRIPOS>BOND
     1    13     3    1
     2    11     6   ar
     3     8     1   ar
     4     6     5    1
     5     6    12   ar
     6     3     5    1
     7     3     2    1
     8     3     4    1
     9     1     2    1
    10     1     7   ar
    11    10     4   ar
    12     4     9   ar
