@<TRIPOS>MOLECULE
2jfx_DGL_A_1.pdb
 10 9 0 0 0
SMALL
GASTEIGER

@<TRIPOS>ATOM
      1  N         32.1800   11.2540   18.5550 N.3   1256  DGL1256    -0.1208
      2  CA        31.3650   12.4380   18.7900 C.3   1256  DGL1256     0.1949
      3  C         31.2330   13.2890   17.5370 C.2   1256  DGL1256     0.3819
      4  O         31.4860   12.7620   16.4360 O.co2 1256  DGL1256    -0.2441
      5  CB        29.9800   12.0270   19.2860 C.3   1256  DGL1256     0.0424
      6  CG        30.0080   11.3860   20.6580 C.3   1256  DGL1256     0.1161
      7  CD        30.6130   12.3040   21.7050 C.2   1256  DGL1256     0.3649
      8  OE1       29.9760   13.3250   22.0320 O.co2 1256  DGL1256    -0.2457
      9  OE2       31.7270   12.0120   22.1930 O.co2 1256  DGL1256    -0.2457
     10  OXT       30.8780   14.4750   17.6770 O.co2 1256  DGL1256    -0.2441
@<TRIPOS>BOND
     1     4     3   ar
     2     3    10   ar
     3     3     2    1
     4     1     2    1
     5     2     5    1
     6     5     6    1
     7     6     7    1
     8     7     8   ar
     9     7     9   ar
