@<TRIPOS>MOLECULE
2jfy_DGL_A_1.pdb
 10 9 0 0 0
SMALL
GASTEIGER

@<TRIPOS>ATOM
      1  N         14.6550    6.5310    6.9500 N.3   1256  DGL1256    -0.1208
      2  CA        14.2310    7.2520    8.1710 C.3   1256  DGL1256     0.1949
      3  C         14.1810    8.7420    7.9000 C.2   1256  DGL1256     0.3819
      4  O         14.2870    9.1790    6.7060 O.co2 1256  DGL1256    -0.2441
      5  CB        12.8240    6.7720    8.6010 C.3   1256  DGL1256     0.0424
      6  CG        12.8700    5.3450    9.1750 C.3   1256  DGL1256     0.1161
      7  CD        13.7290    5.3070   10.4100 C.2   1256  DGL1256     0.3649
      8  OE1       13.3440    5.8430   11.4520 O.co2 1256  DGL1256    -0.2457
      9  OE2       14.8160    4.7490   10.3650 O.co2 1256  DGL1256    -0.2457
     10  OXT       14.0090    9.5620    8.8690 O.co2 1256  DGL1256    -0.2441
@<TRIPOS>BOND
     1     4     3   ar
     2     1     2    1
     3     3     2    1
     4     3    10   ar
     5     2     5    1
     6     5     6    1
     7     6     7    1
     8     9     7   ar
     9     7     8   ar
