@<TRIPOS>MOLECULE
2jfz_DGL_A_1.pdb
 10 9 0 0 0
SMALL
GASTEIGER

@<TRIPOS>ATOM
      1  N         22.4880   67.6410   43.3030 N.3   1257  DGL1257    -0.1208
      2  CA        22.9520   68.7040   42.4050 C.3   1257  DGL1257     0.1949
      3  C         24.2670   68.3600   41.7350 C.2   1257  DGL1257     0.3819
      4  O         24.6300   67.1690   41.6970 O.co2 1257  DGL1257    -0.2441
      5  CB        21.8890   69.0410   41.3380 C.3   1257  DGL1257     0.0424
      6  CG        20.5940   69.5730   41.9340 C.3   1257  DGL1257     0.1161
      7  CD        20.8240   70.8950   42.7100 C.2   1257  DGL1257     0.3649
      8  OE1       21.2560   71.8890   42.0770 O.co2 1257  DGL1257    -0.2457
      9  OE2       20.6160   70.9170   43.9370 O.co2 1257  DGL1257    -0.2457
     10  OXT       24.9200   69.3080   41.2620 O.co2 1257  DGL1257    -0.2441
@<TRIPOS>BOND
     1    10     3   ar
     2     5     6    1
     3     5     2    1
     4     4     3   ar
     5     3     2    1
     6     6     7    1
     7     8     7   ar
     8     2     1    1
     9     7     9   ar
