@<TRIPOS>MOLECULE
2jfz_003_A_1.pdb
 33 37 0 0 0
SMALL
GASTEIGER

@<TRIPOS>ATOM
      1  C2        15.2290   56.5040   36.3360 C.ar  1256  0031256     0.3349
      2  O11       15.8720   55.5530   35.8830 O.2   1256  0031256    -0.2461
      3  N3        15.3470   56.8320   37.6800 N.ar  1256  0031256    -0.2647
      4  C7        16.2440   56.0660   38.5740 C.3   1256  0031256     0.1120
      5  C8        17.6320   56.7140   38.8440 C.3   1256  0031256     0.0228
      6  C10       18.5760   56.4430   37.6570 C.3   1256  0031256     0.0020
      7  C9        18.2830   56.1350   40.1160 C.3   1256  0031256     0.0020
      8  C4        14.6360   57.8910   38.1810 C.ar  1256  0031256     0.1727
      9  N16       14.6280   58.3440   39.3610 N.ar  1256  0031256    -0.1509
     10  N15       13.7870   59.4040   39.4180 N.ar  1256  0031256    -0.2448
     11  C23       13.5740   60.2010   40.6520 C.3   1256  0031256     0.1538
     12  C24       14.1770   61.6150   40.3650 C.ar  1256  0031256     0.0021
     13  C29       15.5740   61.7870   40.0200 C.ar  1256  0031256    -0.0021
     14  C30       16.4910   60.6780   39.9500 C.ar  1256  0031256    -0.0003
     15  C31       17.8540   60.8790   39.6030 C.ar  1256  0031256    -0.0000
     16  C32       18.3240   62.1920   39.3150 C.ar  1256  0031256    -0.0000
     17  C33       17.4370   63.3040   39.3770 C.ar  1256  0031256    -0.0000
     18  C28       16.0710   63.1120   39.7270 C.ar  1256  0031256    -0.0002
     19  C27       15.1980   64.2320   39.7830 C.ar  1256  0031256    -0.0000
     20  C26       13.8290   64.0560   40.1290 C.ar  1256  0031256    -0.0003
     21  C25       13.3220   62.7610   40.4170 C.ar  1256  0031256    -0.0023
     22  C14       13.2240   59.6150   38.2190 C.ar  1256  0031256     0.0859
     23  C17       12.2140   60.7220   37.8800 C.ar  1256  0031256     0.0207
     24  C22       10.9020   60.6830   38.4430 C.ar  1256  0031256     0.0222
     25  C21        9.9810   61.7180   38.1390 C.ar  1256  0031256     0.0989
     26  N20       10.3560   62.7480   37.3100 N.ar  1256  0031256    -0.2423
     27  C19       11.6090   62.8120   36.7530 C.ar  1256  0031256     0.0989
     28  C18       12.5640   61.8050   37.0240 C.ar  1256  0031256     0.0222
     29  C5        13.7220   58.6990   37.3720 C.ar  1256  0031256     0.1093
     30  C6        13.6200   58.3110   35.9470 C.ar  1256  0031256     0.2687
     31  O13       12.8810   58.9410   35.2110 O.2   1256  0031256    -0.2667
     32  N1        14.3710   57.2390   35.5210 N.ar  1256  0031256    -0.2466
     33  C12       14.2670   56.8690   34.1040 C.3   1256  0031256     0.1382
@<TRIPOS>BOND
     1    33    32    1
     2    31    30    2
     3    32    30   ar
     4    32     1   ar
     5     2     1    2
     6    30    29   ar
     7     1     3   ar
     8    27    28   ar
     9    27    26   ar
    10    28    23   ar
    11    26    25   ar
    12    29     8   ar
    13    29    22   ar
    14     6     5    1
    15     3     8   ar
    16     3     4    1
    17    23    22    1
    18    23    24   ar
    19    25    24   ar
    20     8     9   ar
    21    22    10   ar
    22     4     5    1
    23     5     7    1
    24    16    17   ar
    25    16    15   ar
    26     9    10   ar
    27    17    18   ar
    28    10    11    1
    29    15    14   ar
    30    18    19   ar
    31    18    13   ar
    32    19    20   ar
    33    14    13   ar
    34    13    12   ar
    35    20    21   ar
    36    12    21   ar
    37    12    11    1
