@<TRIPOS>MOLECULE
2jg0_TTZ_A_1.pdb
 25 27 0 0 0
SMALL
GASTEIGER

@<TRIPOS>ATOM
      1  O7        18.2810   51.2980   13.3990 O.3   1548  TTZ1548    -0.2175
      2  C7        19.2280   51.0070   14.3830 C.3   1548  TTZ1548     0.2168
      3  C5        19.8100   49.6160   14.2360 C.3   1548  TTZ1548     0.2084
      4  O5        20.7330   49.5590   15.2990 O.3   1548  TTZ1548    -0.2182
      5  C4        18.8280   48.4500   14.4000 C.3   1548  TTZ1548     0.2151
      6  O4        17.4540   48.8410   14.3800 O.3   1548  TTZ1548    -0.2176
      7  C3        19.1000   47.4780   13.2400 C.3   1548  TTZ1548     0.1969
      8  O3        18.9300   46.0980   13.5740 O.3   1548  TTZ1548    -0.2193
      9  C2        20.4990   47.8260   12.7000 C.3   1548  TTZ1548     0.1125
     10  S1        20.6080   47.6470   10.9290 S.3   1548  TTZ1548    -0.0750
     11  C6        20.5830   49.3300   12.9420 C.3   1548  TTZ1548     0.1509
     12  N1        19.9540   49.9060   11.7260 N.2   1548  TTZ1548    -0.2480
     13  C1        19.8170   49.1480   10.7310 C.2   1548  TTZ1548     0.1728
     14  N1'       19.0360   49.5190    9.6890 N.pl3 1548  TTZ1548    -0.1851
     15  C1'       18.2200   50.7120    9.6220 C.3   1548  TTZ1548     0.2440
     16  C2'       16.7190   50.3610    9.5390 C.3   1548  TTZ1548     0.2326
     17  O2'       16.3560   49.4790   10.6000 O.3   1548  TTZ1548    -0.2157
     18  O5'       18.5970   51.5120    8.4720 O.3   1548  TTZ1548    -0.3315
     19  C5'       18.2480   51.0000    7.1790 C.3   1548  TTZ1548     0.1828
     20  C6'       18.6170   52.0520    6.1390 C.3   1548  TTZ1548     0.2142
     21  O6'       20.0460   52.1800    6.0660 O.3   1548  TTZ1548    -0.2176
     22  C4'       16.7520   50.7220    7.1120 C.3   1548  TTZ1548     0.2144
     23  O4'       16.3740   50.2980    5.8060 O.3   1548  TTZ1548    -0.2176
     24  C3'       16.3440   49.7330    8.2020 C.3   1548  TTZ1548     0.2190
     25  O3'       14.9610   49.5050    8.1330 O.3   1548  TTZ1548    -0.2174
@<TRIPOS>BOND
     1    23    22    1
     2    21    20    1
     3    20    19    1
     4    22    19    1
     5    22    24    1
     6    19    18    1
     7    25    24    1
     8    24    16    1
     9    18    15    1
    10    16    15    1
    11    16    17    1
    12    15    14    1
    13    14    13    1
    14    13    10    1
    15    13    12    2
    16    10     9    1
    17    12    11    1
    18     9    11    1
    19     9     7    1
    20    11     3    1
    21     7     8    1
    22     7     5    1
    23     1     2    1
    24     3     2    1
    25     3     5    1
    26     3     4    1
    27     6     5    1
