@<TRIPOS>MOLECULE
2jg1_ANP_A_1.pdb
 31 33 0 0 0
SMALL
GASTEIGER

@<TRIPOS>ATOM
      1  PG        27.6750   69.7490  111.8340 P.3   1312  ANP1312     0.4884
      2  O1G       26.2590   70.2470  111.9210 O.3   1312  ANP1312    -0.1240
      3  O2G       28.5200   70.1680  113.0130 O.3   1312  ANP1312    -0.1240
      4  O3G       27.8600   68.2950  111.4900 O.2   1312  ANP1312    -0.2331
      5  PB        27.8330   72.1480  109.8720 P.3   1312  ANP1312     0.4669
      6  O1B       27.3650   71.9870  108.4480 O.2   1312  ANP1312    -0.2351
      7  O2B       26.8770   72.8090  110.8480 O.3   1312  ANP1312    -0.1253
      8  N3B       28.3340   70.5640  110.4310 N.3   1312  ANP1312    -0.0163
      9  PA        30.1030   73.4360  108.6010 P.3   1312  ANP1312     0.2220
     10  O1A       29.5750   74.6980  107.9670 O.3   1312  ANP1312    -0.4370
     11  O2A       30.3100   72.1850  107.7860 O.2   1312  ANP1312    -0.5170
     12  O3A       29.1480   73.1010  109.8700 O.3   1312  ANP1312    -0.2360
     13  O5'       31.5250   73.7290  109.2950 O.3   1312  ANP1312    -0.3111
     14  C5'       31.6800   74.7240  110.3040 C.3   1312  ANP1312     0.1813
     15  C4'       33.0780   75.3150  110.1720 C.3   1312  ANP1312     0.1821
     16  O4'       34.0580   74.2730  110.1930 O.3   1312  ANP1312    -0.3135
     17  C3'       33.3020   76.0250  108.8460 C.3   1312  ANP1312     0.2184
     18  O3'       32.8140   77.3640  108.8220 O.3   1312  ANP1312    -0.2174
     19  C2'       34.8010   75.9080  108.6660 C.3   1312  ANP1312     0.2570
     20  O2'       35.4980   76.8770  109.4560 O.3   1312  ANP1312    -0.2130
     21  C1'       35.0730   74.5190  109.2070 C.3   1312  ANP1312     0.3186
     22  N9        34.9750   73.5560  108.0690 N.pl3 1312  ANP1312    -0.1439
     23  C8        33.9260   72.7540  107.7720 C.3   1312  ANP1312     0.3377
     24  N7        34.1600   72.0130  106.6600 N.2   1312  ANP1312    -0.2095
     25  C5        35.3860   72.3470  106.2170 C.2   1312  ANP1312     0.2526
     26  C6        36.2580   71.9390  105.0900 C.2   1312  ANP1312     0.4393
     27  N6        35.8290   71.0090  104.2010 N.pl3 1312  ANP1312     0.2180
     28  N1        37.4800   72.5230  104.9860 N.2   1312  ANP1312     0.0021
     29  C2        37.9090   73.4550  105.8660 C.3   1312  ANP1312     0.5254
     30  N3        37.1700   73.8700  106.9190 N.2   1312  ANP1312    -0.0055
     31  C4        35.9250   73.3600  107.1440 C.2   1312  ANP1312     0.3518
@<TRIPOS>BOND
     1    27    26    1
     2    28    26    2
     3    28    29    1
     4    26    25    1
     5    29    30    1
     6    25    24    2
     7    25    31    1
     8    24    23    1
     9    30    31    2
    10    31    22    1
    11    23    22    1
    12    11     9    2
    13    10     9    1
    14    22    21    1
    15     6     5    2
    16     9    13    1
    17     9    12    1
    18    19    17    1
    19    19    21    1
    20    19    20    1
    21    18    17    1
    22    17    15    1
    23    21    16    1
    24    13    14    1
    25    12     5    1
    26     5     8    1
    27     5     7    1
    28    15    16    1
    29    15    14    1
    30     8     1    1
    31     4     1    2
    32     1     2    1
    33     1     3    1
