@<TRIPOS>MOLECULE
2jg1_TA6_C_1.pdb
 16 16 0 0 0
SMALL
GASTEIGER

@<TRIPOS>ATOM
      1  O1        10.3070   50.8340   76.5710 O.3   1312  TA61312    -0.2148
      2  C1        11.7420   50.8920   76.4600 C.3   1312  TA61312     0.2434
      3  C2        12.3680   49.9200   77.4700 C.3   1312  TA61312     0.2807
      4  O2        11.9370   50.2850   78.8030 O.3   1312  TA61312    -0.1896
      5  C3        13.8890   49.9390   77.3770 C.3   1312  TA61312     0.2409
      6  O3        14.3950   50.9780   78.2060 O.3   1312  TA61312    -0.2149
      7  C4        14.2820   48.5310   77.8540 C.3   1312  TA61312     0.2167
      8  O4        14.1170   48.3330   79.2780 O.3   1312  TA61312    -0.2175
      9  C5        13.2310   47.7330   77.1020 C.3   1312  TA61312     0.1808
     10  O5        12.0030   48.5450   77.1530 O.3   1312  TA61312    -0.3254
     11  C6        12.8680   46.3930   77.7210 C.3   1312  TA61312     0.1859
     12  O6        11.9980   45.7410   76.7990 O.3   1312  TA61312    -0.2675
     13  P         11.3490   44.3450   77.0850 P.3   1312  TA61312     0.5327
     14  O1P       12.5530   43.2730   77.2520 O.3   1312  TA61312    -0.1145
     15  O2P       10.6220   44.3770   78.5240 O.3   1312  TA61312    -0.1145
     16  O3P       10.3780   43.9510   76.0210 O.2   1312  TA61312    -0.2224
@<TRIPOS>BOND
     1    16    13    2
     2     2     1    1
     3     2     3    1
     4    12    13    1
     5    12    11    1
     6    13    14    1
     7    13    15    1
     8     9    10    1
     9     9    11    1
    10     9     7    1
    11    10     3    1
    12     5     3    1
    13     5     7    1
    14     5     6    1
    15     3     4    1
    16     7     8    1
