@<TRIPOS>MOLECULE
2jg3_BA2_A_1.pdb
 23 25 0 0 0
SMALL
GASTEIGER

@<TRIPOS>ATOM
      1  C14      -18.3500   -3.4490   11.5990 C.3   1415  BA21415     0.1419
      2  N13      -18.5510   -3.6980   13.0170 N.pl3 1415  BA21415    -0.1723
      3  C8       -19.6030   -2.9120   13.6270 C.cat 1415  BA21415     0.3575
      4  N9       -20.1700   -3.1890   14.9450 N.pl3 1415  BA21415    -0.1035
      5  C4       -20.5680   -1.9830   15.5930 C.2   1415  BA21415     0.3701
      6  C5       -20.2140   -0.9100   14.6240 C.2   1415  BA21415     0.3078
      7  N7       -19.6390   -1.4640   13.4440 N.2   1415  BA21415    -0.3358
      8  C6       -20.7510    0.5030   14.8120 C.2   1415  BA21415     0.4517
      9  N6       -19.8920    1.5470   14.3350 N.pl3 1415  BA21415     0.2193
     10  N3       -21.3940   -1.6990   16.7320 N.2   1415  BA21415    -0.0038
     11  C2       -21.7110   -0.3290   17.0920 C.3   1415  BA21415     0.5255
     12  N1       -21.3430    0.7010   16.1320 N.2   1415  BA21415     0.0031
     13  C1'      -20.4060   -4.4460   15.6620 C.3   1415  BA21415     0.3244
     14  C2'      -21.2040   -5.5260   14.9350 C.3   1415  BA21415     0.2574
     15  O2'      -22.5940   -5.2610   14.8090 O.3   1415  BA21415    -0.2130
     16  C3'      -20.8200   -6.7940   15.6850 C.3   1415  BA21415     0.2174
     17  O3'      -21.8870   -7.2400   16.5040 O.3   1415  BA21415    -0.2175
     18  C4'      -19.7220   -6.4110   16.6620 C.3   1415  BA21415     0.1696
     19  O4'      -19.4130   -5.0220   16.5110 O.3   1415  BA21415    -0.3144
     20  C5'      -18.5640   -7.3920   16.5480 C.3   1415  BA21415     0.1210
     21  N10      -17.2900   -6.8290   16.9270 N.3   1415  BA21415    -0.2154
     22  C11      -16.2630   -7.8200   17.1490 C.3   1415  BA21415     0.0888
     23  C12      -15.0740   -7.1970   17.8160 C.3   1415  BA21415     0.0203
@<TRIPOS>BOND
     1     1     2    1
     2     2     3    1
     3     7     3    2
     4     7     6    2
     5     3     4    1
     6     9     8    1
     7     6     8    1
     8     6     5    1
     9    15    14    1
    10     8    12    2
    11    14    13    1
    12    14    16    1
    13     4     5    1
    14     4    13    1
    15     5    10    2
    16    13    19    1
    17    16    17    1
    18    16    18    1
    19    12    11    1
    20    19    18    1
    21    20    18    1
    22    20    21    1
    23    10    11    1
    24    21    22    1
    25    22    23    1
