@<TRIPOS>MOLECULE
2jg7_NAD_A_1.pdb
 44 48 0 0 0
SMALL
GASTEIGER

@<TRIPOS>ATOM
      1  PA        77.2320   26.1950   49.9040 P.3   1510  NAD1510     0.2189
      2  O1A       76.9230   27.6120   49.4930 O.2   1510  NAD1510    -0.5170
      3  O2A       78.4100   25.9250   50.8050 O.3   1510  NAD1510    -0.4371
      4  O5B       77.4060   25.3400   48.5440 O.3   1510  NAD1510    -0.3112
      5  C5B       76.3470   25.1640   47.6000 C.3   1510  NAD1510     0.1813
      6  C4B       76.9500   24.9430   46.2170 C.3   1510  NAD1510     0.1821
      7  O4B       77.6820   26.0980   45.7980 O.3   1510  NAD1510    -0.3135
      8  C3B       77.9370   23.7910   46.1800 C.3   1510  NAD1510     0.2184
      9  O3B       77.6650   23.0320   45.0060 O.3   1510  NAD1510    -0.2174
     10  C2B       79.2990   24.4450   46.0620 C.3   1510  NAD1510     0.2570
     11  O2B       80.2610   23.6380   45.3730 O.3   1510  NAD1510    -0.2130
     12  C1B       78.9540   25.6990   45.2880 C.3   1510  NAD1510     0.3186
     13  N9A       79.9680   26.7770   45.4240 N.pl3 1510  NAD1510    -0.1439
     14  C8A       80.7710   27.0150   46.4690 C.3   1510  NAD1510     0.3377
     15  N7A       81.5500   28.0890   46.1930 N.2   1510  NAD1510    -0.2095
     16  C5A       81.2290   28.5260   44.9600 C.2   1510  NAD1510     0.2526
     17  C6A       81.6790   29.5730   44.1600 C.2   1510  NAD1510     0.4393
     18  N6A       82.6530   30.4040   44.5980 N.pl3 1510  NAD1510     0.2180
     19  N1A       81.1350   29.7610   42.9370 N.2   1510  NAD1510     0.0021
     20  C2A       80.1680   28.9440   42.4980 C.3   1510  NAD1510     0.5254
     21  N3A       79.7140   27.9260   43.2440 N.2   1510  NAD1510    -0.0055
     22  C4A       80.2290   27.6940   44.4810 C.2   1510  NAD1510     0.3518
     23  O3        75.9070   25.5390   50.5930 O.3   1510  NAD1510    -0.2703
     24  PN        75.8400   24.0730   51.2670 P.3   1510  NAD1510     0.2189
     25  O1N       76.0620   23.0040   50.2220 O.2   1510  NAD1510    -0.5170
     26  O2N       76.6650   24.0780   52.5240 O.3   1510  NAD1510    -0.4371
     27  O5D       74.2940   24.0030   51.6880 O.3   1510  NAD1510    -0.3112
     28  C5D       73.8020   24.6160   52.8840 C.3   1510  NAD1510     0.1813
     29  C4D       73.2210   25.9900   52.5640 C.3   1510  NAD1510     0.1799
     30  O4D       72.2960   25.9200   51.4710 O.3   1510  NAD1510    -0.3327
     31  C3D       72.4500   26.5310   53.7490 C.3   1510  NAD1510     0.2158
     32  O3D       72.8350   27.8900   53.9370 O.3   1510  NAD1510    -0.2175
     33  C2D       70.9950   26.4290   53.3330 C.3   1510  NAD1510     0.2309
     34  O2D       70.1720   27.4380   53.9290 O.3   1510  NAD1510    -0.2158
     35  C1D       71.0540   26.5410   51.8180 C.3   1510  NAD1510     0.2263
     36  N1N       69.9060   25.8750   51.1970 N.pl3 1510  NAD1510    -0.2787
     37  C2N       68.9320   26.6320   50.6550 C.3   1510  NAD1510     0.1244
     38  C3N       67.8140   26.0300   50.0650 C.2   1510  NAD1510     0.0544
     39  C7N       66.7140   26.8530   49.4540 C.2   1510  NAD1510     0.2818
     40  O7N       65.8960   26.2570   48.5930 O.2   1510  NAD1510    -0.2670
     41  N7N       66.5480   28.0770   49.7310 N.am  1510  NAD1510    -0.0839
     42  C4N       67.7160   24.6340   50.0350 C.2   1510  NAD1510     0.0033
     43  C5N       68.7420   23.8780   50.6020 C.2   1510  NAD1510     0.0157
     44  C6N       69.8340   24.5280   51.1770 C.2   1510  NAD1510     0.0633
@<TRIPOS>BOND
     1    20    19    1
     2    20    21    1
     3    19    17    2
     4    21    22    2
     5    17    18    1
     6    17    16    1
     7    22    16    1
     8    22    13    1
     9    16    15    2
    10     9     8    1
    11    12    13    1
    12    12     7    1
    13    12    10    1
    14    11    10    1
    15    13    14    1
    16     7     6    1
    17    10     8    1
    18     8     6    1
    19    15    14    1
    20     6     5    1
    21     5     4    1
    22     4     1    1
    23    40    39    2
    24    39    41   am
    25    39    38    1
    26     2     1    2
    27     1    23    1
    28     1     3    1
    29    42    38    2
    30    42    43    1
    31    38    37    1
    32    25    24    2
    33    23    24    1
    34    43    44    2
    35    37    36    1
    36    44    36    1
    37    36    35    1
    38    24    27    1
    39    24    26    1
    40    30    35    1
    41    30    29    1
    42    27    28    1
    43    35    33    1
    44    29    28    1
    45    29    31    1
    46    33    31    1
    47    33    34    1
    48    31    32    1
