@<TRIPOS>MOLECULE
2jg8_SEP_D_1.pdb
 10 9 0 0 0
SMALL
GASTEIGER

@<TRIPOS>ATOM
      1  N        -19.7820    9.3090    2.3370 N.3   1223  SEP1223    -0.1218
      2  CA       -18.5420    9.6500    1.5840 C.3   1223  SEP1223     0.1861
      3  CB       -17.3160    9.0080    2.2360 C.3   1223  SEP1223     0.1806
      4  OG       -17.4390    7.5980    2.2780 O.3   1223  SEP1223    -0.2682
      5  C        -18.6430    9.2240    0.1240 C.2   1223  SEP1223     0.2287
      6  O        -18.3210   10.0000   -0.7740 O.2   1223  SEP1223    -0.2866
      7  P        -15.9950    6.8900    2.3650 P.3   1223  SEP1223     0.5327
      8  O1P      -15.0960    7.5450    3.5240 O.3   1223  SEP1223    -0.1145
      9  O2P      -15.2520    7.0710    0.9510 O.2   1223  SEP1223    -0.2224
     10  O3P      -16.1900    5.3160    2.6190 O.3   1223  SEP1223    -0.1145
@<TRIPOS>BOND
     1     6     5    2
     2     5     2    1
     3     9     7    2
     4     2     3    1
     5     2     1    1
     6     3     4    1
     7     4     7    1
     8     7    10    1
     9     7     8    1
