@<TRIPOS>MOLECULE
2jgb_MGT_B_1.pdb
 33 35 0 0 0
SMALL
GASTEIGER

@<TRIPOS>ATOM
      1  PG       -20.6980   12.4530   14.5740 P.3   1000  MGT1000     0.5373
      2  O1G      -19.7590   13.5900   14.8960 O.3   1000  MGT1000    -0.1143
      3  O2G      -22.0000   12.8770   13.9440 O.3   1000  MGT1000    -0.1143
      4  O3G      -20.0510   11.2510   13.8960 O.2   1000  MGT1000    -0.2221
      5  O3B      -21.2530   11.9220   16.0080 O.3   1000  MGT1000    -0.2258
      6  PB       -20.5910   11.1150   17.2510 P.3   1000  MGT1000     0.2277
      7  O1B      -20.6840   12.0240   18.4670 O.3   1000  MGT1000    -0.4368
      8  O2B      -21.2450    9.7610   17.3060 O.2   1000  MGT1000    -0.5168
      9  O3A      -19.0210   10.9690   16.9150 O.3   1000  MGT1000    -0.2700
     10  PA       -18.0620    9.7910   17.4830 P.3   1000  MGT1000     0.2189
     11  O1A      -18.2620    9.4580   18.9450 O.3   1000  MGT1000    -0.4371
     12  O2A      -18.1520    8.6920   16.4610 O.2   1000  MGT1000    -0.5170
     13  O5'      -16.6180   10.4950   17.3720 O.3   1000  MGT1000    -0.3112
     14  C5'      -16.2820   11.5130   18.3220 C.3   1000  MGT1000     0.1813
     15  C4'      -15.6310   12.7120   17.6350 C.3   1000  MGT1000     0.1799
     16  O4'      -14.3940   12.2800   17.0460 O.3   1000  MGT1000    -0.3326
     17  C3'      -16.5010   13.3140   16.5410 C.3   1000  MGT1000     0.2158
     18  O3'      -16.3730   14.7430   16.4970 O.3   1000  MGT1000    -0.2175
     19  C2'      -15.8780   12.7920   15.2770 C.3   1000  MGT1000     0.2310
     20  O2'      -15.9640   13.7170   14.1990 O.3   1000  MGT1000    -0.2158
     21  C1'      -14.4260   12.5530   15.6520 C.3   1000  MGT1000     0.2287
     22  N9       -13.9450   11.3860   14.8900 N.pl3 1000  MGT1000    -0.2454
     23  C8       -14.6380   10.2730   14.5150 C.3   1000  MGT1000     0.1735
     24  N7       -13.8490    9.4120   13.8260 N.3   1000  MGT1000    -0.2343
     25  CM7      -14.2830    8.1050   13.2650 C.3   1000  MGT1000     0.0924
     26  C5       -12.6520    9.9970   13.7670 C.3   1000  MGT1000     0.2475
     27  C6       -11.3700    9.6040   13.1670 C.1   1000  MGT1000     0.2145
     28  O6       -11.2770    8.5290   12.5540 O.2   1000  MGT1000    -0.2115
     29  N1       -10.3340   10.4620   13.2980 N.2   1000  MGT1000    -0.2526
     30  C2       -10.4470   11.6410   13.9580 C.1   1000  MGT1000     0.2525
     31  N2        -9.3820   12.4660   14.0850 N.pl3 1000  MGT1000    -0.0226
     32  N3       -11.5960   12.0480   14.5350 N.2   1000  MGT1000    -0.3118
     33  C4       -12.7030   11.2820   14.4630 C.2   1000  MGT1000     0.2086
@<TRIPOS>BOND
     1    28    27    2
     2    27    29    2
     3    27    26    1
     4    25    24    1
     5    29    30    2
     6    26    24    1
     7    26    33    1
     8    24    23    1
     9     4     1    2
    10     3     1    1
    11    30    31    1
    12    30    32    2
    13    20    19    1
    14    33    32    2
    15    33    22    1
    16    23    22    1
    17     1     2    1
    18     1     5    1
    19    22    21    1
    20    19    21    1
    21    19    17    1
    22    21    16    1
    23     5     6    1
    24    12    10    2
    25    18    17    1
    26    17    15    1
    27     9     6    1
    28     9    10    1
    29    16    15    1
    30     6     8    2
    31     6     7    1
    32    13    10    1
    33    13    14    1
    34    10    11    1
    35    15    14    1
