@<TRIPOS>MOLECULE
2jgd_AMP_A_1.pdb
 23 25 0 0 0
SMALL
GASTEIGER

@<TRIPOS>ATOM
      1  P         49.1810  -16.7370   50.7330 P.3   1934  AMP1934     0.5327
      2  O1P       49.2900  -16.4120   49.2690 O.2   1934  AMP1934    -0.2224
      3  O2P       49.0900  -18.2120   51.0200 O.3   1934  AMP1934    -0.1145
      4  O3P       48.1680  -15.8940   51.4860 O.3   1934  AMP1934    -0.1145
      5  O5'       50.6010  -16.2680   51.3300 O.3   1934  AMP1934    -0.2675
      6  C5'       51.0530  -16.6930   52.6210 C.3   1934  AMP1934     0.1860
      7  C4'       52.1340  -15.7490   53.1580 C.3   1934  AMP1934     0.1823
      8  O4'       53.3160  -15.8320   52.3510 O.3   1934  AMP1934    -0.3135
      9  C3'       51.6960  -14.3000   53.0780 C.3   1934  AMP1934     0.2184
     10  O3'       52.4690  -13.5690   54.0200 O.3   1934  AMP1934    -0.2174
     11  C2'       52.2200  -13.8500   51.7440 C.3   1934  AMP1934     0.2570
     12  O2'       52.5230  -12.4650   51.7810 O.3   1934  AMP1934    -0.2130
     13  C1'       53.5060  -14.6180   51.6150 C.3   1934  AMP1934     0.3186
     14  N9        53.6550  -14.9350   50.1870 N.pl3 1934  AMP1934    -0.1439
     15  C8        52.7480  -15.5880   49.4460 C.3   1934  AMP1934     0.3377
     16  N7        53.1740  -15.7380   48.1550 N.2   1934  AMP1934    -0.2095
     17  C5        54.3760  -15.1380   48.0740 C.2   1934  AMP1934     0.2526
     18  C6        55.3520  -14.9130   46.9950 C.2   1934  AMP1934     0.4393
     19  N6        55.1000  -15.3750   45.7490 N.pl3 1934  AMP1934     0.2180
     20  N1        56.4710  -14.2260   47.2960 N.2   1934  AMP1934     0.0021
     21  C2        56.6990  -13.7620   48.5480 C.3   1934  AMP1934     0.5254
     22  N3        55.8520  -13.9470   49.5870 N.2   1934  AMP1934    -0.0055
     23  C4        54.6870  -14.6050   49.4050 C.2   1934  AMP1934     0.3518
@<TRIPOS>BOND
     1    19    18    1
     2    18    20    2
     3    18    17    1
     4    20    21    1
     5    17    16    2
     6    17    23    1
     7    16    15    1
     8    21    22    1
     9     2     1    2
    10    23    22    2
    11    23    14    1
    12    15    14    1
    13    14    13    1
    14     1     3    1
    15     1     5    1
    16     1     4    1
    17     5     6    1
    18    13    11    1
    19    13     8    1
    20    11    12    1
    21    11     9    1
    22     8     7    1
    23     6     7    1
    24     9     7    1
    25     9    10    1
