@<TRIPOS>MOLECULE
2jgq_QGA_A_1.pdb
 25 25 0 0 0
SMALL
GASTEIGER

@<TRIPOS>ATOM
      1  C9        67.9200   -4.3490   42.4370 C.3   1235  QGA1235     0.0000
      2  C12       67.6120   -5.0280   43.8100 C.3   1235  QGA1235     0.0000
      3  C15       68.0090   -4.0820   44.9830 C.3   1235  QGA1235     0.0000
      4  C18       67.2830   -2.7040   44.8500 C.3   1235  QGA1235     0.0000
      5  C21       67.5900   -2.0340   43.4700 C.3   1235  QGA1235     0.0005
      6  C24       66.8270   -0.6690   43.4070 C.3   1235  QGA1235     0.0096
      7  C27       67.0090    0.1870   42.1000 C.3   1235  QGA1235     0.0853
      8  C30       65.7720    1.0530   41.7320 C.2   1235  QGA1235     0.2258
      9  N33       65.7540    1.8230   40.4910 N.am  1235  QGA1235    -0.2741
     10  O34       64.7980    1.0760   42.5010 O.2   1235  QGA1235    -0.2749
     11  C35       66.9670    1.7440   39.6100 C.3   1235  QGA1235     0.1290
     12  C36       64.5640    2.6570   40.0900 C.3   1235  QGA1235     0.1290
     13  C37       64.6220    4.1780   40.3940 C.3   1235  QGA1235     0.2044
     14  C40       63.3240    4.8830   39.8850 C.3   1235  QGA1235     0.2166
     15  C41       63.3680    6.4420   40.1700 C.3   1235  QGA1235     0.2175
     16  C42       62.0690    7.1580   39.6500 C.3   1235  QGA1235     0.2175
     17  C43       62.1380    8.6760   39.9300 C.3   1235  QGA1235     0.2175
     18  O44       60.9400    9.3120   39.4450 O.3   1235  QGA1235    -0.2175
     19  O47       64.7700    4.3620   41.8030 O.3   1235  QGA1235    -0.2185
     20  O49       63.2080    4.6570   38.4600 O.3   1235  QGA1235    -0.2175
     21  O51       63.4880    6.6860   41.5850 O.3   1235  QGA1235    -0.2175
     22  O53       61.8790    6.9620   38.2370 O.3   1235  QGA1235    -0.2175
     23  C60       66.9540    2.5570   38.2730 C.3   1235  QGA1235     0.2035
     24  O63       68.1930    3.2570   38.0970 O.3   1235  QGA1235    -0.2185
     25  C1        67.1480   -2.9950   42.3220 C.3   1235  QGA1235     0.0000
@<TRIPOS>BOND
     1    24    23    1
     2    22    16    1
     3    23    11    1
     4    20    14    1
     5    18    17    1
     6    11     9    1
     7    16    17    1
     8    16    15    1
     9    14    15    1
    10    14    13    1
    11    12    13    1
    12    12     9    1
    13    15    21    1
    14    13    19    1
    15     9     8   am
    16     8     7    1
    17     8    10    2
    18     7     6    1
    19    25     1    1
    20    25     5    1
    21     1     2    1
    22     6     5    1
    23     5     4    1
    24     2     3    1
    25     4     3    1
