@<TRIPOS>MOLECULE
2jgs_BTN_A_1.pdb
 16 17 0 0 0
SMALL
GASTEIGER

@<TRIPOS>ATOM
      1  O3        34.1050   15.3200   53.9810 O.2   1001  BTN1001    -0.2023
      2  C3        34.4400   13.9700   53.9950 C.1   1001  BTN1001     0.2386
      3  N2        35.6780   13.5110   53.9260 N.2   1001  BTN1001    -0.1860
      4  C4        35.6590   12.0600   54.0010 C.3   1001  BTN1001     0.1500
      5  C5        34.1860   11.6800   54.1370 C.3   1001  BTN1001     0.1509
      6  N1        33.5500   12.9830   54.1100 N.2   1001  BTN1001    -0.1859
      7  C6        33.7920   10.8470   52.9300 C.3   1001  BTN1001     0.0848
      8  S1        34.9530   11.1700   51.5790 S.3   1001  BTN1001    -0.1369
      9  C2        36.1640   11.3440   52.7510 C.3   1001  BTN1001     0.0729
     10  C7        37.3790   12.0510   52.1780 C.3   1001  BTN1001     0.0129
     11  C8        38.2060   11.0440   51.4210 C.3   1001  BTN1001     0.0015
     12  C9        39.4860   11.7220   50.9350 C.3   1001  BTN1001     0.0118
     13  C10       40.0800   10.9260   49.7680 C.3   1001  BTN1001     0.1141
     14  C11       40.9760    9.8220   50.3020 C.2   1001  BTN1001     0.3649
     15  O11       41.4350    8.9490   49.5410 O.co2 1001  BTN1001    -0.2457
     16  O12       41.3020    9.7760   51.5150 O.co2 1001  BTN1001    -0.2457
@<TRIPOS>BOND
     1    15    14   ar
     2    13    14    1
     3    13    12    1
     4    14    16   ar
     5    12    11    1
     6    11    10    1
     7     8     9    1
     8     8     7    1
     9    10     9    1
    10     9     4    1
    11     7     5    1
    12     3     2    2
    13     3     4    1
    14     1     2    2
    15     2     6    2
    16     4     5    1
    17     6     5    1
