@<TRIPOS>MOLECULE
2jgv_ADP_B_1.pdb
 27 29 0 0 0
SMALL
GASTEIGER

@<TRIPOS>ATOM
      1  PB        30.2320   17.9030   27.9770 P.3   1311  ADP1311     0.5373
      2  O1B       29.0540   18.5870   28.6370 O.3   1311  ADP1311    -0.1143
      3  O2B       31.5310   18.6420   28.2050 O.3   1311  ADP1311    -0.1143
      4  O3B       30.0420   17.4950   26.5310 O.2   1311  ADP1311    -0.2221
      5  PA        29.3700   15.2640   28.8230 P.3   1311  ADP1311     0.2231
      6  O1A       29.7610   14.2520   27.7740 O.2   1311  ADP1311    -0.5169
      7  O2A       27.9500   15.7920   28.8640 O.3   1311  ADP1311    -0.4370
      8  O3A       30.4190   16.5070   28.7860 O.3   1311  ADP1311    -0.2261
      9  O5'       29.6730   14.6490   30.2840 O.3   1311  ADP1311    -0.3111
     10  C5'       30.4070   13.4380   30.4380 C.3   1311  ADP1311     0.1813
     11  C4'       30.3590   13.0040   31.8950 C.3   1311  ADP1311     0.1821
     12  O4'       30.3490   14.1380   32.7690 O.3   1311  ADP1311    -0.3135
     13  C3'       29.0950   12.2270   32.2270 C.3   1311  ADP1311     0.2184
     14  O3'       29.2320   10.8240   31.9730 O.3   1311  ADP1311    -0.2174
     15  C2'       28.8870   12.5400   33.6950 C.3   1311  ADP1311     0.2570
     16  O2'       29.7240   11.7260   34.5230 O.3   1311  ADP1311    -0.2130
     17  C1'       29.3690   13.9750   33.8010 C.3   1311  ADP1311     0.3186
     18  N9        28.2230   14.9050   33.5990 N.pl3 1311  ADP1311    -0.1439
     19  C8        28.0770   15.7900   32.5870 C.3   1311  ADP1311     0.3377
     20  N7        26.9210   16.4890   32.7030 N.2   1311  ADP1311    -0.2095
     21  C5        26.3000   16.0450   33.8190 C.2   1311  ADP1311     0.2526
     22  C6        25.0290   16.3410   34.5390 C.2   1311  ADP1311     0.4393
     23  N6        24.1820   17.2850   34.0650 N.pl3 1311  ADP1311     0.2180
     24  N1        24.7500   15.6440   35.6730 N.2   1311  ADP1311     0.0021
     25  C2        25.5910   14.7030   36.1470 C.3   1311  ADP1311     0.5254
     26  N3        26.7530   14.3800   35.5490 N.2   1311  ADP1311    -0.0055
     27  C4        27.1570   15.0000   34.4060 C.2   1311  ADP1311     0.3518
@<TRIPOS>BOND
     1     4     1    2
     2     6     5    2
     3     1     3    1
     4     1     2    1
     5     1     8    1
     6     8     5    1
     7     5     7    1
     8     5     9    1
     9     9    10    1
    10    10    11    1
    11    11    13    1
    12    11    12    1
    13    14    13    1
    14    13    15    1
    15    19    20    1
    16    19    18    1
    17    20    21    2
    18    12    17    1
    19    18    17    1
    20    18    27    1
    21    15    17    1
    22    15    16    1
    23    21    27    1
    24    21    22    1
    25    23    22    1
    26    27    26    2
    27    22    24    2
    28    26    25    1
    29    24    25    1
