@<TRIPOS>MOLECULE
2jh0_701_D_1.pdb
 29 31 0 0 0
SMALL
GASTEIGER

@<TRIPOS>ATOM
      1 CL1        10.2540   25.4630   46.1290 Cl    1247  7011247    -0.0752
      2  C1        10.5490   23.8690   46.9260 C.ar  1247  7011247     0.0870
      3  C2        11.4820   22.9090   46.5700 C.ar  1247  7011247     0.0185
      4  C3        11.3850   21.8010   47.4370 C.ar  1247  7011247     0.0076
      5  C4        10.4160   21.9300   48.4430 C.ar  1247  7011247     0.0277
      6  C9         9.9940   20.9760   49.5190 C.2   1247  7011247     0.0041
      7  C8         9.3690   21.5090   50.7740 C.3   1247  7011247     0.0330
      8  S1         9.8380   18.4170   50.2030 S.O2  1247  7011247     0.0782
      9  O2        10.5700   18.4440   51.4290 O.2   1247  7011247    -0.1516
     10  O1        10.2150   17.2610   49.4240 O.2   1247  7011247    -0.1516
     11  N1         8.2880   18.3710   50.5490 N.3   1247  7011247    -0.0699
     12  C12        7.3440   17.9470   49.5250 C.3   1247  7011247     0.1754
     13  C13        6.3840   16.8320   49.9840 C.3   1247  7011247     0.0502
     14  C14        4.9980   17.1390   49.3800 C.3   1247  7011247     0.0959
     15  C15        6.4270   19.0410   49.0630 C.2   1247  7011247     0.2437
     16  O3         6.7690   20.2030   48.8590 O.2   1247  7011247    -0.2733
     17  N2         5.2180   18.5160   48.9150 N.am  1247  7011247    -0.2718
     18  C16        4.1070   19.2320   48.3000 C.3   1247  7011247     0.1521
     19  C17        3.9620   18.8090   46.8350 C.3   1247  7011247     0.0314
     20  C18        2.8260   19.0720   49.0630 C.2   1247  7011247     0.2439
     21  O4         1.8930   18.4910   48.5290 O.2   1247  7011247    -0.2731
     22  N3         2.7710   19.5210   50.3220 N.am  1247  7011247    -0.2731
     23  C19        3.9190   20.0720   51.0600 C.3   1247  7011247     0.1255
     24  C20        3.4790   21.4240   51.5780 C.3   1247  7011247     0.1636
     25  O5         2.2790   21.2540   52.3390 O.3   1247  7011247    -0.3501
     26  C22        1.2070   20.8470   51.4970 C.3   1247  7011247     0.1636
     27  C23        1.5270   19.4270   51.0740 C.3   1247  7011247     0.1255
     28  S6         9.5570   23.4980   48.3110 S.2   1247  7011247    -0.0758
     29  C6        10.2070   19.6580   49.2690 C.2   1247  7011247     0.1383
@<TRIPOS>BOND
     1     1     2    1
     2     3     2   ar
     3     3     4   ar
     4    19    18    1
     5     2    28   ar
     6     4     5   ar
     7    18    17    1
     8    18    20    1
     9    28     5   ar
    10     5     6    1
    11    21    20    2
    12    16    15    2
    13    17    15   am
    14    17    14    1
    15    15    12    1
    16    20    22   am
    17    29     6    2
    18    29     8    1
    19    14    13    1
    20    10     8    2
    21     6     7    1
    22    12    13    1
    23    12    11    1
    24     8    11    1
    25     8     9    2
    26    22    23    1
    27    22    27    1
    28    23    24    1
    29    27    26    1
    30    26    25    1
    31    24    25    1
