@<TRIPOS>MOLECULE
2jh5_895_D_1.pdb
 28 30 0 0 0
SMALL
GASTEIGER

@<TRIPOS>ATOM
      1 CL1         9.8460   25.2660   46.2660 Cl    1249  8951249    -0.0752
      2  C1        10.0930   23.7440   47.0190 C.ar  1249  8951249     0.0870
      3  C2        11.0130   22.7720   46.6030 C.ar  1249  8951249     0.0185
      4  C3        10.9590   21.6550   47.4570 C.ar  1249  8951249     0.0079
      5  C4        10.0190   21.7880   48.4920 C.ar  1249  8951249     0.0317
      6  C9         9.7120   20.7810   49.5520 C.2   1249  8951249     0.0278
      7  S1         9.4770   18.1510   50.2600 S.O2  1249  8951249     0.0785
      8  O2        10.1710   18.2570   51.5080 O.2   1249  8951249    -0.1515
      9  O1         9.6200   16.9960   49.4270 O.2   1249  8951249    -0.1515
     10  N1         7.9130   18.4340   50.6100 N.3   1249  8951249    -0.0699
     11  C12        6.9070   17.9340   49.7000 C.3   1249  8951249     0.1754
     12  C13        5.9600   16.9300   50.3840 C.3   1249  8951249     0.0502
     13  C14        4.5590   17.2850   49.8640 C.3   1249  8951249     0.0959
     14  C15        6.0270   18.9850   49.0710 C.2   1249  8951249     0.2437
     15  O3         6.4080   20.0860   48.6950 O.2   1249  8951249    -0.2733
     16  N2         4.7790   18.4540   49.0060 N.am  1249  8951249    -0.2718
     17  C16        3.7220   18.9920   48.1480 C.3   1249  8951249     0.1521
     18  C17        3.6730   18.1820   46.8430 C.3   1249  8951249     0.0314
     19  C18        2.3500   19.0290   48.8330 C.2   1249  8951249     0.2439
     20  O4         1.4240   18.3890   48.3260 O.2   1249  8951249    -0.2731
     21  N3         2.2400   19.7860   49.9960 N.am  1249  8951249    -0.2731
     22  C19        0.9810   19.7960   50.7500 C.3   1249  8951249     0.1255
     23  C20        1.1690   19.7670   52.2710 C.3   1249  8951249     0.1636
     24  O5         2.1840   20.6690   52.7120 O.3   1249  8951249    -0.3501
     25  C22        3.4420   20.4180   52.0890 C.3   1249  8951249     0.1636
     26  C23        3.2850   20.6600   50.5780 C.3   1249  8951249     0.1255
     27  S6         9.2340   23.2760   48.4210 S.2   1249  8951249    -0.0755
     28  C6         9.9270   19.4860   49.2390 C.2   1249  8951249     0.1426
@<TRIPOS>BOND
     1     1     2    1
     2     3     2   ar
     3     3     4   ar
     4    18    17    1
     5     2    27   ar
     6     4     5   ar
     7    17    19    1
     8    17    16    1
     9    20    19    2
    10    27     5   ar
    11     5     6    1
    12    15    14    2
    13    19    21   am
    14    16    14   am
    15    16    13    1
    16    14    11    1
    17    28     6    2
    18    28     7    1
    19     9     7    2
    20    11    12    1
    21    11    10    1
    22    13    12    1
    23    21    26    1
    24    21    22    1
    25     7    10    1
    26     7     8    2
    27    26    25    1
    28    22    23    1
    29    25    24    1
    30    23    24    1
