@<TRIPOS>MOLECULE
2jh6_894_D_1.pdb
 28 30 0 0 0
SMALL
GASTEIGER

@<TRIPOS>ATOM
      1 CL1        10.1820   25.4840   46.0270 Cl    1249  8941249    -0.0752
      2  C1        10.3440   23.9520   46.8200 C.ar  1249  8941249     0.0867
      3  C2        11.3340   22.9690   46.4370 C.ar  1249  8941249     0.0181
      4  C3        11.2600   21.8240   47.3090 C.ar  1249  8941249     0.0036
      5  C4        10.2240   21.9710   48.3000 C.ar  1249  8941249     0.0099
      6  C9         9.8880   20.9240   49.3310 C.3   1249  8941249     0.0600
      7  S1         9.6460   18.2320   49.8450 S.O2  1249  8941249     0.0581
      8  O2         9.7820   17.0120   49.1100 O.2   1249  8941249    -0.1561
      9  O1        10.4020   18.4090   51.0490 O.2   1249  8941249    -0.1561
     10  N1         8.1290   18.3930   50.3470 N.3   1249  8941249    -0.0741
     11  C12        7.0220   17.9620   49.4970 C.3   1249  8941249     0.1750
     12  C13        6.0160   17.0240   50.2100 C.3   1249  8941249     0.0502
     13  C14        4.6750   17.3830   49.5330 C.3   1249  8941249     0.0959
     14  C15        6.1860   19.1020   48.9300 C.2   1249  8941249     0.2437
     15  O3         6.6360   20.2010   48.6120 O.2   1249  8941249    -0.2733
     16  N2         4.9020   18.6790   48.8700 N.am  1249  8941249    -0.2718
     17  C16        3.8220   19.4540   48.2360 C.3   1249  8941249     0.1521
     18  C17        3.4530   18.9040   46.8410 C.3   1249  8941249     0.0314
     19  C18        2.5720   19.5120   49.1110 C.2   1249  8941249     0.2439
     20  O4         1.5710   18.9070   48.7750 O.2   1249  8941249    -0.2731
     21  N3         2.6100   20.2310   50.2580 N.am  1249  8941249    -0.2731
     22  C19        1.4200   20.2970   51.1100 C.3   1249  8941249     0.1255
     23  C20        1.7920   19.9460   52.5430 C.3   1249  8941249     0.1636
     24  O5         2.9090   20.7370   52.9860 O.3   1249  8941249    -0.3501
     25  C22        4.0810   20.5440   52.1800 C.3   1249  8941249     0.1636
     26  C23        3.7670   21.0000   50.7480 C.3   1249  8941249     0.1255
     27  S6         9.4150   23.4750   48.1860 S.2   1249  8941249    -0.0798
     28  C6        10.0430   19.5390   48.6910 C.3   1249  8941249     0.1757
@<TRIPOS>BOND
     1     1     2    1
     2     3     2   ar
     3     3     4   ar
     4     2    27   ar
     5    18    17    1
     6     4     5   ar
     7    27     5   ar
     8    17    16    1
     9    17    19    1
    10     5     6    1
    11    15    14    2
    12    28     6    1
    13    28     7    1
    14    20    19    2
    15    16    14   am
    16    16    13    1
    17    14    11    1
    18     8     7    2
    19    19    21   am
    20    11    12    1
    21    11    10    1
    22    13    12    1
    23     7    10    1
    24     7     9    2
    25    21    26    1
    26    21    22    1
    27    26    25    1
    28    22    23    1
    29    25    24    1
    30    23    24    1
