@<TRIPOS>MOLECULE
2jh7_SIA_A_1.pdb
 21 21 0 0 0
SMALL
GASTEIGER

@<TRIPOS>ATOM
      1  C1         7.6860   28.2820   52.3980 C.2   1240  SIA1240     0.4179
      2  C2         7.9210   29.1480   51.1570 C.3   1240  SIA1240     0.3155
      3  C3         9.2310   28.8160   50.4490 C.3   1240  SIA1240     0.1056
      4  C4         9.0950   27.4970   49.6960 C.3   1240  SIA1240     0.1798
      5  C5         7.8520   27.4660   48.7800 C.3   1240  SIA1240     0.1554
      6  C6         6.5980   27.7600   49.6180 C.3   1240  SIA1240     0.1734
      7  C7         5.2460   27.8400   48.9180 C.3   1240  SIA1240     0.2135
      8  C8         4.1170   28.3760   49.7900 C.3   1240  SIA1240     0.2173
      9  C9         2.8500   28.0230   49.0420 C.3   1240  SIA1240     0.2175
     10  C10        7.9210   25.7450   46.9620 C.2   1240  SIA1240     0.2420
     11  C11        8.2120   26.8060   45.9290 C.3   1240  SIA1240     0.0964
     12  N5         7.7580   26.1070   48.2590 N.am  1240  SIA1240    -0.2020
     13  O1A        6.5170   27.9380   52.5940 O.co2 1240  SIA1240    -0.2401
     14  O1B        8.6080   28.0440   53.2050 O.co2 1240  SIA1240    -0.2401
     15  O2         7.9870   30.5060   51.6060 O.3   1240  SIA1240    -0.1830
     16  O4        10.3250   27.2680   49.0150 O.3   1240  SIA1240    -0.2210
     17  O6         6.7930   29.0190   50.2510 O.3   1240  SIA1240    -0.3220
     18  O7         5.3380   28.7020   47.7830 O.3   1240  SIA1240    -0.2176
     19  O8         4.1050   27.8440   51.1320 O.3   1240  SIA1240    -0.2175
     20  O9         1.6970   28.1330   49.8880 O.3   1240  SIA1240    -0.2175
     21  O10        7.8240   24.5490   46.6170 O.2   1240  SIA1240    -0.2733
@<TRIPOS>BOND
     1    11    10    1
     2    21    10    2
     3    10    12   am
     4    18     7    1
     5    12     5    1
     6     5     6    1
     7     5     4    1
     8     7     6    1
     9     7     8    1
    10    16     4    1
    11     9     8    1
    12     9    20    1
    13     6    17    1
    14     4     3    1
    15     8    19    1
    16    17     2    1
    17     3     2    1
    18     2    15    1
    19     2     1    1
    20     1    13   ar
    21     1    14   ar
