@<TRIPOS>MOLECULE
2jh8_M7G_A_1.pdb
 29 31 0 0 0
SMALL
GASTEIGER

@<TRIPOS>ATOM
      1  PA        61.9930   18.9720  220.2800 P.3   1645  M7G1645     0.2231
      2  O1A       61.1060   17.7100  219.8400 O.2   1645  M7G1645    -0.5169
      3  O2A       61.1010   20.1060  220.6310 O.3   1645  M7G1645    -0.4370
      4  O3A       62.8770   19.2960  218.9310 O.3   1645  M7G1645    -0.2261
      5  O5'       62.9660   18.3930  221.4980 O.3   1645  M7G1645    -0.3111
      6  PB        62.2060   19.5080  217.4590 P.3   1645  M7G1645     0.5373
      7  O1B       61.2870   18.2270  217.1160 O.3   1645  M7G1645    -0.1143
      8  O2B       63.4250   19.3470  216.3780 O.2   1645  M7G1645    -0.2221
      9  O3B       61.3880   20.7490  217.3640 O.3   1645  M7G1645    -0.1143
     10  C5'       63.5910   17.0480  221.5000 C.3   1645  M7G1645     0.1813
     11  C4'       64.8030   16.9100  220.4750 C.3   1645  M7G1645     0.1799
     12  O4'       64.2540   16.3150  219.2760 O.3   1645  M7G1645    -0.3326
     13  C3'       66.0590   16.0420  220.7320 C.3   1645  M7G1645     0.2158
     14  O3'       65.7070   14.7190  221.1230 O.3   1645  M7G1645    -0.2175
     15  C2'       66.6360   15.9700  219.3320 C.3   1645  M7G1645     0.2310
     16  O2'       67.5320   14.8730  219.1520 O.3   1645  M7G1645    -0.2158
     17  C1'       65.3680   15.7400  218.5060 C.3   1645  M7G1645     0.2287
     18  N9        64.8580   14.3460  218.1700 N.pl3 1645  M7G1645    -0.2454
     19  C8        65.2590   13.1030  218.5230 C.3   1645  M7G1645     0.1735
     20  N7        64.4390   12.2240  217.9350 N.3   1645  M7G1645    -0.2343
     21  CM7       64.5550   10.7460  218.0750 C.3   1645  M7G1645     0.0924
     22  C5        63.5270   12.8930  217.2180 C.3   1645  M7G1645     0.2475
     23  C6        62.4480   12.5630  216.4130 C.1   1645  M7G1645     0.2145
     24  O6        62.1450   11.3870  216.2350 O.2   1645  M7G1645    -0.2115
     25  N1        61.7020   13.5960  215.8190 N.2   1645  M7G1645    -0.2526
     26  C2        62.0580   14.9340  216.0460 C.1   1645  M7G1645     0.2525
     27  N2        61.3880   15.9430  215.5070 N.pl3 1645  M7G1645    -0.0226
     28  N3        63.0950   15.2170  216.8140 N.2   1645  M7G1645    -0.3118
     29  C4        63.8070   14.2410  217.3820 C.2   1645  M7G1645     0.2086
@<TRIPOS>BOND
     1    27    26    1
     2    25    26    2
     3    25    23    2
     4    26    28    2
     5    24    23    2
     6     8     6    2
     7    23    22    1
     8    28    29    2
     9     7     6    1
    10    22    29    1
    11    22    20    1
    12     9     6    1
    13    29    18    1
    14     6     4    1
    15    20    21    1
    16    20    19    1
    17    18    17    1
    18    18    19    1
    19    17    12    1
    20    17    15    1
    21     4     1    1
    22    16    15    1
    23    12    11    1
    24    15    13    1
    25     2     1    2
    26     1     3    1
    27     1     5    1
    28    11    13    1
    29    11    10    1
    30    13    14    1
    31     5    10    1
