@<TRIPOS>MOLECULE
2jh9_GTP_A_1.pdb
 32 34 0 0 0
SMALL
GASTEIGER

@<TRIPOS>ATOM
      1  PG        64.5230   22.4840  221.5990 P.3   1645  GTP1645     0.5373
      2  O1G       65.3950   21.1950  222.0580 O.3   1645  GTP1645    -0.1143
      3  O2G       65.5840   23.4340  220.7990 O.2   1645  GTP1645    -0.2221
      4  O3G       63.9490   23.2090  222.7740 O.3   1645  GTP1645    -0.1143
      5  O3B       63.4040   21.9550  220.4620 O.3   1645  GTP1645    -0.2258
      6  PB        62.3250   20.6930  220.6370 P.3   1645  GTP1645     0.2277
      7  O1B       62.7330   19.6190  219.4830 O.2   1645  GTP1645    -0.5168
      8  O2B       60.9110   21.1380  220.4800 O.3   1645  GTP1645    -0.4368
      9  O3A       62.6860   20.0240  222.1100 O.3   1645  GTP1645    -0.2700
     10  PA        61.9000   18.7830  222.8580 P.3   1645  GTP1645     0.2189
     11  O1A       60.3250   19.0660  222.6180 O.2   1645  GTP1645    -0.5170
     12  O2A       62.2110   18.7090  224.3060 O.3   1645  GTP1645    -0.4371
     13  O5'       62.2640   17.3980  222.0900 O.3   1645  GTP1645    -0.3112
     14  C5'       63.4730   17.2440  221.3350 C.3   1645  GTP1645     0.1813
     15  C4'       64.6200   16.6810  222.1950 C.3   1645  GTP1645     0.1799
     16  O4'       64.4660   15.2420  222.3140 O.3   1645  GTP1645    -0.3326
     17  C3'       65.9870   16.9270  221.5460 C.3   1645  GTP1645     0.2158
     18  O3'       66.9620   17.1360  222.5710 O.3   1645  GTP1645    -0.2175
     19  C2'       66.2770   15.6300  220.8060 C.3   1645  GTP1645     0.2310
     20  O2'       67.6800   15.3830  220.7590 O.3   1645  GTP1645    -0.2158
     21  C1'       65.5950   14.5750  221.6780 C.3   1645  GTP1645     0.2293
     22  N9        65.0650   13.4690  220.8300 N.pl3 1645  GTP1645    -0.2354
     23  C8        65.4040   12.1820  220.9300 C.3   1645  GTP1645     0.2246
     24  N7        64.7330   11.4840  220.0120 N.2   1645  GTP1645    -0.2322
     25  C5        63.9620   12.3250  219.3230 C.2   1645  GTP1645     0.2182
     26  C6        63.0650   12.1620  218.2680 C.1   1645  GTP1645     0.2372
     27  O6        62.8670   11.0470  217.7930 O.2   1645  GTP1645    -0.2069
     28  N1        62.3870   13.2800  217.7520 N.2   1645  GTP1645    -0.2485
     29  C2        62.6360   14.5380  218.3170 C.1   1645  GTP1645     0.2531
     30  N2        62.0150   15.6160  217.8590 N.pl3 1645  GTP1645    -0.0226
     31  N3        63.5080   14.6580  219.3300 N.2   1645  GTP1645    -0.3074
     32  C4        64.1690   13.5940  219.8430 C.2   1645  GTP1645     0.2300
@<TRIPOS>BOND
     1    28    26    2
     2    28    29    2
     3    27    26    2
     4    30    29    1
     5    26    25    1
     6    29    31    2
     7    25    32    1
     8    25    24    2
     9    31    32    2
    10     7     6    2
    11    32    22    1
    12    24    23    1
    13     5     6    1
    14     5     1    1
    15     8     6    1
    16     6     9    1
    17    20    19    1
    18     3     1    2
    19    19    17    1
    20    19    21    1
    21    22    23    1
    22    22    21    1
    23    14    13    1
    24    14    15    1
    25    17    15    1
    26    17    18    1
    27     1     2    1
    28     1     4    1
    29    21    16    1
    30    13    10    1
    31     9    10    1
    32    15    16    1
    33    11    10    2
    34    10    12    1
