@<TRIPOS>MOLECULE
2jhd_SIA_A_1.pdb
 21 21 0 0 0
SMALL
GASTEIGER

@<TRIPOS>ATOM
      1  C1         7.7780   28.4070   52.3910 C.2   1240  SIA1240     0.4179
      2  C2         8.0770   29.2550   51.1640 C.3   1240  SIA1240     0.3155
      3  C3         9.3920   28.8710   50.4650 C.3   1240  SIA1240     0.1056
      4  C4         9.2410   27.5530   49.6950 C.3   1240  SIA1240     0.1798
      5  C5         8.0040   27.5350   48.7770 C.3   1240  SIA1240     0.1554
      6  C6         6.7890   27.8450   49.6480 C.3   1240  SIA1240     0.1734
      7  C7         5.4270   27.8540   48.9520 C.3   1240  SIA1240     0.2135
      8  C8         4.1700   27.8250   49.8630 C.3   1240  SIA1240     0.2173
      9  C9         4.3140   28.1720   51.3460 C.3   1240  SIA1240     0.2175
     10  C10        8.0580   25.7750   46.9710 C.2   1240  SIA1240     0.2420
     11  C11        8.5780   26.7530   45.9420 C.3   1240  SIA1240     0.0964
     12  N5         7.8230   26.1790   48.2350 N.am  1240  SIA1240    -0.2020
     13  O1A        6.6210   28.0800   52.6740 O.co2 1240  SIA1240    -0.2401
     14  O1B        8.6730   28.1130   53.1540 O.co2 1240  SIA1240    -0.2401
     15  O2         8.1780   30.6440   51.5860 O.3   1240  SIA1240    -0.1830
     16  O4        10.4680   27.1990   49.0230 O.3   1240  SIA1240    -0.2210
     17  O6         7.0030   29.1410   50.2180 O.3   1240  SIA1240    -0.3220
     18  O7         5.3900   28.9150   47.9940 O.3   1240  SIA1240    -0.2176
     19  O8         3.0580   28.5480   49.2930 O.3   1240  SIA1240    -0.2175
     20  O9         3.0980   27.7690   52.0410 O.3   1240  SIA1240    -0.2175
     21  O10        7.8650   24.6050   46.6520 O.2   1240  SIA1240    -0.2733
@<TRIPOS>BOND
     1    11    10    1
     2    21    10    2
     3    10    12   am
     4    18     7    1
     5    12     5    1
     6     5     6    1
     7     5     4    1
     8     7     6    1
     9     7     8    1
    10    16     4    1
    11    19     8    1
    12     6    17    1
    13     4     3    1
    14     8     9    1
    15    17     2    1
    16     3     2    1
    17     2    15    1
    18     2     1    1
    19     9    20    1
    20     1    13   ar
    21     1    14   ar
