@<TRIPOS>MOLECULE
2jhf_NAD_A_1.pdb
 44 48 0 0 0
SMALL
GASTEIGER

@<TRIPOS>ATOM
      1  PA        -1.0200   17.3670   18.2680 P.3   403  NAD403      0.2189
      2  O1A       -0.9570   18.5750   19.1890 O.3   403  NAD403     -0.4371
      3  O2A       -1.9700   16.3290   18.4840 O.2   403  NAD403     -0.5170
      4  O5B       -1.2290   18.0120   16.7800 O.3   403  NAD403     -0.3112
      5  C5B       -1.7650   17.2520   15.7540 C.3   403  NAD403      0.1813
      6  C4B       -2.8100   18.0900   14.9530 C.3   403  NAD403      0.1821
      7  O4B       -3.3390   17.2720   13.8880 O.3   403  NAD403     -0.3135
      8  C3B       -4.0220   18.5680   15.8130 C.3   403  NAD403      0.2184
      9  O3B       -4.1460   19.9820   15.8490 O.3   403  NAD403     -0.2174
     10  C2B       -5.2030   17.9180   15.1170 C.3   403  NAD403      0.2570
     11  O2B       -6.4770   18.6340   15.1160 O.3   403  NAD403     -0.2130
     12  C1B       -4.7290   17.6510   13.6950 C.3   403  NAD403      0.3186
     13  N9A       -5.3780   16.5700   12.9670 N.pl3 403  NAD403     -0.1439
     14  C8A       -5.8200   15.3540   13.4610 C.3   403  NAD403      0.3377
     15  N7A       -6.3850   14.5860   12.4840 N.2   403  NAD403     -0.2095
     16  C5A       -6.3060   15.3320   11.3810 C.2   403  NAD403      0.2526
     17  C6A       -6.7400   15.1000   10.0220 C.2   403  NAD403      0.4393
     18  N6A       -7.3550   13.9540    9.6460 N.pl3 403  NAD403      0.2180
     19  N1A       -6.4720   16.0600    9.1460 N.2   403  NAD403      0.0021
     20  C2A       -5.8920   17.2180    9.4740 C.3   403  NAD403      0.5254
     21  N3A       -5.4820   17.5410   10.7430 N.2   403  NAD403     -0.0055
     22  C4A       -5.6680   16.6250   11.6610 C.2   403  NAD403      0.3518
     23  O3         0.4430   16.6770   18.1730 O.3   403  NAD403     -0.2703
     24  PN         1.9590   17.1590   18.2660 P.3   403  NAD403      0.2189
     25  O1N        2.4330   17.0830   19.6670 O.3   403  NAD403     -0.4371
     26  O2N        2.1380   18.4410   17.4990 O.2   403  NAD403     -0.5170
     27  O5D        2.6730   15.9130   17.4730 O.3   403  NAD403     -0.3112
     28  C5D        2.3320   15.7600   16.0770 C.3   403  NAD403      0.1813
     29  C4D        2.9070   14.3940   15.6340 C.3   403  NAD403      0.1799
     30  O4D        4.3340   14.3880   15.5950 O.3   403  NAD403     -0.3327
     31  C3D        2.4490   13.1970   16.4650 C.3   403  NAD403      0.2158
     32  O3D        2.1130   12.0250   15.7060 O.3   403  NAD403     -0.2175
     33  C2D        3.7020   12.9110   17.2820 C.3   403  NAD403      0.2309
     34  O2D        3.7030   11.5460   17.7660 O.3   403  NAD403     -0.2158
     35  C1D        4.7820   13.1610   16.2550 C.3   403  NAD403      0.2261
     36  N1N        6.1440   13.3720   16.7390 N.pl3 403  NAD403     -0.2831
     37  C2N        7.2290   12.9830   15.9270 C.2   403  NAD403      0.0633
     38  C3N        8.5640   13.2380   16.2340 C.2   403  NAD403      0.0490
     39  C7N        9.6540   12.8170   15.2610 C.2   403  NAD403      0.2814
     40  O7N       10.8140   12.8610   15.7140 O.2   403  NAD403     -0.2670
     41  N7N        9.3780   12.4600   14.0060 N.am  403  NAD403     -0.0839
     42  C4N        8.8490   14.1350   17.3330 C.3   403  NAD403      0.0341
     43  C5N        7.7050   14.8830   17.7790 C.3   403  NAD403      0.0264
     44  C6N        6.3710   14.3980   17.6660 C.3   403  NAD403      0.0934
@<TRIPOS>BOND
     1    19    20    1
     2    19    17    2
     3    20    21    1
     4    18    17    1
     5    17    16    1
     6    21    22    2
     7    16    22    1
     8    16    15    2
     9    22    13    1
    10    15    14    1
    11    13    14    1
    12    13    12    1
    13    12     7    1
    14    12    10    1
    15     7     6    1
    16    41    39   am
    17     6     5    1
    18     6     8    1
    19    11    10    1
    20    10     8    1
    21    39    40    2
    22    39    38    1
    23    30    29    1
    24    30    35    1
    25    29    28    1
    26    29    31    1
    27    32    31    1
    28     5     4    1
    29     8     9    1
    30    37    38    2
    31    37    36    1
    32    28    27    1
    33    38    42    1
    34    35    36    1
    35    35    33    1
    36    31    33    1
    37    36    44    1
    38     4     1    1
    39    33    34    1
    40    42    43    1
    41    27    24    1
    42    26    24    2
    43    44    43    1
    44    23    24    1
    45    23     1    1
    46    24    25    1
    47     1     3    2
    48     1     2    1
