@<TRIPOS>MOLECULE
2jhg_NAD_A_1.pdb
 44 48 0 0 0
SMALL
GASTEIGER

@<TRIPOS>ATOM
      1  PA       -12.1260   -7.6320  -18.9410 P.3   403  NAD403      0.2189
      2  O1A      -12.0480   -8.8010  -19.8320 O.2   403  NAD403     -0.5170
      3  O2A      -13.1010   -6.5890  -19.2250 O.3   403  NAD403     -0.4371
      4  O5B      -12.3700   -8.2560  -17.4820 O.3   403  NAD403     -0.3112
      5  C5B      -12.8830   -7.4500  -16.4510 C.3   403  NAD403      0.1813
      6  C4B      -13.9080   -8.3130  -15.6830 C.3   403  NAD403      0.1821
      7  O4B      -14.4250   -7.5100  -14.6350 O.3   403  NAD403     -0.3135
      8  C3B      -15.1200   -8.8190  -16.5040 C.3   403  NAD403      0.2184
      9  O3B      -15.1990  -10.2220  -16.5470 O.3   403  NAD403     -0.2174
     10  C2B      -16.3340   -8.1760  -15.8020 C.3   403  NAD403      0.2570
     11  O2B      -17.5380   -8.9090  -15.7940 O.3   403  NAD403     -0.2130
     12  C1B      -15.7720   -7.9120  -14.4070 C.3   403  NAD403      0.3186
     13  O3       -10.6810   -6.9210  -18.8430 O.3   403  NAD403     -0.2703
     14  PN        -9.1770   -7.3830  -18.8770 P.3   403  NAD403      0.2189
     15  O1N       -8.6520   -7.3000  -20.2510 O.2   403  NAD403     -0.5170
     16  O2N       -9.0560   -8.6340  -18.1030 O.3   403  NAD403     -0.4371
     17  O5D       -8.5390   -6.1540  -18.0850 O.3   403  NAD403     -0.3112
     18  C5D       -8.8580   -5.9880  -16.7180 C.3   403  NAD403      0.1813
     19  C4D       -8.3800   -4.6410  -16.2150 C.3   403  NAD403      0.1799
     20  O4D       -6.9850   -4.6070  -16.1450 O.3   403  NAD403     -0.3327
     21  C3D       -8.8290   -3.4720  -17.1230 C.3   403  NAD403      0.2158
     22  O3D       -9.1480   -2.3050  -16.3770 O.3   403  NAD403     -0.2175
     23  C2D       -7.5980   -3.1900  -17.9000 C.3   403  NAD403      0.2309
     24  O2D       -7.5450   -1.8630  -18.4070 O.3   403  NAD403     -0.2158
     25  C1D       -6.5240   -3.4500  -16.8620 C.3   403  NAD403      0.2263
     26  N1N       -5.1920   -3.6960  -17.3540 N.pl3 403  NAD403     -0.2787
     27  C2N       -4.1150   -3.2970  -16.5830 C.3   403  NAD403      0.1244
     28  C3N       -2.8380   -3.6170  -16.9100 C.2   403  NAD403      0.0544
     29  C7N       -1.7600   -3.1880  -15.9920 C.2   403  NAD403      0.2818
     30  O7N       -0.5620   -3.2240  -16.5060 O.2   403  NAD403     -0.2670
     31  N7N       -1.9570   -2.8040  -14.7520 N.am  403  NAD403     -0.0839
     32  C4N       -2.5580   -4.3700  -18.1020 C.2   403  NAD403      0.0033
     33  C5N       -3.7060   -5.0220  -18.6510 C.2   403  NAD403      0.0157
     34  C6N       -4.9780   -4.6720  -18.3010 C.2   403  NAD403      0.0633
     35  N9A      -16.4640   -6.7870  -13.7870 N.pl3 403  NAD403     -0.1439
     36  C8A      -16.8130   -5.6040  -14.3990 C.3   403  NAD403      0.3377
     37  N7A      -17.4010   -4.7980  -13.4660 N.2   403  NAD403     -0.2095
     38  C5A      -17.4150   -5.4630  -12.2680 C.2   403  NAD403      0.2526
     39  C6A      -17.8680   -5.1720  -10.9860 C.2   403  NAD403      0.4393
     40  N6A      -18.4840   -4.0270  -10.6890 N.pl3 403  NAD403      0.2180
     41  N1A      -17.7110   -6.0930   -9.9820 N.2   403  NAD403      0.0021
     42  C2A      -17.1160   -7.2970  -10.2580 C.3   403  NAD403      0.5254
     43  N3A      -16.6900   -7.6270  -11.5180 N.2   403  NAD403     -0.0055
     44  C4A      -16.8300   -6.7090  -12.4850 C.2   403  NAD403      0.3518
@<TRIPOS>BOND
     1    15    14    2
     2     2     1    2
     3     3     1    1
     4     1    13    1
     5     1     4    1
     6    14    13    1
     7    14    16    1
     8    14    17    1
     9    33    34    2
    10    33    32    1
    11    24    23    1
    12    34    26    1
    13    32    28    2
    14    17    18    1
    15    23    21    1
    16    23    25    1
    17     4     5    1
    18    26    25    1
    19    26    27    1
    20    21    22    1
    21    21    19    1
    22    28    27    1
    23    28    29    1
    24    25    20    1
    25    18    19    1
    26     9     8    1
    27    30    29    2
    28     8    10    1
    29     8     6    1
    30     5     6    1
    31    19    20    1
    32    29    31   am
    33    10    11    1
    34    10    12    1
    35     6     7    1
    36     7    12    1
    37    12    35    1
    38    36    35    1
    39    36    37    1
    40    35    44    1
    41    37    38    2
    42    44    38    1
    43    44    43    2
    44    38    39    1
    45    43    42    1
    46    39    40    1
    47    39    41    2
    48    42    41    1
