@<TRIPOS>MOLECULE
2jhi_A2G_F_1.pdb
 15 15 0 0 0
SMALL
GASTEIGER

@<TRIPOS>ATOM
      1  C1        31.7700  -11.7180    9.1950 C.3   1299  A2G1299     0.2917
      2  C2        32.1740  -10.2380    9.1700 C.3   1299  A2G1299     0.1871
      3  C3        32.9130   -9.8960    7.8730 C.3   1299  A2G1299     0.2095
      4  C4        34.0630  -10.8730    7.6100 C.3   1299  A2G1299     0.2136
      5  C5        33.5790  -12.3300    7.6860 C.3   1299  A2G1299     0.1835
      6  C6        34.7150  -13.3390    7.4900 C.3   1299  A2G1299     0.2142
      7  C7        30.8050   -8.5800   10.4000 C.2   1299  A2G1299     0.2421
      8  C8        29.6150   -7.6710   10.3050 C.3   1299  A2G1299     0.0964
      9  O         32.9030  -12.5700    8.9330 O.3   1299  A2G1299    -0.3242
     10  O1        30.7280  -11.9550    8.2380 O.3   1299  A2G1299    -0.1879
     11  O3        33.4290   -8.5660    7.9570 O.3   1299  A2G1299    -0.2183
     12  O4        35.1140  -10.6230    8.5530 O.3   1299  A2G1299    -0.2176
     13  O6        34.3250  -14.6250    7.9980 O.3   1299  A2G1299    -0.2176
     14  O7        31.5150   -8.5670   11.3920 O.2   1299  A2G1299    -0.2733
     15  N2        31.0080   -9.3780    9.3420 N.am  1299  A2G1299    -0.1991
@<TRIPOS>BOND
     1     6     5    1
     2     6    13    1
     3     4     5    1
     4     4     3    1
     5     4    12    1
     6     5     9    1
     7     3    11    1
     8     3     2    1
     9    10     1    1
    10     9     1    1
    11     2     1    1
    12     2    15    1
    13    15     7   am
    14     8     7    1
    15     7    14    2
