@<TRIPOS>MOLECULE
2jhk_NAG_F_1.pdb
 15 15 0 0 0
SMALL
GASTEIGER

@<TRIPOS>ATOM
      1  C1        10.4860    0.7420   30.3740 C.3   1299  NAG1299     0.2917
      2  C2        11.5710    1.6270   30.9900 C.3   1299  NAG1299     0.1871
      3  C3        10.9540    2.4850   32.0910 C.3   1299  NAG1299     0.2095
      4  C4         9.8050    3.3080   31.5070 C.3   1299  NAG1299     0.2136
      5  C5         8.8290    2.4320   30.7060 C.3   1299  NAG1299     0.1835
      6  C6         7.8260    3.2880   29.9320 C.3   1299  NAG1299     0.2142
      7  C7        13.8990    1.0440   30.8820 C.2   1299  NAG1299     0.2421
      8  C8        15.0800    0.3580   31.4950 C.3   1299  NAG1299     0.0964
      9  N2        12.7180    0.8790   31.4760 N.am  1299  NAG1299    -0.1991
     10  O1        11.0280   -0.0730   29.3630 O.3   1299  NAG1299    -0.1879
     11  O3        11.9340    3.3190   32.6780 O.3   1299  NAG1299    -0.2183
     12  O4         9.1240    3.9370   32.5690 O.3   1299  NAG1299    -0.2176
     13  O5         9.5160    1.5920   29.7890 O.3   1299  NAG1299    -0.3242
     14  O6         7.1850    2.5100   28.9410 O.3   1299  NAG1299    -0.2176
     15  O7        14.0460    1.7200   29.8660 O.2   1299  NAG1299    -0.2733
@<TRIPOS>BOND
     1    14     6    1
     2    10     1    1
     3    13     1    1
     4    13     5    1
     5    15     7    2
     6     6     5    1
     7     1     2    1
     8     5     4    1
     9     7     9   am
    10     7     8    1
    11     2     9    1
    12     2     3    1
    13     4     3    1
    14     4    12    1
    15     3    11    1
