@<TRIPOS>MOLECULE
2jhl_SLB_F_1.pdb
 21 21 0 0 0
SMALL
GASTEIGER

@<TRIPOS>ATOM
      1  C1        34.9350  -11.9730    7.6310 C.2   1299  SLB1299     0.4179
      2  C2        33.5780  -11.3240    7.6280 C.3   1299  SLB1299     0.3156
      3  C3        33.7740   -9.8420    7.3060 C.3   1299  SLB1299     0.1056
      4  C4        32.5020   -9.0390    7.5700 C.3   1299  SLB1299     0.1798
      5  C5        31.9630   -9.2950    8.9760 C.3   1299  SLB1299     0.1558
      6  C6        31.7660  -10.8020    9.1450 C.3   1299  SLB1299     0.1780
      7  C7        31.2120  -11.1680   10.5260 C.3   1299  SLB1299     0.2400
      8  C8        30.7390  -12.5990   10.5880 C.2   1299  SLB1299     0.2163
      9  C9        30.7820  -13.3410   11.9070 C.3   1299  SLB1299     0.2486
     10  C10       30.2360   -7.9850   10.0120 C.2   1299  SLB1299     0.2420
     11  C11       28.8660   -7.4110    9.8740 C.3   1299  SLB1299     0.0964
     12  N5        30.6430   -8.6610    9.0130 N.am  1299  SLB1299    -0.2019
     13  O1A       35.8080  -11.4810    8.3780 O.co2 1299  SLB1299    -0.2401
     14  O1B       35.1320  -12.9600    6.8900 O.co2 1299  SLB1299    -0.2401
     15  O2        32.7450  -11.9620    6.6410 O.3   1299  SLB1299    -0.1830
     16  O4        32.7760   -7.6510    7.4140 O.3   1299  SLB1299    -0.2210
     17  O6        33.0270  -11.4610    8.9470 O.3   1299  SLB1299    -0.3217
     18  O7        32.2120  -10.9060   11.5170 O.3   1299  SLB1299    -0.2123
     19  O8        30.2850  -13.1520    9.5910 O.2   1299  SLB1299    -0.2905
     20  O9        29.8790  -14.4570   11.8900 O.3   1299  SLB1299    -0.2118
     21  O10       30.8900   -7.8000   11.0290 O.2   1299  SLB1299    -0.2733
@<TRIPOS>BOND
     1    15     2    1
     2    14     1   ar
     3     3     4    1
     4     3     2    1
     5    16     4    1
     6     4     5    1
     7     2     1    1
     8     2    17    1
     9     1    13   ar
    10    17     6    1
    11     5    12    1
    12     5     6    1
    13    12    10   am
    14     6     7    1
    15    19     8    2
    16    11    10    1
    17    10    21    2
    18     7     8    1
    19     7    18    1
    20     8     9    1
    21    20     9    1
