@<TRIPOS>MOLECULE
2jho_HEM_A_1.pdb
 43 50 0 0 0
SMALL
GASTEIGER

@<TRIPOS>ATOM
      1 FE          8.0090   -6.6910   15.4860 Fe    1154  HEM1154     0.0000
      2  CHA        8.1330   -9.8490   14.0480 C.2   1154  HEM1154     0.0000
      3  CHB        4.5630   -6.7680   15.3250 C.2   1154  HEM1154     0.0000
      4  CHC        7.9250   -3.5150   16.7850 C.2   1154  HEM1154     0.0000
      5  CHD       11.4320   -6.6140   15.5330 C.2   1154  HEM1154     0.0000
      6  NA         6.6430   -8.0240   14.7500 N.2   1154  HEM1154     0.0000
      7  C1A        6.8970   -9.3290   14.3200 C.2   1154  HEM1154     0.0000
      8  C2A        5.6250   -9.9800   14.0290 C.2   1154  HEM1154     0.0000
      9  C3A        4.6710   -9.1000   14.3860 C.2   1154  HEM1154     0.0000
     10  C4A        5.2780   -7.8580   14.8430 C.2   1154  HEM1154     0.0000
     11  CMA        3.1380   -9.2370   14.2900 C.3   1154  HEM1154     0.0000
     12  CAA        5.4920  -11.4370   13.4990 C.3   1154  HEM1154     0.0000
     13  CBA        5.1290  -12.2960   14.7320 C.3   1154  HEM1154     0.0000
     14  CGA        6.1350  -12.3720   15.8740 C.2   1154  HEM1154     0.0000
     15  O1A        5.7130  -12.2580   17.0790 O.co2 1154  HEM1154     0.0000
     16  O2A        7.3230  -12.6630   15.6510 O.co2 1154  HEM1154     0.0000
     17  NB         6.5380   -5.3860   16.0210 N.ar  1154  HEM1154     0.0000
     18  C1B        5.1620   -5.6160   15.8380 C.ar  1154  HEM1154     0.0000
     19  C2B        4.5070   -4.4330   16.3850 C.ar  1154  HEM1154     0.0000
     20  C3B        5.4200   -3.5330   16.7500 C.ar  1154  HEM1154     0.0000
     21  C4B        6.7380   -4.1280   16.5330 C.ar  1154  HEM1154     0.0000
     22  CMB        2.9520   -4.3710   16.3330 C.3   1154  HEM1154     0.0000
     23  CAB        5.2180   -2.1450   17.3190 C.2   1154  HEM1154     0.0000
     24  CBB        4.3200   -1.2460   16.8330 C.2   1154  HEM1154     0.0000
     25  NC         9.4120   -5.3560   16.1260 N.2   1154  HEM1154     0.0000
     26  C1C        9.1610   -4.0840   16.5530 C.2   1154  HEM1154     0.0000
     27  C2C       10.4120   -3.3760   16.6320 C.2   1154  HEM1154     0.0000
     28  C3C       11.3770   -4.2250   16.2510 C.2   1154  HEM1154     0.0000
     29  C4C       10.7680   -5.4660   15.9370 C.2   1154  HEM1154     0.0000
     30  CMC       10.5290   -1.9210   17.0840 C.3   1154  HEM1154     0.0000
     31  CAC       12.9270   -4.0180   16.1180 C.2   1154  HEM1154     0.0000
     32  CBC       13.5080   -2.8440   16.2260 C.2   1154  HEM1154     0.0000
     33  ND         9.4980   -7.9680   14.9390 N.ar  1154  HEM1154     0.0000
     34  C1D       10.8660   -7.7210   15.0410 C.ar  1154  HEM1154     0.0000
     35  C2D       11.5820   -8.8220   14.4500 C.ar  1154  HEM1154     0.0000
     36  C3D       10.5730   -9.7870   13.9530 C.ar  1154  HEM1154     0.0000
     37  C4D        9.3000   -9.1940   14.2880 C.ar  1154  HEM1154     0.0000
     38  CMD       13.0880   -8.9430   14.4030 C.3   1154  HEM1154     0.0000
     39  CAD       10.8210  -11.0970   13.2290 C.3   1154  HEM1154     0.0000
     40  CBD       10.7640  -10.7730   11.7190 C.3   1154  HEM1154     0.0000
     41  CGD       11.0930  -11.9630   10.8470 C.2   1154  HEM1154     0.0000
     42  O1D       12.3070  -12.3290   10.8640 O.co2 1154  HEM1154     0.0000
     43  O2D       10.1610  -12.5180   10.1910 O.co2 1154  HEM1154     0.0000
@<TRIPOS>BOND
     1    43    41   ar
     2    41    42   ar
     3    41    40    1
     4    40    39    1
     5    39    36    1
     6    12     8    1
     7    12    13    1
     8    36    37   ar
     9    36    35   ar
    10     8     7    1
    11     8     9    2
    12     2    37    2
    13     2     7    1
    14    37    33   ar
    15    11     9    1
    16     7     6    2
    17     9    10    1
    18    38    35    1
    19    35    34   ar
    20    13    14    1
    21     6    10    1
    22     6     1    1
    23    10     3    2
    24    33    34   ar
    25    33     1    1
    26    34     5    2
    27     3    18    1
    28     1    17    1
    29     1    25    1
    30     5    29    1
    31    16    14   ar
    32    18    17   ar
    33    18    19   ar
    34    14    15   ar
    35    29    25    2
    36    29    28    1
    37    17    21   ar
    38    31    32    2
    39    31    28    1
    40    25    26    1
    41    28    27    2
    42    22    19    1
    43    19    20   ar
    44    21    20   ar
    45    21     4    1
    46    26    27    1
    47    26     4    2
    48    27    30    1
    49    20    23    1
    50    24    23    2
