@<TRIPOS>MOLECULE
2jhp_SAH_A_1.pdb
 26 28 0 0 0
SMALL
GASTEIGER

@<TRIPOS>ATOM
      1  N         78.3300   24.4310  181.9970 N.3   1645  SAH1645    -0.1208
      2  CA        78.8570   24.9500  183.2980 C.3   1645  SAH1645     0.1952
      3  CB        79.3250   23.8740  184.2830 C.3   1645  SAH1645     0.0422
      4  CG        79.7960   22.5250  183.7720 C.3   1645  SAH1645     0.0597
      5  SD        79.9540   21.3490  185.1440 S.3   1645  SAH1645    -0.1375
      6  C         79.9230   26.0190  183.1180 C.2   1645  SAH1645     0.3819
      7  O         79.7910   26.8950  182.2600 O.co2 1645  SAH1645    -0.2441
      8  OXT       80.9170   26.0550  183.8430 O.co2 1645  SAH1645    -0.2441
      9  C5'       79.3730   20.0090  184.0650 C.3   1645  SAH1645     0.0899
     10  C4'       77.9280   19.6200  184.3270 C.3   1645  SAH1645     0.1630
     11  O4'       77.3040   19.1800  183.1370 O.3   1645  SAH1645    -0.3153
     12  C3'       77.8020   18.4890  185.3440 C.3   1645  SAH1645     0.2168
     13  O3'       76.7230   18.8300  186.1990 O.3   1645  SAH1645    -0.2175
     14  C2'       77.4180   17.2740  184.5130 C.3   1645  SAH1645     0.2569
     15  O2'       76.5670   16.3900  185.1920 O.3   1645  SAH1645    -0.2130
     16  C1'       76.6760   17.9190  183.3430 C.3   1645  SAH1645     0.3185
     17  N9        76.6670   17.0780  182.1250 N.pl3 1645  SAH1645    -0.1439
     18  C8        77.6770   16.2700  181.6560 C.3   1645  SAH1645     0.3377
     19  N7        77.2570   15.6690  180.5130 N.2   1645  SAH1645    -0.2095
     20  C5        75.9950   16.0790  180.2430 C.2   1645  SAH1645     0.2526
     21  C6        75.0990   15.7910  179.2100 C.2   1645  SAH1645     0.4393
     22  N6        75.4460   14.9560  178.2330 N.pl3 1645  SAH1645     0.2180
     23  N1        73.8500   16.3840  179.1920 N.2   1645  SAH1645     0.0021
     24  C2        73.4880   17.2620  180.1990 C.3   1645  SAH1645     0.5254
     25  N3        74.3720   17.5510  181.2240 N.2   1645  SAH1645    -0.0055
     26  C4        75.6080   16.9690  181.2510 C.2   1645  SAH1645     0.3518
@<TRIPOS>BOND
     1    22    21    1
     2    23    21    2
     3    23    24    1
     4    21    20    1
     5    24    25    1
     6    20    19    2
     7    20    26    1
     8    19    18    1
     9    25    26    2
    10    26    17    1
    11    18    17    1
    12     1     2    1
    13    17    16    1
    14     7     6   ar
    15     6     2    1
    16     6     8   ar
    17    11    16    1
    18    11    10    1
    19     2     3    1
    20    16    14    1
    21     4     3    1
    22     4     5    1
    23     9    10    1
    24     9     5    1
    25    10    12    1
    26    14    15    1
    27    14    12    1
    28    12    13    1
