@<TRIPOS>MOLECULE
2jhr_PBQ_A_1.pdb
 17 18 0 0 0
SMALL
GASTEIGER

@<TRIPOS>ATOM
      1  CH        22.9960   49.6670   26.9030 C.ar  1780  PBQ1780     0.0740
      2  CG        24.7920   49.3320   28.4700 C.ar  1780  PBQ1780     0.0700
      3  CD1       25.2270   48.8930   29.8210 C.2   1780  PBQ1780     0.1418
      4  CD2       25.6620   49.0720   27.4040 C.ar  1780  PBQ1780     0.0125
      5  CE2       25.2010   49.1330   26.0840 C.ar  1780  PBQ1780     0.0353
      6  CR        23.4360   49.6030   28.2370 C.ar  1780  PBQ1780     0.2042
      7  O         22.5730   49.7830   29.2710 O.3   1780  PBQ1780    -0.2860
      8  C3        23.8670   49.4420   25.8340 C.ar  1780  PBQ1780     0.0166
      9  C7        24.9210   47.7050   31.7300 C.2   1780  PBQ1780     0.1718
     10  C8        26.2840   47.7960   31.5070 C.2   1780  PBQ1780     0.0792
     11  C9        26.4740   48.5260   30.3050 C.2   1780  PBQ1780     0.0734
     12  N11       24.3110   48.3570   30.6930 N.2   1780  PBQ1780    -0.3941
     13 BR13       26.3890   48.8020   24.6500 Br    1780  PBQ1780    -0.0490
     14 BR14       21.1810   50.0480   26.5170 Br    1780  PBQ1780    -0.0457
     15 BR17       28.1250   48.8520   29.4610 Br    1780  PBQ1780    -0.0457
     16 BR18       27.6340   47.0500   32.5910 Br    1780  PBQ1780    -0.0452
     17 BR19       23.9990   46.8610   33.1290 Br    1780  PBQ1780    -0.0133
@<TRIPOS>BOND
     1    13     5    1
     2     8     5   ar
     3     8     1   ar
     4     5     4   ar
     5    14     1    1
     6     1     6   ar
     7     4     2   ar
     8     6     2   ar
     9     6     7    1
    10     2     3    1
    11    15    11    1
    12     3    11    1
    13     3    12    2
    14    11    10    2
    15    12     9    2
    16    10     9    1
    17    10    16    1
    18     9    17    1
