@<TRIPOS>MOLECULE
2jhr_AD9_A_1.pdb
 31 33 0 0 0
SMALL
GASTEIGER

@<TRIPOS>ATOM
      1  VG        18.7880   40.8180   48.9140 V     1778  AD91778     0.0000
      2  O1G       18.6340   39.3130   48.4350 O.3   1778  AD91778     0.0000
      3  O2G       19.7570   41.6450   47.7670 O.3   1778  AD91778     0.0000
      4  O3G       17.1970   41.5890   49.0340 O.3   1778  AD91778     0.0000
      5  PB        20.4320   40.0760   51.7950 P.3   1778  AD91778     0.0000
      6  O1B       22.0410   40.6210   51.7540 O.2   1778  AD91778    -0.5000
      7  O2B       20.2670   38.5370   52.0260 O.3   1778  AD91778    -0.5000
      8  O3B       19.7140   40.7240   50.4830 O.3   1778  AD91778     0.0000
      9  PA        20.6690   42.0750   54.1180 P.3   1778  AD91778     0.0000
     10  O1A       22.0560   41.6600   54.6590 O.3   1778  AD91778    -0.5000
     11  O2A       20.6530   43.4730   53.1270 O.2   1778  AD91778    -0.5000
     12  O3A       19.8940   40.9690   53.1140 O.3   1778  AD91778     0.0000
     13  O5'       19.5160   42.4280   55.2390 O.3   1778  AD91778     0.0000
     14  C5'       18.3880   43.3920   55.1540 C.3   1778  AD91778     0.0000
     15  C4'       18.0850   43.9440   56.5330 C.3   1778  AD91778     0.0000
     16  O4'       18.1380   42.8360   57.5270 O.3   1778  AD91778     0.0000
     17  C3'       19.1440   44.9220   57.0500 C.3   1778  AD91778     0.0000
     18  O3'       18.9140   46.2630   56.5530 O.3   1778  AD91778     0.0000
     19  C2'       18.9830   44.8530   58.5640 C.3   1778  AD91778     0.0000
     20  O2'       17.8500   45.6510   59.0130 O.3   1778  AD91778     0.0000
     21  C1'       18.6510   43.3440   58.8080 C.3   1778  AD91778     0.0000
     22  N9        19.8050   42.5330   59.2630 N.pl3 1778  AD91778     0.5000
     23  C8        20.4250   41.4300   58.6520 C.3   1778  AD91778     0.0000
     24  N7        21.4560   40.9450   59.3520 N.2   1778  AD91778     0.0000
     25  C5        21.5280   41.7570   60.4870 C.2   1778  AD91778     0.0000
     26  C6        22.4010   41.7870   61.6280 C.2   1778  AD91778     0.0000
     27  N6        23.4170   40.9000   61.8020 N.pl3 1778  AD91778     0.5000
     28  N1        22.1910   42.7580   62.6060 N.2   1778  AD91778     0.5000
     29  C2        21.1830   43.6580   62.4590 C.3   1778  AD91778     0.0000
     30  C4        20.5250   42.7540   60.4530 C.2   1778  AD91778     0.0000
     31  N3        20.3100   43.7190   61.4220 N.2   1778  AD91778     0.5000
@<TRIPOS>BOND
     1     3     1    1
     2     2     1    1
     3     1     4    1
     4     1     8    1
     5     8     5    1
     6     6     5    2
     7     5     7    1
     8     5    12    1
     9    12     9    1
    10    11     9    2
    11     9    10    1
    12     9    13    1
    13    14    13    1
    14    14    15    1
    15    15    17    1
    16    15    16    1
    17    18    17    1
    18    17    19    1
    19    16    21    1
    20    19    21    1
    21    19    20    1
    22    23    22    1
    23    23    24    1
    24    21    22    1
    25    22    30    1
    26    24    25    2
    27    30    25    1
    28    30    31    2
    29    25    26    1
    30    31    29    1
    31    26    27    1
    32    26    28    2
    33    29    28    1
