@<TRIPOS>MOLECULE
2ji5_UTP_A_1.pdb
 29 30 0 0 0
SMALL
GASTEIGER

@<TRIPOS>ATOM
      1  PA        45.3310   76.9730   32.8580 P.3   2000  UTP2000     0.2189
      2  O1A       46.7360   77.2500   33.2380 O.2   2000  UTP2000    -0.5170
      3  O2A       44.5960   75.8610   33.5090 O.3   2000  UTP2000    -0.4371
      4  O3A       45.2310   76.7920   31.2320 O.3   2000  UTP2000    -0.2700
      5  O5'       44.4700   78.2900   32.9780 O.3   2000  UTP2000    -0.3112
      6  PB        45.3760   75.5470   30.2460 P.3   2000  UTP2000     0.2277
      7  O1B       46.7750   74.8580   30.1980 O.3   2000  UTP2000    -0.4368
      8  O2B       45.2160   76.2790   28.9560 O.2   2000  UTP2000    -0.5168
      9  O3B       43.9630   74.8310   30.5110 O.3   2000  UTP2000    -0.2258
     10  PG        43.3030   73.4980   29.9180 P.3   2000  UTP2000     0.5373
     11  O1G       41.9250   73.3390   30.5900 O.3   2000  UTP2000    -0.1143
     12  O2G       43.2270   73.7580   28.4330 O.2   2000  UTP2000    -0.2221
     13  O3G       44.2140   72.3100   30.2530 O.3   2000  UTP2000    -0.1143
     14  C5'       43.0850   78.2720   32.6660 C.3   2000  UTP2000     0.1813
     15  C4'       42.6970   79.4250   31.7820 C.3   2000  UTP2000     0.1799
     16  O4'       42.8380   80.7130   32.4580 O.3   2000  UTP2000    -0.3320
     17  C1'       43.6410   81.6140   31.7140 C.3   2000  UTP2000     0.2401
     18  C2'       43.9570   80.9550   30.3650 C.3   2000  UTP2000     0.2319
     19  O2'       43.3480   81.6970   29.3340 O.3   2000  UTP2000    -0.2157
     20  C3'       43.4520   79.5140   30.4590 C.3   2000  UTP2000     0.2158
     21  O3'       42.5870   79.1750   29.3770 O.3   2000  UTP2000    -0.2175
     22  N1        44.8920   81.9960   32.4610 N.am  2000  UTP2000    -0.1766
     23  C6        45.4270   81.2170   33.4990 C.2   2000  UTP2000     0.0929
     24  C2        45.5340   83.1990   32.0660 C.1   2000  UTP2000     0.2845
     25  O2        45.1230   83.9180   31.1680 O.2   2000  UTP2000    -0.1918
     26  N3        46.6870   83.5100   32.7830 N.2   2000  UTP2000    -0.2452
     27  C4        47.2630   82.7670   33.8310 C.1   2000  UTP2000     0.2182
     28  O4        48.2960   83.1840   34.3750 O.2   2000  UTP2000    -0.2085
     29  C5        46.5530   81.5480   34.1760 C.2   2000  UTP2000     0.1242
@<TRIPOS>BOND
     1    12    10    2
     2     8     6    2
     3    19    18    1
     4    21    20    1
     5    10    13    1
     6    10     9    1
     7    10    11    1
     8     7     6    1
     9     6     9    1
    10     6     4    1
    11    18    20    1
    12    18    17    1
    13    20    15    1
    14    25    24    2
    15     4     1    1
    16    17    16    1
    17    17    22    1
    18    15    16    1
    19    15    14    1
    20    24    22   am
    21    24    26    2
    22    22    23    1
    23    14     5    1
    24    26    27    2
    25     1     5    1
    26     1     2    2
    27     1     3    1
    28    23    29    2
    29    27    29    1
    30    27    28    2
