@<TRIPOS>MOLECULE
2ji6_TPW_A_1.pdb
 26 27 0 0 0
SMALL
GASTEIGER

@<TRIPOS>ATOM
      1  C2A       68.0890   -4.0060   -4.3570 C.3   1566  TPW1566     0.1291
      2  C35       73.7090   -4.2100   -3.0790 C.3   1566  TPW1566     0.0585
      3  C2        74.5750   -6.2320   -1.9150 C.ar  1566  TPW1566     0.0309
      4  S1        74.8510   -6.9370   -0.3580 S.2   1566  TPW1566    -0.0913
      5  C5        74.1750   -5.5260    0.3800 C.ar  1566  TPW1566     0.0056
      6  C4        73.7610   -4.5840   -0.5420 C.ar  1566  TPW1566    -0.0229
      7  C4A       73.1570   -3.2780   -0.1200 C.3   1566  TPW1566     0.0309
      8  C5A       74.0910   -5.5150    1.8800 C.3   1566  TPW1566     0.0651
      9  C5B       75.1580   -6.3390    2.5750 C.3   1566  TPW1566     0.1543
     10  O5G       75.0300   -6.1240    3.9610 O.3   1566  TPW1566    -0.3134
     11  P1        74.1880   -7.1600    4.8520 P.3   1566  TPW1566     0.2230
     12  O11       75.0930   -8.5080    4.9850 O.3   1566  TPW1566    -0.2261
     13  O12       72.8550   -7.5220    4.2310 O.2   1566  TPW1566    -0.5169
     14  O13       73.9610   -6.5410    6.1990 O.3   1566  TPW1566    -0.4370
     15  P2        76.5060   -8.6210    5.7930 P.3   1566  TPW1566     0.5373
     16  O21       76.4920   -9.8590    6.6200 O.3   1566  TPW1566    -0.1143
     17  O22       77.6400   -8.7170    4.8130 O.2   1566  TPW1566    -0.2221
     18  O23       76.6560   -7.4330    6.7120 O.3   1566  TPW1566    -0.1143
     19  N1'       70.1910   -2.9590   -3.5790 N.2   1566  TPW1566    -0.1862
     20  C2'       69.5390   -4.0840   -4.0220 C.1   1566  TPW1566     0.0663
     21  N3'       70.2220   -5.2720   -4.1780 N.2   1566  TPW1566    -0.3369
     22  C4'       71.5700   -5.3570   -3.8870 C.2   1566  TPW1566     0.2279
     23  N4'       72.2120   -6.5260   -4.0620 N.pl3 1566  TPW1566    -0.0925
     24  C5'       72.2300   -4.2100   -3.4280 C.2   1566  TPW1566     0.0499
     25  C6'       71.5320   -3.0120   -3.2850 C.2   1566  TPW1566     0.1102
     26  C3        74.0070   -4.9870   -1.8290 C.ar  1566  TPW1566    -0.0149
@<TRIPOS>BOND
     1     1    20    1
     2    21    20    2
     3    21    22    2
     4    23    22    1
     5    20    19    2
     6    22    24    1
     7    19    25    1
     8    24    25    2
     9    24     2    1
    10     2    26    1
    11     3    26   ar
    12     3     4   ar
    13    26     6   ar
    14     6     7    1
    15     6     5   ar
    16     4     5   ar
    17     5     8    1
    18     8     9    1
    19     9    10    1
    20    10    11    1
    21    13    11    2
    22    17    15    2
    23    11    12    1
    24    11    14    1
    25    12    15    1
    26    15    16    1
    27    15    18    1
