@<TRIPOS>MOLECULE
2ji6_ADP_A_1.pdb
 27 29 0 0 0
SMALL
GASTEIGER

@<TRIPOS>ATOM
      1  PB        71.1160  -21.4570  -10.7730 P.3   1568  ADP1568     0.5373
      2  O1B       72.3600  -21.9050  -11.5080 O.2   1568  ADP1568    -0.2221
      3  O2B       71.0650  -19.9840  -10.4470 O.3   1568  ADP1568    -0.1143
      4  O3B       70.7290  -22.3360   -9.6160 O.3   1568  ADP1568    -0.1143
      5  PA        69.5410  -20.7100  -13.0800 P.3   1568  ADP1568     0.2231
      6  O1A       70.8140  -20.0960  -13.6510 O.2   1568  ADP1568    -0.5169
      7  O2A       68.4030  -19.7980  -12.6610 O.3   1568  ADP1568    -0.4370
      8  O3A       69.9360  -21.7180  -11.8590 O.3   1568  ADP1568    -0.2261
      9  O5'       69.0110  -21.7790  -14.1610 O.3   1568  ADP1568    -0.3111
     10  C5'       67.6820  -22.2910  -14.2550 C.3   1568  ADP1568     0.1813
     11  C4'       67.5470  -22.9280  -15.6380 C.3   1568  ADP1568     0.1821
     12  O4'       66.6770  -24.0620  -15.6100 O.3   1568  ADP1568    -0.3135
     13  C3'       66.9900  -21.9600  -16.6860 C.3   1568  ADP1568     0.2184
     14  O3'       67.9290  -21.8510  -17.7620 O.3   1568  ADP1568    -0.2174
     15  C2'       65.6630  -22.5490  -17.1430 C.3   1568  ADP1568     0.2570
     16  O2'       65.4340  -22.4150  -18.5560 O.3   1568  ADP1568    -0.2130
     17  C1'       65.7950  -24.0110  -16.7370 C.3   1568  ADP1568     0.3186
     18  N9        64.5410  -24.6820  -16.3350 N.pl3 1568  ADP1568    -0.1439
     19  C8        63.5780  -24.2370  -15.5090 C.3   1568  ADP1568     0.3377
     20  N7        62.6120  -25.1830  -15.3680 N.2   1568  ADP1568    -0.2095
     21  C5        62.9750  -26.2520  -16.1000 C.2   1568  ADP1568     0.2526
     22  C6        62.4220  -27.5950  -16.4060 C.2   1568  ADP1568     0.4393
     23  N6        61.2450  -28.0010  -15.8740 N.pl3 1568  ADP1568     0.2180
     24  N1        63.1370  -28.3890  -17.2330 N.2   1568  ADP1568     0.0021
     25  C2        64.3120  -28.0080  -17.7770 C.3   1568  ADP1568     0.5254
     26  N3        64.8710  -26.8060  -17.5430 N.2   1568  ADP1568    -0.0055
     27  C4        64.2570  -25.9160  -16.7280 C.2   1568  ADP1568     0.3518
@<TRIPOS>BOND
     1    16    15    1
     2    25    26    1
     3    25    24    1
     4    14    13    1
     5    26    27    2
     6    24    22    2
     7    15    17    1
     8    15    13    1
     9    17    18    1
    10    17    12    1
    11    27    18    1
    12    27    21    1
    13    13    11    1
    14    22    21    1
    15    22    23    1
    16    18    19    1
    17    21    20    2
    18    11    12    1
    19    11    10    1
    20    19    20    1
    21    10     9    1
    22     9     5    1
    23     6     5    2
    24     5     7    1
    25     5     8    1
    26     8     1    1
    27     2     1    2
    28     1     3    1
    29     1     4    1
