@<TRIPOS>MOLECULE
2ji7_ADP_A_1.pdb
 27 29 0 0 0
SMALL
GASTEIGER

@<TRIPOS>ATOM
      1  PB        70.8250  -21.3100  -10.7210 P.3   1568  ADP1568     0.5373
      2  O1B       72.1020  -21.7740  -11.3990 O.2   1568  ADP1568    -0.2221
      3  O2B       70.7760  -19.8400  -10.4120 O.3   1568  ADP1568    -0.1143
      4  O3B       70.4740  -22.2240   -9.5670 O.3   1568  ADP1568    -0.1143
      5  PA        69.2150  -20.5800  -12.9980 P.3   1568  ADP1568     0.2231
      6  O1A       70.4370  -19.9160  -13.5710 O.2   1568  ADP1568    -0.5169
      7  O2A       68.0490  -19.7410  -12.5450 O.3   1568  ADP1568    -0.4370
      8  O3A       69.6430  -21.5880  -11.8060 O.3   1568  ADP1568    -0.2261
      9  O5'       68.7430  -21.5960  -14.1330 O.3   1568  ADP1568    -0.3111
     10  C5'       67.4360  -22.1480  -14.1410 C.3   1568  ADP1568     0.1813
     11  C4'       67.2730  -22.8210  -15.4950 C.3   1568  ADP1568     0.1821
     12  O4'       66.3230  -23.8730  -15.3840 O.3   1568  ADP1568    -0.3135
     13  C3'       66.7600  -21.8830  -16.5810 C.3   1568  ADP1568     0.2184
     14  O3'       67.7230  -21.8660  -17.6400 O.3   1568  ADP1568    -0.2174
     15  C2'       65.4020  -22.4530  -16.9910 C.3   1568  ADP1568     0.2570
     16  O2'       65.1440  -22.3730  -18.3970 O.3   1568  ADP1568    -0.2130
     17  C1'       65.5110  -23.8970  -16.5640 C.3   1568  ADP1568     0.3186
     18  N9        64.2700  -24.5980  -16.1790 N.pl3 1568  ADP1568    -0.1439
     19  C8        63.3200  -24.1780  -15.3280 C.3   1568  ADP1568     0.3377
     20  N7        62.3480  -25.1290  -15.1910 N.2   1568  ADP1568    -0.2095
     21  C5        62.7140  -26.1870  -15.9540 C.2   1568  ADP1568     0.2526
     22  C6        62.1770  -27.5330  -16.2750 C.2   1568  ADP1568     0.4393
     23  N6        61.0150  -27.9540  -15.7280 N.pl3 1568  ADP1568     0.2180
     24  N1        62.8840  -28.3170  -17.1260 N.2   1568  ADP1568     0.0021
     25  C2        64.0430  -27.9090  -17.6850 C.3   1568  ADP1568     0.5254
     26  N3        64.5910  -26.7020  -17.4380 N.2   1568  ADP1568    -0.0055
     27  C4        63.9860  -25.8270  -16.5940 C.2   1568  ADP1568     0.3518
@<TRIPOS>BOND
     1    16    15    1
     2    25    26    1
     3    25    24    1
     4    14    13    1
     5    26    27    2
     6    24    22    2
     7    15    13    1
     8    15    17    1
     9    27    18    1
    10    27    21    1
    11    13    11    1
    12    17    18    1
    13    17    12    1
    14    22    21    1
    15    22    23    1
    16    18    19    1
    17    21    20    2
    18    11    12    1
    19    11    10    1
    20    19    20    1
    21    10     9    1
    22     9     5    1
    23     6     5    2
    24     5     7    1
    25     5     8    1
    26     8     1    1
    27     2     1    2
    28     1     3    1
    29     1     4    1
