@<TRIPOS>MOLECULE
2ji8_FYN_A_1.pdb
 50 52 0 0 0
SMALL
GASTEIGER

@<TRIPOS>ATOM
      1  C8        81.5590  -25.2040    0.6440 C.3   1569  FYN1569     0.3377
      2  N9        82.8160  -25.0120    1.0730 N.pl3 1569  FYN1569    -0.1439
      3  C4        82.9970  -25.6890    2.2110 C.2   1569  FYN1569     0.3518
      4  C5        81.8060  -26.3380    2.4960 C.2   1569  FYN1569     0.2526
      5  N7        80.9300  -26.0260    1.5140 N.2   1569  FYN1569    -0.2095
      6  N3        84.0650  -25.8370    3.0420 N.2   1569  FYN1569    -0.0055
      7  C2        83.9710  -26.6020    4.1400 C.3   1569  FYN1569     0.5254
      8  N1        82.8250  -27.2410    4.4410 N.2   1569  FYN1569     0.0021
      9  C6        81.7330  -27.1240    3.6440 C.2   1569  FYN1569     0.4393
     10  N6        80.5800  -27.7700    3.9480 N.pl3 1569  FYN1569     0.2180
     11  C1'       83.8770  -24.1950    0.4410 C.3   1569  FYN1569     0.3185
     12  C2'       83.9740  -24.3300   -1.0780 C.3   1569  FYN1569     0.2543
     13  O2'       84.7220  -25.4770   -1.4880 O.3   1569  FYN1569    -0.2131
     14  C3'       84.6670  -23.0320   -1.4380 C.3   1569  FYN1569     0.1928
     15  O3'       86.0910  -23.1450   -1.3100 O.3   1569  FYN1569    -0.2673
     16  C4'       84.1480  -22.0490   -0.3940 C.3   1569  FYN1569     0.1795
     17  O4'       83.6360  -22.8150    0.6960 O.3   1569  FYN1569    -0.3136
     18  C5'       83.0480  -21.1530   -0.9380 C.3   1569  FYN1569     0.1812
     19  O5'       81.9080  -21.9350   -1.3030 O.3   1569  FYN1569    -0.3112
     20  P1        80.9660  -21.4900   -2.5310 P.3   1569  FYN1569     0.2189
     21  O11       80.1670  -20.2850   -2.0870 O.3   1569  FYN1569    -0.4371
     22  O12       80.2290  -22.7150   -3.0090 O.2   1569  FYN1569    -0.5170
     23  O6        82.0390  -21.0990   -3.6770 O.3   1569  FYN1569    -0.2703
     24  P2        82.2850  -19.6450   -4.3490 P.3   1569  FYN1569     0.2188
     25  O21       83.6790  -19.6450   -4.9340 O.2   1569  FYN1569    -0.5170
     26  O22       81.8550  -18.5360   -3.4170 O.3   1569  FYN1569    -0.4371
     27  O7        81.2640  -19.6660   -5.5950 O.3   1569  FYN1569    -0.3138
     28  CPB       81.1290  -18.5320   -6.4550 C.3   1569  FYN1569     0.1519
     29  CPA       79.6670  -18.1060   -6.4790 C.3   1569  FYN1569     0.0645
     30  CP7       79.1910  -17.8270   -5.0450 C.3   1569  FYN1569     0.2312
     31  CP9       79.5430  -16.8450   -7.3220 C.3   1569  FYN1569     0.0056
     32  CP8       78.8480  -19.2460   -7.0700 C.3   1569  FYN1569     0.0056
     33  OP3       80.0640  -16.8610   -4.4220 O.3   1569  FYN1569    -0.2131
     34  CP6       77.7750  -17.3110   -5.0140 C.2   1569  FYN1569     0.2719
     35  OP2       76.8200  -18.0480   -5.2500 O.2   1569  FYN1569    -0.2706
     36  NP2       77.6440  -16.0260   -4.6990 N.am  1569  FYN1569    -0.2028
     37  CP5       76.4070  -15.2790   -4.6000 C.3   1569  FYN1569     0.1248
     38  CP4       76.8210  -13.8460   -4.3250 C.3   1569  FYN1569     0.1102
     39  CP3       75.5910  -12.9770   -4.2320 C.2   1569  FYN1569     0.2432
     40  OP1       74.5590  -13.2360   -4.8350 O.2   1569  FYN1569    -0.2733
     41  NP1       75.7280  -11.9260   -3.4450 N.am  1569  FYN1569    -0.2044
     42  CP2       74.7660  -10.8920   -3.1180 C.3   1569  FYN1569     0.1272
     43  CP1       75.5920   -9.9010   -2.3110 C.3   1569  FYN1569     0.0888
     44  S         76.6090   -9.0310   -3.4300 S.3   1569  FYN1569    -0.0671
     45  P3        87.1070  -23.3510   -2.5490 P.3   1569  FYN1569     0.5327
     46  O31       86.7710  -22.2430   -3.5250 O.2   1569  FYN1569    -0.2224
     47  O32       88.4750  -23.1770   -1.9210 O.3   1569  FYN1569    -0.1145
     48  O33       86.7980  -24.7530   -3.0320 O.3   1569  FYN1569    -0.1145
     49  CM1       77.8840   -8.4970   -2.3630 C.2   1569  FYN1569     0.2662
     50  OM2       78.4970   -7.4610   -2.6710 O.2   1569  FYN1569    -0.2757
@<TRIPOS>BOND
     1    31    29    1
     2    32    29    1
     3    29    28    1
     4    29    30    1
     5    28    27    1
     6    27    24    1
     7    35    34    2
     8    30    34    1
     9    30    33    1
    10    34    36   am
    11    25    24    2
    12    40    39    2
    13    36    37    1
    14    37    38    1
    15    24    23    1
    16    24    26    1
    17    38    39    1
    18    39    41   am
    19    23    20    1
    20    46    45    2
    21    41    42    1
    22    44    49    1
    23    44    43    1
    24    42    43    1
    25    48    45    1
    26    22    20    2
    27    50    49    2
    28    45    47    1
    29    45    15    1
    30    20    21    1
    31    20    19    1
    32    13    12    1
    33    14    15    1
    34    14    12    1
    35    14    16    1
    36    19    18    1
    37    12    11    1
    38    18    16    1
    39    16    17    1
    40    11    17    1
    41    11     2    1
    42     1     2    1
    43     1     5    1
    44     2     3    1
    45     5     4    2
    46     3     4    1
    47     3     6    2
    48     4     9    1
    49     6     7    1
    50     9    10    1
    51     9     8    2
    52     7     8    1
