@<TRIPOS>MOLECULE
2ji8_TPP_A_1.pdb
 26 27 0 0 0
SMALL
GASTEIGER

@<TRIPOS>ATOM
      1  N1'       70.5830   -3.0490   -3.5780 N.2   1566  TPP1566    -0.1861
      2  C2'       69.9440   -4.1740   -4.0560 C.1   1566  TPP1566     0.0663
      3  CM2       68.5030   -4.0790   -4.4290 C.3   1566  TPP1566     0.1291
      4  N3'       70.6330   -5.3580   -4.2230 N.2   1566  TPP1566    -0.3368
      5  C4'       71.9810   -5.4330   -3.9270 C.2   1566  TPP1566     0.2292
      6  N4'       72.6470   -6.5830   -4.1070 N.pl3 1566  TPP1566    -0.0925
      7  C5'       72.6310   -4.2940   -3.4360 C.2   1566  TPP1566     0.0654
      8  C6'       71.9250   -3.1020   -3.2740 C.2   1566  TPP1566     0.1115
      9  C7'       74.1060   -4.3270   -3.1100 C.3   1566  TPP1566     0.1237
     10  N3        74.3700   -5.0710   -1.9110 N.pl3 1566  TPP1566    -0.2970
     11  C2        74.9670   -6.3080   -1.8820 C.3   1566  TPP1566     0.1543
     12  S1        75.1490   -6.8800   -0.3880 S.3   1566  TPP1566    -0.0951
     13  C5        74.4800   -5.5810    0.2560 C.2   1566  TPP1566     0.0164
     14  C4        74.0820   -4.6300   -0.6650 C.2   1566  TPP1566     0.0279
     15  CM4       73.4370   -3.3140   -0.3170 C.3   1566  TPP1566     0.0473
     16  C6        74.3560   -5.5570    1.7550 C.3   1566  TPP1566     0.0661
     17  C7        75.3540   -6.4400    2.5010 C.3   1566  TPP1566     0.1544
     18  O7        75.2650   -6.1720    3.8910 O.3   1566  TPP1566    -0.3134
     19  PA        74.5100   -7.2040    4.8580 P.3   1566  TPP1566     0.2230
     20  O1A       74.2950   -6.5410    6.1890 O.3   1566  TPP1566    -0.4370
     21  O2A       73.1930   -7.6330    4.2550 O.2   1566  TPP1566    -0.5169
     22  O3A       75.4980   -8.4820    4.9950 O.3   1566  TPP1566    -0.2261
     23  PB        76.9080   -8.5110    5.8090 P.3   1566  TPP1566     0.5373
     24  O1B       78.0590   -8.4720    4.8460 O.2   1566  TPP1566    -0.2221
     25  O2B       76.8980   -9.8130    6.5770 O.3   1566  TPP1566    -0.1143
     26  O3B       77.0740   -7.3380    6.7390 O.3   1566  TPP1566    -0.1143
@<TRIPOS>BOND
     1     3     2    1
     2     4     2    2
     3     4     5    2
     4     6     5    1
     5     2     1    2
     6     5     7    1
     7     1     8    1
     8     7     8    2
     9     7     9    1
    10     9    10    1
    11    10    11    1
    12    10    14    1
    13    11    12    1
    14    14    15    1
    15    14    13    2
    16    12    13    1
    17    13    16    1
    18    16    17    1
    19    17    18    1
    20    18    19    1
    21    21    19    2
    22    24    23    2
    23    19    22    1
    24    19    20    1
    25    22    23    1
    26    23    25    1
    27    23    26    1
