@<TRIPOS>MOLECULE
2ji8_ADP_A_1.pdb
 27 29 0 0 0
SMALL
GASTEIGER

@<TRIPOS>ATOM
      1  PB        71.4730  -21.5580  -10.8860 P.3   1568  ADP1568     0.5373
      2  O1B       72.7440  -22.0100  -11.5850 O.2   1568  ADP1568    -0.2221
      3  O2B       71.4720  -20.0740  -10.6220 O.3   1568  ADP1568    -0.1143
      4  O3B       71.0300  -22.4400   -9.7470 O.3   1568  ADP1568    -0.1143
      5  PA        69.8030  -20.8160  -13.1360 P.3   1568  ADP1568     0.2231
      6  O1A       71.0540  -20.1460  -13.6270 O.2   1568  ADP1568    -0.5169
      7  O2A       68.6390  -19.9110  -12.7600 O.3   1568  ADP1568    -0.4370
      8  O3A       70.2570  -21.8210  -11.9480 O.3   1568  ADP1568    -0.2261
      9  O5'       69.3270  -21.8600  -14.2440 O.3   1568  ADP1568    -0.3111
     10  C5'       68.0210  -22.4370  -14.2820 C.3   1568  ADP1568     0.1813
     11  C4'       67.8190  -23.0730  -15.6570 C.3   1568  ADP1568     0.1821
     12  O4'       66.8870  -24.1510  -15.5940 O.3   1568  ADP1568    -0.3135
     13  C3'       67.2680  -22.0910  -16.6830 C.3   1568  ADP1568     0.2184
     14  O3'       68.1710  -21.9920  -17.7890 O.3   1568  ADP1568    -0.2174
     15  C2'       65.9160  -22.6430  -17.1070 C.3   1568  ADP1568     0.2570
     16  O2'       65.6400  -22.4570  -18.5020 O.3   1568  ADP1568    -0.2130
     17  C1'       66.0340  -24.1170  -16.7330 C.3   1568  ADP1568     0.3186
     18  N9        64.7870  -24.7980  -16.3320 N.pl3 1568  ADP1568    -0.1439
     19  C8        63.8000  -24.3460  -15.5310 C.3   1568  ADP1568     0.3377
     20  N7        62.8320  -25.2920  -15.3800 N.2   1568  ADP1568    -0.2095
     21  C5        63.2090  -26.3720  -16.0870 C.2   1568  ADP1568     0.2526
     22  C6        62.6750  -27.7300  -16.3600 C.2   1568  ADP1568     0.4393
     23  N6        61.4970  -28.1510  -15.8480 N.pl3 1568  ADP1568     0.2180
     24  N1        63.4030  -28.5320  -17.1590 N.2   1568  ADP1568     0.0021
     25  C2        64.5800  -28.1480  -17.6960 C.3   1568  ADP1568     0.5254
     26  N3        65.1290  -26.9370  -17.4840 N.2   1568  ADP1568    -0.0055
     27  C4        64.5050  -26.0370  -16.7020 C.2   1568  ADP1568     0.3518
@<TRIPOS>BOND
     1    16    15    1
     2    14    13    1
     3    25    26    1
     4    25    24    1
     5    26    27    2
     6    24    22    2
     7    15    17    1
     8    15    13    1
     9    17    18    1
    10    17    12    1
    11    27    18    1
    12    27    21    1
    13    13    11    1
    14    22    21    1
    15    22    23    1
    16    18    19    1
    17    21    20    2
    18    11    12    1
    19    11    10    1
    20    19    20    1
    21    10     9    1
    22     9     5    1
    23     6     5    2
    24     5     7    1
    25     5     8    1
    26     8     1    1
    27     2     1    2
    28     1     3    1
    29     1     4    1
