@<TRIPOS>MOLECULE
2ji9_TPW_A_1.pdb
 26 27 0 0 0
SMALL
GASTEIGER

@<TRIPOS>ATOM
      1  C2A       68.4000   -4.1480   -4.2310 C.3   1554  TPW1554     0.1291
      2  C35       74.0950   -4.2810   -3.2210 C.3   1554  TPW1554     0.0585
      3  C2        75.0480   -6.3000   -2.0420 C.ar  1554  TPW1554     0.0309
      4  S1        75.3120   -6.9980   -0.4740 S.2   1554  TPW1554    -0.0913
      5  C5        74.5610   -5.6090    0.2400 C.ar  1554  TPW1554     0.0056
      6  C4        74.1400   -4.6790   -0.7060 C.ar  1554  TPW1554    -0.0229
      7  C4A       73.4550   -3.3880   -0.3390 C.3   1554  TPW1554     0.0309
      8  C5A       74.4220   -5.5900    1.7420 C.3   1554  TPW1554     0.0651
      9  C5B       75.5590   -6.2470    2.5220 C.3   1554  TPW1554     0.1543
     10  O5G       75.3490   -6.0150    3.8970 O.3   1554  TPW1554    -0.3134
     11  P1        74.6640   -7.1310    4.8310 P.3   1554  TPW1554     0.2230
     12  O11       75.7350   -8.3420    4.8450 O.3   1554  TPW1554    -0.2261
     13  O12       73.3870   -7.6880    4.2590 O.2   1554  TPW1554    -0.5169
     14  O13       74.4590   -6.5190    6.1850 O.3   1554  TPW1554    -0.4370
     15  P2        76.9660   -8.5210    5.8700 P.3   1554  TPW1554     0.5373
     16  O21       78.2360   -8.6100    5.0670 O.2   1554  TPW1554    -0.2221
     17  O22       77.0120   -7.3680    6.8360 O.3   1554  TPW1554    -0.1143
     18  O23       76.8020   -9.8250    6.6120 O.3   1554  TPW1554    -0.1143
     19  N1'       70.5170   -3.0540   -3.5280 N.2   1554  TPW1554    -0.1862
     20  C2'       69.8690   -4.1820   -3.9710 C.1   1554  TPW1554     0.0663
     21  N3'       70.5780   -5.3480   -4.1670 N.2   1554  TPW1554    -0.3369
     22  C4'       71.9460   -5.4060   -3.9400 C.2   1554  TPW1554     0.2279
     23  N4'       72.6170   -6.5560   -4.1430 N.pl3 1554  TPW1554    -0.0925
     24  C5'       72.6020   -4.2650   -3.4930 C.2   1554  TPW1554     0.0499
     25  C6'       71.8780   -3.0900   -3.2940 C.2   1554  TPW1554     0.1102
     26  C3        74.4210   -5.0770   -1.9810 C.ar  1554  TPW1554    -0.0149
@<TRIPOS>BOND
     1     1    20    1
     2    21    20    2
     3    21    22    2
     4    23    22    1
     5    20    19    2
     6    22    24    1
     7    19    25    1
     8    24    25    2
     9    24     2    1
    10     2    26    1
    11     3    26   ar
    12     3     4   ar
    13    26     6   ar
    14     6     7    1
    15     6     5   ar
    16     4     5   ar
    17     5     8    1
    18     8     9    1
    19     9    10    1
    20    10    11    1
    21    13    11    2
    22    11    12    1
    23    11    14    1
    24    12    15    1
    25    16    15    2
    26    15    18    1
    27    15    17    1
