@<TRIPOS>MOLECULE
2ji9_ADP_A_1.pdb
 27 29 0 0 0
SMALL
GASTEIGER

@<TRIPOS>ATOM
      1  PB        71.5040  -21.5900  -10.9340 P.3   1556  ADP1556     0.5373
      2  O1B       72.6820  -22.1040  -11.7440 O.2   1556  ADP1556    -0.2221
      3  O2B       71.5330  -20.1040  -10.6230 O.3   1556  ADP1556    -0.1143
      4  O3B       71.1700  -22.4680   -9.7520 O.3   1556  ADP1556    -0.1143
      5  PA        69.8180  -20.8370  -13.1520 P.3   1556  ADP1556     0.2231
      6  O1A       71.0790  -20.1890  -13.6750 O.2   1556  ADP1556    -0.5169
      7  O2A       68.6380  -19.9430  -12.8040 O.3   1556  ADP1556    -0.4370
      8  O3A       70.2110  -21.8030  -11.9080 O.3   1556  ADP1556    -0.2261
      9  O5'       69.3490  -21.9300  -14.2260 O.3   1556  ADP1556    -0.3111
     10  C5'       67.9930  -22.3230  -14.4100 C.3   1556  ADP1556     0.1813
     11  C4'       67.9080  -22.9640  -15.7890 C.3   1556  ADP1556     0.1821
     12  O4'       67.0580  -24.1110  -15.7540 O.3   1556  ADP1556    -0.3135
     13  C3'       67.3630  -22.0210  -16.8550 C.3   1556  ADP1556     0.2184
     14  O3'       68.3300  -21.9320  -17.9090 O.3   1556  ADP1556    -0.2174
     15  C2'       66.0490  -22.6390  -17.3110 C.3   1556  ADP1556     0.2570
     16  O2'       65.8700  -22.5040  -18.7270 O.3   1556  ADP1556    -0.2130
     17  C1'       66.1810  -24.0980  -16.8750 C.3   1556  ADP1556     0.3186
     18  N9        64.9430  -24.7810  -16.4420 N.pl3 1556  ADP1556    -0.1439
     19  C8        63.9870  -24.3330  -15.6000 C.3   1556  ADP1556     0.3377
     20  N7        63.0210  -25.2770  -15.4310 N.2   1556  ADP1556    -0.2095
     21  C5        63.3640  -26.3550  -16.1650 C.2   1556  ADP1556     0.2526
     22  C6        62.8030  -27.7030  -16.4510 C.2   1556  ADP1556     0.4393
     23  N6        61.6400  -28.1180  -15.9020 N.pl3 1556  ADP1556     0.2180
     24  N1        63.5050  -28.5110  -17.2810 N.2   1556  ADP1556     0.0021
     25  C2        64.6750  -28.1270  -17.8480 C.3   1556  ADP1556     0.5254
     26  N3        65.2380  -26.9210  -17.6360 N.2   1556  ADP1556    -0.0055
     27  C4        64.6430  -26.0190  -16.8220 C.2   1556  ADP1556     0.3518
@<TRIPOS>BOND
     1    16    15    1
     2    14    13    1
     3    25    26    1
     4    25    24    1
     5    26    27    2
     6    15    17    1
     7    15    13    1
     8    24    22    2
     9    17    18    1
    10    17    12    1
    11    13    11    1
    12    27    18    1
    13    27    21    1
    14    22    21    1
    15    22    23    1
    16    18    19    1
    17    21    20    2
    18    11    12    1
    19    11    10    1
    20    19    20    1
    21    10     9    1
    22     9     5    1
    23     6     5    2
    24     5     7    1
    25     5     8    1
    26     8     1    1
    27     2     1    2
    28     1     3    1
    29     1     4    1
