@<TRIPOS>MOLECULE
2jib_ADP_A_1.pdb
 27 29 0 0 0
SMALL
GASTEIGER

@<TRIPOS>ATOM
      1  PB        78.3150  -20.3860   -9.3100 P.3   1568  ADP1568     0.5373
      2  O1B       79.5260  -20.8940  -10.0560 O.2   1568  ADP1568    -0.2221
      3  O2B       78.3510  -18.8830   -9.1300 O.3   1568  ADP1568    -0.1143
      4  O3B       77.9830  -21.1730   -8.0750 O.3   1568  ADP1568    -0.1143
      5  PA        76.6140  -19.7760  -11.5480 P.3   1568  ADP1568     0.2231
      6  O1A       77.8410  -19.0770  -12.0730 O.2   1568  ADP1568    -0.5169
      7  O2A       75.3840  -18.9630  -11.2470 O.3   1568  ADP1568    -0.4370
      8  O3A       77.0400  -20.6900  -10.2720 O.3   1568  ADP1568    -0.2261
      9  O5'       76.1930  -20.9080  -12.5830 O.3   1568  ADP1568    -0.3111
     10  C5'       74.8600  -21.3980  -12.6210 C.3   1568  ADP1568     0.1813
     11  C4'       74.7090  -22.1460  -13.9350 C.3   1568  ADP1568     0.1821
     12  O4'       73.8180  -23.2520  -13.7590 O.3   1568  ADP1568    -0.3135
     13  C3'       74.1630  -21.2730  -15.0630 C.3   1568  ADP1568     0.2184
     14  O3'       75.0910  -21.2340  -16.1550 O.3   1568  ADP1568    -0.2174
     15  C2'       72.8400  -21.9320  -15.4440 C.3   1568  ADP1568     0.2570
     16  O2'       72.6100  -21.9110  -16.8570 O.3   1568  ADP1568    -0.2130
     17  C1'       72.9880  -23.3550  -14.9060 C.3   1568  ADP1568     0.3186
     18  N9        71.7560  -24.0270  -14.4500 N.pl3 1568  ADP1568    -0.1439
     19  C8        70.8180  -23.5530  -13.6170 C.3   1568  ADP1568     0.3377
     20  N7        69.8460  -24.4870  -13.4120 N.2   1568  ADP1568    -0.2095
     21  C5        70.1890  -25.5790  -14.1150 C.2   1568  ADP1568     0.2526
     22  C6        69.6280  -26.9190  -14.3520 C.2   1568  ADP1568     0.4393
     23  N6        68.4710  -27.2710  -13.7660 N.pl3 1568  ADP1568     0.2180
     24  N1        70.3040  -27.7620  -15.1640 N.2   1568  ADP1568     0.0021
     25  C2        71.4630  -27.4080  -15.7620 C.3   1568  ADP1568     0.5254
     26  N3        72.0310  -26.2040  -15.5850 N.2   1568  ADP1568    -0.0055
     27  C4        71.4520  -25.2740  -14.7910 C.2   1568  ADP1568     0.3518
@<TRIPOS>BOND
     1    16    15    1
     2    14    13    1
     3    25    26    1
     4    25    24    1
     5    26    27    2
     6    15    13    1
     7    15    17    1
     8    24    22    2
     9    13    11    1
    10    17    18    1
    11    17    12    1
    12    27    18    1
    13    27    21    1
    14    18    19    1
    15    22    21    1
    16    22    23    1
    17    21    20    2
    18    11    12    1
    19    11    10    1
    20    19    20    1
    21    10     9    1
    22     9     5    1
    23     6     5    2
    24     5     7    1
    25     5     8    1
    26     8     1    1
    27     2     1    2
    28     1     3    1
    29     1     4    1
