@<TRIPOS>MOLECULE
2jib_TPP_A_1.pdb
 26 27 0 0 0
SMALL
GASTEIGER

@<TRIPOS>ATOM
      1  N1'       77.5090   -1.0960   -3.2720 N.2   1566  TPP1566    -0.1861
      2  C2'       76.7760   -2.2110   -3.6070 C.1   1566  TPP1566     0.0663
      3  CM2       75.3110   -2.0520   -3.8700 C.3   1566  TPP1566     0.1291
      4  N3'       77.3790   -3.4490   -3.6850 N.2   1566  TPP1566    -0.3368
      5  C4'       78.7320   -3.5820   -3.4270 C.2   1566  TPP1566     0.2292
      6  N4'       79.2780   -4.7970   -3.5240 N.pl3 1566  TPP1566    -0.0925
      7  C5'       79.4870   -2.4460   -3.0910 C.2   1566  TPP1566     0.0654
      8  C6'       78.8570   -1.2060   -3.0130 C.2   1566  TPP1566     0.1115
      9  C7'       80.9710   -2.4910   -2.7920 C.3   1566  TPP1566     0.1237
     10  N3        81.1830   -3.2100   -1.5590 N.pl3 1566  TPP1566    -0.2970
     11  C2        81.7390   -4.4610   -1.5080 C.3   1566  TPP1566     0.1543
     12  S1        81.8540   -5.0580   -0.0200 S.3   1566  TPP1566    -0.0951
     13  C5        81.2230   -3.7380    0.6200 C.2   1566  TPP1566     0.0164
     14  C4        80.8750   -2.7690   -0.3130 C.2   1566  TPP1566     0.0279
     15  CM4       80.2560   -1.4410    0.0270 C.3   1566  TPP1566     0.0473
     16  C6        81.0610   -3.7300    2.1220 C.3   1566  TPP1566     0.0661
     17  C7        82.2600   -4.2550    2.9120 C.3   1566  TPP1566     0.1544
     18  O7        82.1030   -3.9100    4.2760 O.3   1566  TPP1566    -0.3134
     19  PA        81.3320   -4.8880    5.2940 P.3   1566  TPP1566     0.2230
     20  O1A       81.1980   -4.2050    6.6280 O.3   1566  TPP1566    -0.4370
     21  O2A       79.9700   -5.2730    4.7620 O.2   1566  TPP1566    -0.5169
     22  O3A       82.2730   -6.2190    5.4240 O.3   1566  TPP1566    -0.2261
     23  PB        83.6710   -6.2680    6.2630 P.3   1566  TPP1566     0.5373
     24  O1B       84.8370   -6.5060    5.3450 O.2   1566  TPP1566    -0.2221
     25  O2B       83.5830   -7.4340    7.2090 O.3   1566  TPP1566    -0.1143
     26  O3B       83.8950   -5.0050    7.0590 O.3   1566  TPP1566    -0.1143
@<TRIPOS>BOND
     1     3     2    1
     2     4     2    2
     3     4     5    2
     4     2     1    2
     5     6     5    1
     6     5     7    1
     7     1     8    1
     8     7     8    2
     9     7     9    1
    10     9    10    1
    11    10    11    1
    12    10    14    1
    13    11    12    1
    14    14    15    1
    15    14    13    2
    16    12    13    1
    17    13    16    1
    18    16    17    1
    19    17    18    1
    20    18    19    1
    21    21    19    2
    22    19    22    1
    23    19    20    1
    24    24    23    2
    25    22    23    1
    26    23    26    1
    27    23    25    1
