@<TRIPOS>MOLECULE
2jib_COA_A_1.pdb
 48 50 0 0 0
SMALL
GASTEIGER

@<TRIPOS>ATOM
      1  N1A       89.3480  -24.7640    6.5610 N.2   1569  COA1569     0.0021
      2  C2A       90.6110  -24.2300    6.3680 C.3   1569  COA1569     0.5254
      3  N3A       90.9060  -23.5310    5.2090 N.2   1569  COA1569    -0.0055
      4  C4A       89.9500  -23.3680    4.2530 C.2   1569  COA1569     0.3518
      5  C5A       88.6700  -23.8990    4.4290 C.2   1569  COA1569     0.2526
      6  C6A       88.3710  -24.6050    5.5980 C.2   1569  COA1569     0.4393
      7  N6A       87.1120  -24.9020    5.9070 N.pl3 1569  COA1569     0.2180
      8  N7A       87.9320  -23.5880    3.3360 N.2   1569  COA1569    -0.2095
      9  C8A       88.7030  -22.8820    2.4830 C.3   1569  COA1569     0.3377
     10  N9A       89.9560  -22.7410    3.0320 N.pl3 1569  COA1569    -0.1439
     11  C1B       91.0490  -21.9050    2.4980 C.3   1569  COA1569     0.3185
     12  C2B       91.3830  -22.2840    1.0530 C.3   1569  COA1569     0.2543
     13  O2B       92.5340  -23.1000    0.9560 O.3   1569  COA1569    -0.2131
     14  C3B       91.5350  -20.9500    0.3430 C.3   1569  COA1569     0.1928
     15  O3B       92.8840  -20.5510    0.2030 O.3   1569  COA1569    -0.2673
     16  P3B       93.9140  -21.1630   -0.8770 P.3   1569  COA1569     0.5327
     17  O7A       95.3000  -21.1170   -0.2760 O.3   1569  COA1569    -0.1145
     18  O8A       93.5590  -22.5880   -1.2420 O.3   1569  COA1569    -0.1145
     19  O9A       93.8600  -20.2690   -2.0980 O.2   1569  COA1569    -0.2224
     20  C4B       90.8360  -19.9320    1.2430 C.3   1569  COA1569     0.1795
     21  O4B       90.6530  -20.5430    2.5070 O.3   1569  COA1569    -0.3136
     22  C5B       89.4890  -19.4320    0.7190 C.3   1569  COA1569     0.1812
     23  O5B       88.7430  -20.4630    0.1070 O.3   1569  COA1569    -0.3112
     24  P1A       87.7690  -20.1230   -1.1300 P.3   1569  COA1569     0.2189
     25  O1A       86.8670  -18.9830   -0.7250 O.3   1569  COA1569    -0.4371
     26  O2A       87.0020  -21.3580   -1.5540 O.2   1569  COA1569    -0.5170
     27  O3A       88.8020  -19.6570   -2.2840 O.3   1569  COA1569    -0.2703
     28  P2A       88.9000  -18.1660   -2.9000 P.3   1569  COA1569     0.2188
     29  O4A       90.3320  -17.9210   -3.3230 O.2   1569  COA1569    -0.5170
     30  O5A       88.4300  -17.0900   -1.9570 O.3   1569  COA1569    -0.4371
     31  O6A       87.9250  -18.2240   -4.1830 O.3   1569  COA1569    -0.3138
     32  CBP       86.3960  -16.5590   -5.0940 C.3   1569  COA1569     0.0645
     33  CCP       87.8180  -17.1260   -5.0720 C.3   1569  COA1569     0.1519
     34  CDP       85.4490  -17.6210   -5.6550 C.3   1569  COA1569     0.0056
     35  CEP       86.3910  -15.3330   -6.0070 C.3   1569  COA1569     0.0056
     36  CAP       85.9630  -16.1640   -3.6780 C.3   1569  COA1569     0.2312
     37  OAP       86.9370  -15.3220   -3.0840 O.3   1569  COA1569    -0.2131
     38  C9P       84.6100  -15.4930   -3.6970 C.2   1569  COA1569     0.2719
     39  O9P       83.4280  -16.2600   -3.8350 O.2   1569  COA1569    -0.2706
     40  N8P       84.6140  -14.1670   -3.5800 N.am  1569  COA1569    -0.2028
     41  C7P       83.3980  -13.3970   -3.3880 C.3   1569  COA1569     0.1248
     42  C6P       83.7350  -12.0490   -2.7560 C.3   1569  COA1569     0.1102
     43  C5P       82.7000  -10.9850   -3.0340 C.2   1569  COA1569     0.2432
     44  O5P       81.5890  -11.2530   -3.5150 O.2   1569  COA1569    -0.2733
     45  N4P       83.0780   -9.7500   -2.7230 N.am  1569  COA1569    -0.2044
     46  C3P       82.1670   -8.7630   -2.1830 C.3   1569  COA1569     0.1276
     47  C2P       82.5130   -7.3890   -2.7330 C.3   1569  COA1569     0.0920
     48  S1P       84.0440   -6.7170   -2.0190 S.3   1569  COA1569    -0.0802
@<TRIPOS>BOND
     1    35    32    1
     2    34    32    1
     3    32    33    1
     4    32    36    1
     5    33    31    1
     6    31    28    1
     7    39    38    2
     8    38    36    1
     9    38    40   am
    10    36    37    1
    11    40    41    1
    12    44    43    2
    13    41    42    1
    14    29    28    2
    15    43    42    1
    16    43    45   am
    17    28    27    1
    18    28    30    1
    19    47    46    1
    20    47    48    1
    21    45    46    1
    22    27    24    1
    23    19    16    2
    24    26    24    2
    25    18    16    1
    26    24    25    1
    27    24    23    1
    28    16    17    1
    29    16    15    1
    30    23    22    1
    31    15    14    1
    32    14    12    1
    33    14    20    1
    34    22    20    1
    35    13    12    1
    36    12    11    1
    37    20    21    1
    38     9    10    1
    39     9     8    1
    40    11    21    1
    41    11    10    1
    42    10     4    1
    43     8     5    2
    44     4     5    1
    45     4     3    2
    46     5     6    1
    47     3     2    1
    48     6     7    1
    49     6     1    2
    50     2     1    1
