@<TRIPOS>MOLECULE
2jid_GVB_A_1.pdb
 24 26 0 0 0
SMALL
GASTEIGER

@<TRIPOS>ATOM
      1  C29       51.3190   53.5720   28.8360 C.3   1771  GVB1771     0.2526
      2  O26       51.8780   52.6610   29.7800 O.3   1771  GVB1771    -0.4684
      3  C6        51.0210   52.2320   30.7800 C.ar  1771  GVB1771     0.1725
      4  C7        49.6810   52.6240   30.7960 C.ar  1771  GVB1771     0.0413
      5  C8        48.8470   52.1840   31.8190 C.ar  1771  GVB1771     0.0178
      6  C5        51.5240   51.3990   31.7870 C.ar  1771  GVB1771     0.1736
      7  O25       52.8560   51.0370   31.7350 O.3   1771  GVB1771    -0.4683
      8  C28       53.3270   50.2460   32.8240 C.3   1771  GVB1771     0.2526
      9  C4        50.6970   50.9590   32.8200 C.ar  1771  GVB1771     0.0545
     10  C3        49.3530   51.3540   32.8310 C.ar  1771  GVB1771     0.0511
     11  N2        48.4930   50.8990   33.8500 N.pl3 1771  GVB1771    -0.3070
     12  C9        49.0570   50.8830   35.2260 C.3   1771  GVB1771     0.0965
     13  C1        47.1100   51.4190   33.7500 C.3   1771  GVB1771     0.0923
     14  C22       46.1730   50.5990   34.6450 C.3   1771  GVB1771     0.0408
     15  C19       46.6710   50.6380   36.0940 C.3   1771  GVB1771     0.0992
     16  N20       46.5390   51.9990   36.6500 N.3   1771  GVB1771    -0.1325
     17  C10       48.1210   50.1200   36.1890 C.3   1771  GVB1771     0.0597
     18  C11       48.5960   50.1540   37.6210 C.ar  1771  GVB1771    -0.0197
     19  C12       49.5010   51.1160   38.0760 C.ar  1771  GVB1771    -0.0042
     20  C13       49.8600   51.1610   39.4210 C.ar  1771  GVB1771    -0.0006
     21  C14       49.3230   50.2380   40.3150 C.ar  1771  GVB1771    -0.0043
     22  C16       48.4280   49.2670   39.8680 C.ar  1771  GVB1771    -0.0222
     23  C17       48.0690   49.2310   38.5240 C.ar  1771  GVB1771    -0.0084
     24  C30       47.8460   48.2700   40.8260 C.3   1771  GVB1771     0.0310
@<TRIPOS>BOND
     1     1     2    1
     2     2     3    1
     3     3     4   ar
     4     3     6   ar
     5     4     5   ar
     6     7     6    1
     7     7     8    1
     8     6     9   ar
     9     5    10   ar
    10     9    10   ar
    11    10    11    1
    12    13    11    1
    13    13    14    1
    14    11    12    1
    15    14    15    1
    16    12    17    1
    17    15    17    1
    18    15    16    1
    19    17    18    1
    20    18    19   ar
    21    18    23   ar
    22    19    20   ar
    23    23    22   ar
    24    20    21   ar
    25    22    21   ar
    26    22    24    1
