@<TRIPOS>MOLECULE
2jie_G2F_A_1.pdb
 11 11 0 0 0
SMALL
GASTEIGER

@<TRIPOS>ATOM
      1  C1        67.8420   31.7830   38.3730 C.3   1449  G2F1449     0.1801
      2  C2        67.8800   31.9430   39.9300 C.3   1449  G2F1449     0.2230
      3  C3        69.0540   31.1130   40.4890 C.3   1449  G2F1449     0.2194
      4  C4        69.0000   29.6200   40.0450 C.3   1449  G2F1449     0.2144
      5  C5        68.8200   29.5740   38.4900 C.3   1449  G2F1449     0.1810
      6  C6        68.6080   28.1890   37.8720 C.3   1449  G2F1449     0.2141
      7  O3        68.9940   31.1880   41.9040 O.3   1449  G2F1449    -0.2173
      8  O4        70.1620   28.9050   40.5170 O.3   1449  G2F1449    -0.2176
      9  O5        67.6860   30.3780   38.0990 O.3   1449  G2F1449    -0.3479
     10  O6        67.5240   27.5050   38.4900 O.3   1449  G2F1449    -0.2176
     11  F2        67.9310   33.3370   40.3830 F     1449  G2F1449    -0.2317
@<TRIPOS>BOND
     1     6     5    1
     2     6    10    1
     3     9     1    1
     4     9     5    1
     5     1     2    1
     6     5     4    1
     7     2    11    1
     8     2     3    1
     9     4     3    1
    10     4     8    1
    11     3     7    1
