@<TRIPOS>MOLECULE
2jif_COS_A_1.pdb
 49 51 0 0 0
SMALL
GASTEIGER

@<TRIPOS>ATOM
      1  N1A       92.0410  106.3990   -9.8460 N.2   1434  COS1434     0.0021
      2  C2A       91.3050  106.4630  -10.9600 C.3   1434  COS1434     0.5254
      3  N3A       91.8500  106.3540  -12.1760 N.2   1434  COS1434    -0.0055
      4  C4A       93.1790  106.1660  -12.3150 C.2   1434  COS1434     0.3518
      5  C5A       93.9770  106.0820  -11.1720 C.2   1434  COS1434     0.2526
      6  C6A       93.3790  106.2090   -9.9090 C.2   1434  COS1434     0.4393
      7  N6A       94.1180  106.1380   -8.7910 N.pl3 1434  COS1434     0.2180
      8  N7A       95.2320  105.8870  -11.5820 N.2   1434  COS1434    -0.2095
      9  C8A       95.2360  105.8530  -12.9150 C.3   1434  COS1434     0.3377
     10  N9A       93.9870  106.0280  -13.3700 N.pl3 1434  COS1434    -0.1439
     11  C1B       93.5670  106.0170  -14.8230 C.3   1434  COS1434     0.3185
     12  C2B       94.0650  107.1720  -15.7000 C.3   1434  COS1434     0.2543
     13  O2B       93.1640  108.2850  -15.5960 O.3   1434  COS1434    -0.2131
     14  C3B       94.0120  106.5180  -17.0840 C.3   1434  COS1434     0.1928
     15  O3B       92.6570  106.3850  -17.5260 O.3   1434  COS1434    -0.2673
     16  P3B       92.0640  107.4060  -18.6360 P.3   1434  COS1434     0.5327
     17  O7A       90.5000  106.9890  -18.7520 O.3   1434  COS1434    -0.1145
     18  O8A       92.0550  108.8560  -17.9280 O.3   1434  COS1434    -0.1145
     19  O9A       92.8400  107.3230  -19.9090 O.2   1434  COS1434    -0.2224
     20  C4B       94.5400  105.1120  -16.7930 C.3   1434  COS1434     0.1795
     21  O4B       94.1560  104.8180  -15.4140 O.3   1434  COS1434    -0.3136
     22  C5B       96.0520  105.0460  -16.9300 C.3   1434  COS1434     0.1812
     23  O5B       96.6870  106.1940  -16.3450 O.3   1434  COS1434    -0.3112
     24  P1A       98.2480  106.0800  -15.9370 P.3   1434  COS1434     0.2189
     25  O1A       98.5400  107.2360  -14.8040 O.3   1434  COS1434    -0.4371
     26  O2A       99.1260  106.1140  -17.1340 O.2   1434  COS1434    -0.5170
     27  O3A       98.2840  104.6480  -15.1860 O.3   1434  COS1434    -0.2703
     28  P2A       99.6440  104.0080  -14.6040 P.3   1434  COS1434     0.2188
     29  O4A      100.5740  105.2330  -14.0480 O.3   1434  COS1434    -0.4371
     30  O5A      100.3420  103.1270  -15.5760 O.2   1434  COS1434    -0.5170
     31  O6A       99.1170  103.2570  -13.2700 O.3   1434  COS1434    -0.3138
     32  CBP       97.6200  101.7590  -12.0400 C.3   1434  COS1434     0.0645
     33  CCP       98.0600  102.3090  -13.3810 C.3   1434  COS1434     0.1519
     34  CDP       97.5000  100.2380  -12.2320 C.3   1434  COS1434     0.0056
     35  CEP       96.2580  102.3580  -11.6710 C.3   1434  COS1434     0.0056
     36  CAP       98.6700  102.0750  -10.9060 C.3   1434  COS1434     0.2312
     37  OAP       98.7400  103.4730  -10.6160 O.3   1434  COS1434    -0.2131
     38  C9P       98.2490  101.3770   -9.6160 C.2   1434  COS1434     0.2719
     39  O9P       97.4530  101.9310   -8.8510 O.2   1434  COS1434    -0.2706
     40  N8P       98.8030  100.1830   -9.4130 N.am  1434  COS1434    -0.2028
     41  C7P       98.5010   99.3510   -8.2440 C.3   1434  COS1434     0.1248
     42  C6P       97.2320   98.5550   -8.5820 C.3   1434  COS1434     0.1102
     43  C5P       96.6420   97.8970   -7.3410 C.2   1434  COS1434     0.2432
     44  O5P       96.1900   98.5690   -6.4080 O.2   1434  COS1434    -0.2733
     45  N4P       96.6420   96.5720   -7.3730 N.am  1434  COS1434    -0.2044
     46  C3P       96.1280   95.8090   -6.2400 C.3   1434  COS1434     0.1277
     47  C2P       95.0660   94.7850   -6.6060 C.3   1434  COS1434     0.0929
     48  S1P       94.3550   94.0780   -5.0650 S.3   1434  COS1434    -0.0689
     49  S'P       96.0210   93.7870   -3.9950 S.3   1434  COS1434    -0.0122
@<TRIPOS>BOND
     1    19    16    2
     2    17    16    1
     3    16    18    1
     4    16    15    1
     5    15    14    1
     6    26    24    2
     7    14    20    1
     8    14    12    1
     9    22    20    1
    10    22    23    1
    11    20    21    1
    12    23    24    1
    13    24    27    1
    14    24    25    1
    15    12    13    1
    16    12    11    1
    17    30    28    2
    18    21    11    1
    19    27    28    1
    20    11    10    1
    21    28    29    1
    22    28    31    1
    23    33    31    1
    24    33    32    1
    25    10     9    1
    26    10     4    1
    27     9     8    1
    28     4     3    2
    29     4     5    1
    30    34    32    1
    31     3     2    1
    32    32    35    1
    33    32    36    1
    34     8     5    2
    35     5     6    1
    36     2     1    1
    37    36    37    1
    38    36    38    1
    39     6     1    2
    40     6     7    1
    41    38    40   am
    42    38    39    2
    43    40    41    1
    44    42    41    1
    45    42    43    1
    46    45    43   am
    47    45    46    1
    48    43    44    2
    49    47    46    1
    50    47    48    1
    51    48    49    1
