@<TRIPOS>MOLECULE
2jig_PD2_A_1.pdb
 12 12 0 0 0
SMALL
GASTEIGER

@<TRIPOS>ATOM
      1  O42       -0.4970   16.4420  -19.8280 O.co2 1254  PD21254    -0.2406
      2  C41       -0.2230   17.3540  -20.6450 C.2   1254  PD21254     0.3879
      3  O41       -1.0500   17.8190  -21.4550 O.co2 1254  PD21254    -0.2406
      4  C4         1.2090   17.9290  -20.6230 C.ar  1254  PD21254     0.0830
      5  C5         2.2920   17.1200  -20.2930 C.ar  1254  PD21254     0.0273
      6  C6         3.5840   17.6580  -20.2710 C.ar  1254  PD21254     0.0993
      7  C3         1.4470   19.2640  -20.9270 C.ar  1254  PD21254     0.0325
      8  C2         2.7540   19.7420  -20.8940 C.ar  1254  PD21254     0.1610
      9  N1         3.7940   18.9580  -20.5760 N.ar  1254  PD21254    -0.2372
     10  C21        3.0440   21.2140  -21.2040 C.2   1254  PD21254     0.4051
     11  O21        2.2120   21.9040  -21.8500 O.co2 1254  PD21254    -0.2388
     12  O22        4.1230   21.6270  -20.7520 O.co2 1254  PD21254    -0.2388
@<TRIPOS>BOND
     1    11    10   ar
     2     3     2   ar
     3    10     8    1
     4    10    12   ar
     5     7     8   ar
     6     7     4   ar
     7     8     9   ar
     8     2     4    1
     9     2     1   ar
    10     4     5   ar
    11     9     6   ar
    12     5     6   ar
