@<TRIPOS>MOLECULE
2jih_097_A_1.pdb
 23 22 0 0 0
SMALL
GASTEIGER

@<TRIPOS>ATOM
      1  N1         7.4840  -11.3390   11.8170 N.am  1001  0971001    -0.1977
      2  C2        11.6710  -12.7010   14.0670 C.3   1001  0971001     0.0000
      3  O2         6.0960  -11.6160   14.1910 O.2   1001  0971001    -0.2715
      4  C4         8.7140  -11.0260   11.3290 C.2   1001  0971001     0.2442
      5  O3        13.1680  -13.5470    8.1130 O.3   1001  0971001    -0.4026
      6  C5         6.5490  -10.2990   12.2980 C.3   1001  0971001     0.1726
      7  C6         5.3030  -10.2470   11.3790 C.3   1001  0971001     0.0270
      8  C8         4.7110  -11.6460   11.1130 C.3   1001  0971001     0.0022
      9  C9         4.1990   -9.3760   11.9970 C.3   1001  0971001     0.0022
     10  C10        6.1400  -10.5030   13.7310 C.2   1001  0971001     0.2613
     11  C11        5.3910   -9.2540   15.8310 C.3   1001  0971001     0.1386
     12  N3        12.3090  -12.5790    8.6840 N.am  1001  0971001    -0.2004
     13  C12       10.9710  -12.7900    8.8020 C.2   1001  0971001     0.1180
     14  O4        10.4580  -13.8360    8.4050 O.2   1001  0971001    -0.5374
     15  C13       10.1570  -11.6830    9.4420 C.3   1001  0971001     0.2050
     16  O5         9.0550  -11.3100    8.6170 O.3   1001  0971001    -0.2157
     17  C14        9.6270  -12.1140   10.8130 C.3   1001  0971001     0.1147
     18  C15       10.8040  -12.3020   11.7760 C.3   1001  0971001     0.0121
     19  C1        10.3980  -12.7290   13.1960 C.3   1001  0971001     0.0006
     20  C3         9.7470  -14.1160   13.1700 C.3   1001  0971001     0.0000
     21  O1         9.1060   -9.8780   11.2990 O.2   1001  0971001    -0.2732
     22  C7         5.6930   -9.6070   10.0350 C.3   1001  0971001     0.0022
     23  N2         5.8330   -9.3780   14.4320 N.am  1001  0971001    -0.2021
@<TRIPOS>BOND
     1     5    12    1
     2    14    13    2
     3    16    15    1
     4    12    13   am
     5    13    15    1
     6    15    17    1
     7    22     7    1
     8    17     4    1
     9    17    18    1
    10     8     7    1
    11    21     4    2
    12     4     1   am
    13     7     9    1
    14     7     6    1
    15    18    19    1
    16     1     6    1
    17     6    10    1
    18    20    19    1
    19    19     2    1
    20    10     3    2
    21    10    23   am
    22    23    11    1
