@<TRIPOS>MOLECULE
2jim_MGD_A_1.pdb
 47 52 0 0 0
SMALL
GASTEIGER

@<TRIPOS>ATOM
      1  PB        63.3060   17.8970   -2.8780 P.3   811  MGD811      0.2189
      2  O1B       63.5760   18.1280   -1.3690 O.3   811  MGD811     -0.4371
      3  O2B       63.2280   19.0670   -3.8200 O.2   811  MGD811     -0.5170
      4  O3B       64.2970   16.8110   -3.5470 O.3   811  MGD811     -0.2703
      5  O3A       65.9100   14.9090   -3.5790 O.3   811  MGD811     -0.3109
      6  PA        64.3480   15.1880   -3.3280 P.3   811  MGD811      0.2189
      7  O1A       63.5750   14.5570   -4.4810 O.2   811  MGD811     -0.5170
      8  O2A       63.9680   14.8640   -1.8940 O.3   811  MGD811     -0.4371
      9  O5'       61.8450   17.2350   -2.8530 O.3   811  MGD811     -0.3112
     10  C5'       61.0140   17.4650   -1.7030 C.3   811  MGD811      0.1813
     11  C4'       59.5850   17.4330   -2.2070 C.3   811  MGD811      0.1799
     12  O4'       58.7160   17.4790   -1.0970 O.3   811  MGD811     -0.3326
     13  C3'       59.1980   18.6190   -3.0760 C.3   811  MGD811      0.2158
     14  O3'       58.4810   18.1730   -4.2310 O.3   811  MGD811     -0.2175
     15  C2'       58.2580   19.4220   -2.2150 C.3   811  MGD811      0.2310
     16  O2'       57.3330   20.1710   -2.9840 O.3   811  MGD811     -0.2158
     17  C1'       57.6060   18.3160   -1.4230 C.3   811  MGD811      0.2293
     18  N9        57.0710   18.7370   -0.1170 N.pl3 811  MGD811     -0.2354
     19  C8        57.4320   19.7970    0.6170 C.3   811  MGD811      0.2246
     20  N7        56.7530   19.8490    1.7820 N.2   811  MGD811     -0.2322
     21  C5        55.9370   18.7920    1.8140 C.2   811  MGD811      0.2182
     22  C6        54.9410   18.2440    2.7560 C.1   811  MGD811      0.2372
     23  O6        54.6500   18.7510    3.8640 O.2   811  MGD811     -0.2069
     24  N1        54.3340   17.1430    2.3790 N.2   811  MGD811     -0.2485
     25  C2        54.5960   16.5270    1.2260 C.1   811  MGD811      0.2531
     26  N2        53.9070   15.3980    1.0110 N.pl3 811  MGD811     -0.0226
     27  N3        55.4790   16.9370    0.2990 N.2   811  MGD811     -0.3074
     28  C4        56.1630   18.0590    0.5540 C.2   811  MGD811      0.2300
     29  C10       66.8750   15.1460   -2.5330 C.3   811  MGD811      0.1833
     30  C11       67.9620   14.1430   -2.7640 C.3   811  MGD811      0.1728
     31  O11       68.4440   14.5170   -4.0310 O.3   811  MGD811     -0.3276
     32  C12       69.0790   14.2200   -1.7780 C.2   811  MGD811      0.0332
     33  S12       68.7060   14.5750   -0.1840 S.2   811  MGD811     -0.0565
     34  C13       70.3500   14.0260   -2.1330 C.3   811  MGD811      0.1117
     35  S13       71.5810   14.0890   -0.9290 S.3   811  MGD811     -0.0758
     36  C14       70.6830   13.7280   -3.5790 C.3   811  MGD811      0.1712
     37  N15       71.6000   14.7270   -4.1370 N.2   811  MGD811     -0.2449
     38  C16       71.8400   14.7460   -5.4630 C.2   811  MGD811      0.2464
     39  C17       73.0900   15.2160   -6.0680 C.1   811  MGD811      0.2441
     40  O17       74.0120   15.5820   -5.3180 O.2   811  MGD811     -0.2063
     41  N18       73.2450   15.1880   -7.4110 N.2   811  MGD811     -0.2474
     42  C19       72.2640   14.7830   -8.2170 C.1   811  MGD811      0.2608
     43  N19       72.4520   14.7950   -9.5740 N.pl3 811  MGD811     -0.0220
     44  N20       71.0810   14.3790   -7.7130 N.2   811  MGD811     -0.2682
     45  C21       70.8220   14.2930   -6.3900 C.1   811  MGD811      0.1292
     46  N22       69.6370   13.8480   -5.8930 N.2   811  MGD811     -0.1767
     47  C23       69.4270   13.5980   -4.4650 C.3   811  MGD811      0.2537
@<TRIPOS>BOND
     1    43    42    1
     2    42    44    2
     3    42    41    2
     4    44    45    2
     5    41    39    2
     6    45    46    2
     7    45    38    1
     8    39    38    1
     9    39    40    2
    10    46    47    1
    11    38    37    2
    12     7     6    2
    13    47    31    1
    14    47    36    1
    15    14    13    1
    16    37    36    1
    17    31    30    1
    18     3     1    2
    19     5     6    1
    20     5    29    1
    21    36    34    1
    22     4     6    1
    23     4     1    1
    24     6     8    1
    25    13    15    1
    26    13    11    1
    27    16    15    1
    28     1     9    1
    29     1     2    1
    30     9    10    1
    31    30    29    1
    32    30    32    1
    33    15    17    1
    34    11    10    1
    35    11    12    1
    36    34    32    1
    37    34    35    1
    38    32    33    2
    39    17    12    1
    40    17    18    1
    41    18    28    1
    42    18    19    1
    43    27    28    2
    44    27    25    2
    45    28    21    1
    46    19    20    1
    47    26    25    1
    48    25    24    2
    49    20    21    2
    50    21    22    1
    51    24    22    2
    52    22    23    2
