@<TRIPOS>MOLECULE
2jio_MGD_A_1.pdb
 47 52 0 0 0
SMALL
GASTEIGER

@<TRIPOS>ATOM
      1  PB        63.4140   18.4940   -3.0830 P.3   811  MGD811      0.2189
      2  O1B       63.1280   19.6470   -4.0040 O.2   811  MGD811     -0.5170
      3  O2B       63.8880   18.7540   -1.6860 O.3   811  MGD811     -0.4371
      4  O3B       64.3980   17.5140   -3.8880 O.3   811  MGD811     -0.2703
      5  O3A       66.0430   15.6960   -3.8720 O.3   811  MGD811     -0.3109
      6  PA        64.4520   15.9100   -3.7290 P.3   811  MGD811      0.2189
      7  O1A       63.7980   15.2850   -4.9270 O.2   811  MGD811     -0.5170
      8  O2A       64.0520   15.4390   -2.3750 O.3   811  MGD811     -0.4371
      9  O5'       62.0560   17.6630   -2.8640 O.3   811  MGD811     -0.3112
     10  C5'       61.1270   17.9870   -1.8320 C.3   811  MGD811      0.1813
     11  C4'       59.7310   17.9680   -2.4500 C.3   811  MGD811      0.1799
     12  O4'       58.7780   18.1220   -1.4060 O.3   811  MGD811     -0.3326
     13  C3'       59.4940   19.1330   -3.4140 C.3   811  MGD811      0.2158
     14  O3'       58.9580   18.5900   -4.6370 O.3   811  MGD811     -0.2175
     15  C2'       58.5540   20.0990   -2.6680 C.3   811  MGD811      0.2310
     16  O2'       57.6850   20.8030   -3.5680 O.3   811  MGD811     -0.2158
     17  C1'       57.7950   19.1330   -1.7930 C.3   811  MGD811      0.2293
     18  N9        57.2610   19.5970   -0.5060 N.pl3 811  MGD811     -0.2354
     19  C8        57.5950   20.6330    0.2730 C.3   811  MGD811      0.2246
     20  N7        56.8790   20.6020    1.4120 N.2   811  MGD811     -0.2322
     21  C5        56.0930   19.5040    1.4110 C.2   811  MGD811      0.2182
     22  C6        55.0990   18.8130    2.2990 C.1   811  MGD811      0.2372
     23  O6        54.7260   19.2090    3.4250 O.2   811  MGD811     -0.2069
     24  N1        54.5680   17.6680    1.8330 N.2   811  MGD811     -0.2485
     25  C2        54.9010   17.1810    0.6450 C.1   811  MGD811      0.2531
     26  N2        54.3190   16.0520    0.2760 N.pl3 811  MGD811     -0.0226
     27  N3        55.7660   17.7110   -0.2170 N.2   811  MGD811     -0.3074
     28  C4        56.3910   18.8540    0.1230 C.2   811  MGD811      0.2300
     29  C10       66.9510   15.7070   -2.7620 C.3   811  MGD811      0.1837
     30  C11       68.1100   14.7810   -3.1250 C.3   811  MGD811      0.1762
     31  O11       68.5980   15.1310   -4.4370 O.3   811  MGD811     -0.3271
     32  C12       69.2110   14.8300   -2.0910 C.2   811  MGD811      0.0473
     33  S12       68.8770   15.1630   -0.4580 S.2   811  MGD811     -0.0526
     34  C13       70.4690   14.6200   -2.4990 C.2   811  MGD811      0.0449
     35  S13       71.7660   14.6690   -1.4130 S.2   811  MGD811     -0.0530
     36  C14       70.8590   14.4060   -3.9620 C.3   811  MGD811      0.1850
     37  N15       71.7050   15.5320   -4.3490 N.2   811  MGD811     -0.2411
     38  C16       72.0550   15.5820   -5.7020 C.2   811  MGD811      0.2467
     39  C17       73.3200   16.1160   -6.1740 C.1   811  MGD811      0.2441
     40  O17       74.0960   16.5560   -5.3010 O.2   811  MGD811     -0.2063
     41  N18       73.5980   16.1100   -7.4920 N.2   811  MGD811     -0.2474
     42  C19       72.6940   15.6220   -8.3990 C.1   811  MGD811      0.2608
     43  N19       72.9680   15.6300   -9.7200 N.pl3 811  MGD811     -0.0220
     44  N20       71.4820   15.1270   -8.0330 N.2   811  MGD811     -0.2682
     45  C21       71.1290   15.0580   -6.7250 C.1   811  MGD811      0.1293
     46  N22       69.9380   14.5430   -6.3110 N.2   811  MGD811     -0.1763
     47  C23       69.6410   14.2600   -4.8890 C.3   811  MGD811      0.2573
@<TRIPOS>BOND
     1    43    42    1
     2    42    44    2
     3    42    41    2
     4    44    45    2
     5    41    39    2
     6    45    46    2
     7    45    38    1
     8    46    47    1
     9    39    38    1
    10    39    40    2
    11    38    37    2
    12     7     6    2
    13    47    31    1
    14    47    36    1
    15    14    13    1
    16    31    30    1
    17    37    36    1
    18     2     1    2
    19    36    34    1
    20     4     6    1
    21     4     1    1
    22     5     6    1
    23     5    29    1
    24     6     8    1
    25    16    15    1
    26    13    15    1
    27    13    11    1
    28    30    29    1
    29    30    32    1
    30     1     9    1
    31     1     3    1
    32     9    10    1
    33    15    17    1
    34    34    32    1
    35    34    35    2
    36    11    10    1
    37    11    12    1
    38    32    33    2
    39    17    12    1
    40    17    18    1
    41    18    28    1
    42    18    19    1
    43    27    28    2
    44    27    25    2
    45    28    21    1
    46    19    20    1
    47    26    25    1
    48    25    24    2
    49    21    20    2
    50    21    22    1
    51    24    22    2
    52    22    23    2
