@<TRIPOS>MOLECULE
2jip_MGD_A_1.pdb
 47 52 0 0 0
SMALL
GASTEIGER

@<TRIPOS>ATOM
      1  PB        63.4270   18.2490   -2.8880 P.3   811  MGD811      0.2189
      2  O1B       63.2520   19.4840   -3.7250 O.2   811  MGD811     -0.5170
      3  O2B       63.7890   18.4050   -1.4100 O.3   811  MGD811     -0.4371
      4  O3B       64.3380   17.2210   -3.6860 O.3   811  MGD811     -0.2703
      5  O3A       65.9810   15.3670   -3.6460 O.3   811  MGD811     -0.3109
      6  PA        64.4190   15.6030   -3.5060 P.3   811  MGD811      0.2189
      7  O1A       63.7860   15.0270   -4.7690 O.2   811  MGD811     -0.5170
      8  O2A       64.0420   15.0740   -2.1510 O.3   811  MGD811     -0.4371
      9  O5'       61.9660   17.5150   -2.8410 O.3   811  MGD811     -0.3112
     10  C5'       61.0460   17.6720   -1.7290 C.3   811  MGD811      0.1813
     11  C4'       59.6230   17.7840   -2.2630 C.3   811  MGD811      0.1799
     12  O4'       58.6810   17.8250   -1.2080 O.3   811  MGD811     -0.3326
     13  C3'       59.3360   19.0680   -3.0150 C.3   811  MGD811      0.2158
     14  O3'       58.7450   18.6390   -4.2320 O.3   811  MGD811     -0.2175
     15  C2'       58.3170   19.8520   -2.2090 C.3   811  MGD811      0.2310
     16  O2'       57.4100   20.5510   -3.0740 O.3   811  MGD811     -0.2158
     17  C1'       57.6040   18.7420   -1.4960 C.3   811  MGD811      0.2293
     18  N9        57.0650   19.1700   -0.1880 N.pl3 811  MGD811     -0.2354
     19  C8        57.3940   20.2510    0.5360 C.3   811  MGD811      0.2246
     20  N7        56.6910   20.2670    1.6940 N.2   811  MGD811     -0.2322
     21  C5        55.8780   19.1860    1.7530 C.2   811  MGD811      0.2182
     22  C6        54.8910   18.5610    2.7010 C.1   811  MGD811      0.2372
     23  O6        54.5230   18.9790    3.8460 O.2   811  MGD811     -0.2069
     24  N1        54.3540   17.4290    2.2840 N.2   811  MGD811     -0.2485
     25  C2        54.6620   16.8700    1.1070 C.1   811  MGD811      0.2531
     26  N2        54.0620   15.7320    0.8160 N.pl3 811  MGD811     -0.0226
     27  N3        55.5200   17.3090    0.2150 N.2   811  MGD811     -0.3074
     28  C4        56.1660   18.4590    0.4870 C.2   811  MGD811      0.2300
     29  C10       66.9130   15.4210   -2.5290 C.3   811  MGD811      0.1837
     30  C11       68.1070   14.5190   -2.8840 C.3   811  MGD811      0.1762
     31  O11       68.5560   14.9320   -4.1710 O.3   811  MGD811     -0.3271
     32  C12       69.2250   14.5960   -1.8990 C.2   811  MGD811      0.0473
     33  S12       68.9550   14.8930   -0.2420 S.2   811  MGD811     -0.0526
     34  C13       70.4660   14.4180   -2.3260 C.2   811  MGD811      0.0449
     35  S13       71.6790   14.4930   -1.1740 S.2   811  MGD811     -0.0530
     36  C14       70.8440   14.1610   -3.7850 C.3   811  MGD811      0.1850
     37  N15       71.7120   15.2110   -4.3050 N.2   811  MGD811     -0.2411
     38  C16       71.9670   15.2410   -5.6580 C.2   811  MGD811      0.2467
     39  C17       73.2310   15.7130   -6.2360 C.1   811  MGD811      0.2441
     40  O17       74.0970   16.0640   -5.4110 O.2   811  MGD811     -0.2063
     41  N18       73.4120   15.7250   -7.6100 N.2   811  MGD811     -0.2474
     42  C19       72.4450   15.3230   -8.4620 C.1   811  MGD811      0.2608
     43  N19       72.7100   15.3850   -9.8190 N.pl3 811  MGD811     -0.0220
     44  N20       71.2360   14.8980   -7.9910 N.2   811  MGD811     -0.2682
     45  C21       70.9720   14.8030   -6.6370 C.1   811  MGD811      0.1293
     46  N22       69.8050   14.3620   -6.1010 N.2   811  MGD811     -0.1763
     47  C23       69.5930   14.0650   -4.6720 C.3   811  MGD811      0.2573
@<TRIPOS>BOND
     1    43    42    1
     2    42    44    2
     3    42    41    2
     4    44    45    2
     5    41    39    2
     6    45    46    2
     7    45    38    1
     8    39    38    1
     9    39    40    2
    10    46    47    1
    11    38    37    2
    12     7     6    2
    13    47    31    1
    14    47    36    1
    15    37    36    1
    16    14    13    1
    17    31    30    1
    18    36    34    1
    19     2     1    2
    20     4     6    1
    21     4     1    1
    22     5     6    1
    23     5    29    1
    24     6     8    1
    25    16    15    1
    26    13    11    1
    27    13    15    1
    28     1     9    1
    29     1     3    1
    30    30    29    1
    31    30    32    1
    32     9    10    1
    33    34    32    1
    34    34    35    2
    35    11    10    1
    36    11    12    1
    37    15    17    1
    38    32    33    2
    39    17    12    1
    40    17    18    1
    41    18    28    1
    42    18    19    1
    43    27    28    2
    44    27    25    2
    45    28    21    1
    46    19    20    1
    47    26    25    1
    48    25    24    2
    49    20    21    2
    50    21    22    1
    51    24    22    2
    52    22    23    2
