@<TRIPOS>MOLECULE
2jiq_MGD_A_1.pdb
 47 52 0 0 0
SMALL
GASTEIGER

@<TRIPOS>ATOM
      1  PB        42.5470   17.6470   24.5130 P.3   811  MGD811      0.2189
      2  O1B       42.6860   18.8860   25.3350 O.3   811  MGD811     -0.4371
      3  O2B       42.0120   17.7330   23.0940 O.2   811  MGD811     -0.5170
      4  O3B       41.6740   16.5840   25.3640 O.3   811  MGD811     -0.2703
      5  O3A       39.9880   14.8090   25.4040 O.3   811  MGD811     -0.3109
      6  PA        41.5560   14.9850   25.1400 P.3   811  MGD811      0.2189
      7  O1A       42.1830   14.2550   26.2960 O.3   811  MGD811     -0.4371
      8  O2A       41.8860   14.6260   23.6910 O.2   811  MGD811     -0.5170
      9  O5'       43.9200   16.8470   24.3880 O.3   811  MGD811     -0.3112
     10  C5'       44.8320   17.1280   23.3270 C.3   811  MGD811      0.1813
     11  C4'       46.2240   17.1750   23.9290 C.3   811  MGD811      0.1799
     12  O4'       47.1270   17.2900   22.8390 O.3   811  MGD811     -0.3326
     13  C3'       46.4680   18.3970   24.7870 C.3   811  MGD811      0.2158
     14  O3'       47.0720   18.0370   26.0390 O.3   811  MGD811     -0.2175
     15  C2'       47.3780   19.2240   23.8780 C.3   811  MGD811      0.2310
     16  O2'       48.2030   20.1610   24.5470 O.3   811  MGD811     -0.2158
     17  C1'       48.1750   18.1820   23.1340 C.3   811  MGD811      0.2293
     18  N9        48.6840   18.5980   21.8130 N.pl3 811  MGD811     -0.2354
     19  C8        48.3260   19.6920   21.1210 C.3   811  MGD811      0.2246
     20  N7        48.9690   19.7740   19.9340 N.2   811  MGD811     -0.2322
     21  C5        49.7640   18.6920   19.8320 C.2   811  MGD811      0.2182
     22  C6        50.7190   18.1580   18.8140 C.1   811  MGD811      0.2372
     23  O6        50.9800   18.7130   17.7200 O.2   811  MGD811     -0.2069
     24  N1        51.3380   17.0320   19.1000 N.2   811  MGD811     -0.2485
     25  C2        51.1140   16.3770   20.2600 C.1   811  MGD811      0.2531
     26  N2        51.8080   15.2330   20.3910 N.pl3 811  MGD811     -0.0226
     27  N3        50.2720   16.7720   21.2620 N.2   811  MGD811     -0.3074
     28  C4        49.5630   17.9180   21.0880 C.2   811  MGD811      0.2300
     29  C10       39.0340   14.8070   24.3310 C.3   811  MGD811      0.1837
     30  C11       37.9500   13.8120   24.7140 C.3   811  MGD811      0.1762
     31  O11       37.5500   14.0920   26.0550 O.3   811  MGD811     -0.3271
     32  C12       36.7650   13.8410   23.7760 C.2   811  MGD811      0.0473
     33  S12       37.0310   14.1150   22.1220 S.2   811  MGD811     -0.0526
     34  C13       35.5180   13.6340   24.2470 C.2   811  MGD811      0.0449
     35  S13       34.1710   13.6600   23.2360 S.2   811  MGD811     -0.0530
     36  C14       35.2220   13.3670   25.6910 C.3   811  MGD811      0.1850
     37  N15       34.3890   14.4450   26.1700 N.2   811  MGD811     -0.2411
     38  C16       34.0970   14.4770   27.4740 C.2   811  MGD811      0.2467
     39  C17       32.8150   14.9730   27.9940 C.1   811  MGD811      0.2441
     40  O17       31.9540   15.4200   27.1990 O.2   811  MGD811     -0.2063
     41  N18       32.6450   14.9220   29.3450 N.2   811  MGD811     -0.2474
     42  C19       33.6130   14.4450   30.2000 C.1   811  MGD811      0.2608
     43  N19       33.4130   14.4220   31.5480 N.pl3 811  MGD811     -0.0220
     44  N20       34.8100   14.0040   29.7590 N.2   811  MGD811     -0.2682
     45  C21       35.0900   13.9820   28.4350 C.1   811  MGD811      0.1293
     46  N22       36.2680   13.5170   27.9620 N.2   811  MGD811     -0.1763
     47  C23       36.5030   13.2320   26.5340 C.3   811  MGD811      0.2573
@<TRIPOS>BOND
     1    23    22    2
     2    22    24    2
     3    22    21    1
     4    24    25    2
     5    21    20    2
     6    21    28    1
     7    20    19    1
     8    25    26    1
     9    25    27    2
    10    28    27    2
    11    28    18    1
    12    19    18    1
    13    18    17    1
    14    33    32    2
    15    12    17    1
    16    12    11    1
    17     3     1    2
    18    17    15    1
    19    35    34    2
    20    10    11    1
    21    10     9    1
    22     8     6    2
    23    32    34    1
    24    32    30    1
    25    15    16    1
    26    15    13    1
    27    11    13    1
    28    34    36    1
    29    29    30    1
    30    29     5    1
    31     9     1    1
    32     1     2    1
    33     1     4    1
    34    30    31    1
    35    13    14    1
    36     6     4    1
    37     6     5    1
    38     6     7    1
    39    36    37    1
    40    36    47    1
    41    31    47    1
    42    37    38    2
    43    47    46    1
    44    40    39    2
    45    38    39    1
    46    38    45    1
    47    46    45    2
    48    39    41    2
    49    45    44    2
    50    41    42    2
    51    44    42    2
    52    42    43    1
