@<TRIPOS>MOLECULE
2jir_MGD_A_1.pdb
 47 52 0 0 0
SMALL
GASTEIGER

@<TRIPOS>ATOM
      1  PB        63.3900   18.3600   -3.0600 P.3   811  MGD811      0.2189
      2  O1B       63.2500   19.5610   -3.9490 O.2   811  MGD811     -0.5170
      3  O2B       63.7790   18.5860   -1.5970 O.3   811  MGD811     -0.4371
      4  O3B       64.4470   17.3600   -3.7140 O.3   811  MGD811     -0.2703
      5  O3A       65.9850   15.4070   -3.7900 O.3   811  MGD811     -0.3109
      6  PA        64.4410   15.7290   -3.5900 P.3   811  MGD811      0.2189
      7  O1A       63.7540   15.2410   -4.8400 O.2   811  MGD811     -0.5170
      8  O2A       64.0560   15.2790   -2.2250 O.3   811  MGD811     -0.4371
      9  O5'       61.9560   17.6080   -3.0720 O.3   811  MGD811     -0.3112
     10  C5'       61.0720   17.6700   -1.9240 C.3   811  MGD811      0.1813
     11  C4'       59.5980   17.8160   -2.3410 C.3   811  MGD811      0.1799
     12  O4'       58.7330   17.9480   -1.2010 O.3   811  MGD811     -0.3326
     13  C3'       59.3370   19.0570   -3.1720 C.3   811  MGD811      0.2158
     14  O3'       58.6820   18.6950   -4.3930 O.3   811  MGD811     -0.2175
     15  C2'       58.4370   19.9240   -2.3190 C.3   811  MGD811      0.2310
     16  O2'       57.5450   20.7190   -3.0790 O.3   811  MGD811     -0.2158
     17  C1'       57.6780   18.8730   -1.5370 C.3   811  MGD811      0.2293
     18  N9        57.1050   19.3300   -0.2610 N.pl3 811  MGD811     -0.2354
     19  C8        57.4130   20.4140    0.4760 C.3   811  MGD811      0.2246
     20  N7        56.6940   20.4130    1.6540 N.2   811  MGD811     -0.2322
     21  C5        55.9010   19.3110    1.6890 C.2   811  MGD811      0.2182
     22  C6        54.8950   18.6880    2.6090 C.1   811  MGD811      0.2372
     23  O6        54.5250   19.1330    3.7350 O.2   811  MGD811     -0.2069
     24  N1        54.3660   17.5470    2.1920 N.2   811  MGD811     -0.2485
     25  C2        54.6940   16.9720    1.0310 C.1   811  MGD811      0.2531
     26  N2        54.0940   15.8120    0.7490 N.pl3 811  MGD811     -0.0226
     27  N3        55.5630   17.4440    0.1350 N.2   811  MGD811     -0.3074
     28  C4        56.2030   18.6040    0.4100 C.2   811  MGD811      0.2300
     29  C10       66.9860   15.5500   -2.7690 C.3   811  MGD811      0.1837
     30  C11       68.1390   14.6080   -3.1080 C.3   811  MGD811      0.1762
     31  O11       68.6750   15.0400   -4.3530 O.3   811  MGD811     -0.3271
     32  C12       69.2310   14.6620   -2.0830 C.2   811  MGD811      0.0473
     33  S12       68.9070   14.9880   -0.4570 S.2   811  MGD811     -0.0526
     34  C13       70.4960   14.4820   -2.4620 C.2   811  MGD811      0.0449
     35  S13       71.6690   14.5690   -1.2540 S.2   811  MGD811     -0.0530
     36  C14       70.8990   14.2600   -3.9150 C.3   811  MGD811      0.1850
     37  N15       71.7420   15.3420   -4.3750 N.2   811  MGD811     -0.2411
     38  C16       72.0280   15.4010   -5.7050 C.2   811  MGD811      0.2467
     39  C17       73.2920   15.9210   -6.2340 C.1   811  MGD811      0.2441
     40  O17       74.1480   16.3090   -5.4360 O.2   811  MGD811     -0.2063
     41  N18       73.4970   15.9460   -7.5660 N.2   811  MGD811     -0.2474
     42  C19       72.5900   15.5070   -8.4490 C.1   811  MGD811      0.2608
     43  N19       72.9120   15.5830   -9.7730 N.pl3 811  MGD811     -0.0220
     44  N20       71.3830   15.0230   -8.0380 N.2   811  MGD811     -0.2682
     45  C21       71.0670   14.9350   -6.7100 C.1   811  MGD811      0.1293
     46  N22       69.8960   14.4510   -6.2380 N.2   811  MGD811     -0.1763
     47  C23       69.6750   14.1530   -4.8190 C.3   811  MGD811      0.2573
@<TRIPOS>BOND
     1    43    42    1
     2    42    44    2
     3    42    41    2
     4    44    45    2
     5    41    39    2
     6    45    46    2
     7    45    38    1
     8    46    47    1
     9    39    38    1
    10    39    40    2
    11    38    37    2
    12     7     6    2
    13    47    31    1
    14    47    36    1
    15    14    13    1
    16    37    36    1
    17    31    30    1
    18     2     1    2
    19    36    34    1
    20     5     6    1
    21     5    29    1
    22     4     6    1
    23     4     1    1
    24     6     8    1
    25    13    11    1
    26    13    15    1
    27    30    29    1
    28    30    32    1
    29    16    15    1
    30     9     1    1
    31     9    10    1
    32     1     3    1
    33    34    32    1
    34    34    35    2
    35    11    10    1
    36    11    12    1
    37    15    17    1
    38    32    33    2
    39    17    12    1
    40    17    18    1
    41    18    28    1
    42    18    19    1
    43    27    28    2
    44    27    25    2
    45    28    21    1
    46    19    20    1
    47    26    25    1
    48    25    24    2
    49    20    21    2
    50    21    22    1
    51    24    22    2
    52    22    23    2
