@<TRIPOS>MOLECULE
2jis_PLP_A_1.pdb
 15 15 0 0 0
SMALL
GASTEIGER

@<TRIPOS>ATOM
      1  N1        -3.4060  100.1380   31.5650 N.ar  1494  PLP1494    -0.2452
      2  C2        -2.5220  100.3480   30.5970 C.ar  1494  PLP1494     0.0978
      3  C2A       -3.0130  100.9500   29.2940 C.3   1494  PLP1494     0.0555
      4  C3        -1.1990  100.0220   30.8020 C.ar  1494  PLP1494     0.2049
      5  O3        -0.2570  100.2260   29.8660 O.3   1494  PLP1494    -0.2857
      6  C4        -0.8390   99.4760   32.0260 C.ar  1494  PLP1494     0.0182
      7  C4A        0.4620   99.1400   32.3200 C.3   1494  PLP1494     0.0342
      8  C5        -1.7850   99.2500   33.0130 C.ar  1494  PLP1494     0.0261
      9  C6        -3.0880   99.5970   32.7390 C.ar  1494  PLP1494     0.0965
     10  C5A       -1.4990   98.6200   34.3730 C.3   1494  PLP1494     0.1815
     11  O4P       -0.4590   99.2610   35.0310 O.3   1494  PLP1494    -0.2653
     12  P          0.3130   98.4160   36.1760 P.3   1494  PLP1494     0.5329
     13  O1P        1.1960   99.4910   36.7970 O.3   1494  PLP1494    -0.1145
     14  O2P        1.1950   97.2750   35.4490 O.2   1494  PLP1494    -0.2224
     15  O3P       -0.7090   97.8390   37.1010 O.3   1494  PLP1494    -0.1145
@<TRIPOS>BOND
     1     3     2    1
     2     5     4    1
     3     2     4   ar
     4     2     1   ar
     5     4     6   ar
     6     1     9   ar
     7     6     7    1
     8     6     8   ar
     9     9     8   ar
    10     8    10    1
    11    10    11    1
    12    11    12    1
    13    14    12    2
    14    12    13    1
    15    12    15    1
