@<TRIPOS>MOLECULE
2jiu_AEE_A_1.pdb
 33 37 0 0 0
SMALL
GASTEIGER

@<TRIPOS>ATOM
      1  CAQ      -10.6900   10.5920   36.2440 C.3   2017  AEE2017     0.0899
      2  CAO      -11.8340    9.6390   35.8930 C.3   2017  AEE2017     0.0897
      3  NBF      -13.0640   10.0790   36.5690 N.3   2017  AEE2017    -0.2703
      4  CAN      -12.8520   10.0760   38.0230 C.3   2017  AEE2017     0.0722
      5  CAA      -13.5550    8.8650   38.6400 C.3   2017  AEE2017     0.0188
      6  CAP      -13.4060   11.4380   36.1260 C.3   2017  AEE2017     0.0897
      7  CAR      -12.2630   12.3920   36.4780 C.3   2017  AEE2017     0.0899
      8  NBG      -11.0320   11.9530   35.8060 N.3   2017  AEE2017    -0.2665
      9  CAS      -11.2360   11.9630   34.3500 C.3   2017  AEE2017     0.0992
     10  CAX      -10.5150   13.1680   33.7420 C.ar  2017  AEE2017    -0.0061
     11  CAI       -9.1290   13.1700   33.6420 C.ar  2017  AEE2017    -0.0028
     12  CAK       -8.4730   14.2650   33.0900 C.ar  2017  AEE2017     0.0023
     13  CAJ      -11.2460   14.2610   33.2910 C.ar  2017  AEE2017    -0.0028
     14  CAL      -10.5910   15.3560   32.7400 C.ar  2017  AEE2017     0.0023
     15  CAY       -9.2040   15.3580   32.6390 C.ar  2017  AEE2017     0.0305
     16  CBA       -8.5490   16.4520   32.0870 C.2   2017  AEE2017     0.1437
     17  NAW       -7.2350   16.6770   32.1440 N.2   2017  AEE2017    -0.3503
     18  CAM       -9.1330   17.4460   31.4160 C.2   2017  AEE2017     0.0516
     19  C5        -8.1880   18.3040   31.0460 C.2   2017  AEE2017     0.1615
     20  C4        -6.9810   17.8160   31.5090 C.1   2017  AEE2017     0.0942
     21  N3        -5.8570   18.5030   31.2660 N.2   2017  AEE2017    -0.1548
     22  C2        -5.8990   19.6400   30.5890 C.3   2017  AEE2017     0.4013
     23  N1        -7.0390   20.1360   30.1320 N.2   2017  AEE2017    -0.0317
     24  C6        -8.1980   19.4970   30.3410 C.2   2017  AEE2017     0.3689
     25  NAV       -9.3400   19.9990   29.8800 N.pl3 2017  AEE2017    -0.0307
     26  CBE       -9.4520   21.4390   29.6060 C.3   2017  AEE2017     0.2274
     27  CAB      -10.9280   21.8220   29.4840 C.3   2017  AEE2017     0.0603
     28  CAZ       -8.7290   21.7690   28.2990 C.ar  2017  AEE2017     0.0239
     29  CAG       -8.1820   23.0320   28.1070 C.ar  2017  AEE2017    -0.0003
     30  CAD       -7.5250   23.3320   26.9190 C.ar  2017  AEE2017    -0.0002
     31  CAC       -7.4140   22.3680   25.9240 C.ar  2017  AEE2017    -0.0000
     32  CAE       -7.9610   21.1050   26.1160 C.ar  2017  AEE2017    -0.0002
     33  CAH       -8.6180   20.8050   27.3040 C.ar  2017  AEE2017    -0.0003
@<TRIPOS>BOND
     1    31    32   ar
     2    31    30   ar
     3    32    33   ar
     4    30    29   ar
     5    33    28   ar
     6    29    28   ar
     7    28    26    1
     8    27    26    1
     9    26    25    1
    10    25    24    1
    11    23    24    2
    12    23    22    1
    13    24    19    1
    14    22    21    1
    15    19    18    2
    16    19    20    1
    17    21    20    2
    18    18    16    1
    19    20    17    2
    20    16    17    2
    21    16    15    1
    22    15    14   ar
    23    15    12   ar
    24    14    13   ar
    25    12    11   ar
    26    13    10   ar
    27    11    10   ar
    28    10     9    1
    29     9     8    1
    30     8     1    1
    31     8     7    1
    32     2     1    1
    33     2     3    1
    34     6     7    1
    35     6     3    1
    36     3     4    1
    37     4     5    1
