@<TRIPOS>MOLECULE
2jiw_BEU_A_1.pdb
 15 15 0 0 0
SMALL
GASTEIGER

@<TRIPOS>ATOM
      1  C'         3.8560  -11.6010    1.6320 C.3   1594  BEU1594     0.2066
      2  O1'        3.6780  -12.4890    0.5360 O.3   1594  BEU1594    -0.2155
      3  C1         5.2040  -11.8560    2.2780 C.2   1594  BEU1594     0.0180
      4  C2         5.2360  -12.5560    3.4270 C.2   1594  BEU1594    -0.0092
      5  C3         6.5420  -12.9220    4.0860 C.3   1594  BEU1594     0.1357
      6  N3         6.9880  -14.2130    3.5420 N.3   1594  BEU1594    -0.1262
      7  C4         7.6230  -11.8170    3.9440 C.3   1594  BEU1594     0.1500
      8  N4         7.9530  -11.1880    5.2270 N.am  1594  BEU1594    -0.2026
      9  C4'        7.0510  -10.5950    6.0190 C.2   1594  BEU1594     0.2419
     10  O4'        5.8820  -10.5340    5.7280 O.2   1594  BEU1594    -0.2733
     11  CM4        7.5410  -10.0140    7.3020 C.3   1594  BEU1594     0.0964
     12  C5         7.3210  -10.7480    2.8830 C.3   1594  BEU1594     0.2076
     13  O5         8.5530  -10.1950    2.4070 O.3   1594  BEU1594    -0.2181
     14  C6         6.5060  -11.3340    1.7140 C.3   1594  BEU1594     0.2044
     15  O4         6.2800  -10.3080    0.7430 O.3   1594  BEU1594    -0.2158
@<TRIPOS>BOND
     1     2     1    1
     2    15    14    1
     3     1     3    1
     4    14     3    1
     5    14    12    1
     6     3     4    2
     7    13    12    1
     8    12     7    1
     9     4     5    1
    10     6     5    1
    11     7     5    1
    12     7     8    1
    13     8     9   am
    14    10     9    2
    15     9    11    1
