@<TRIPOS>MOLECULE
2jiy_SPN_M_1.pdb
 43 42 0 0 0
SMALL
GASTEIGER

@<TRIPOS>ATOM
      1  CMA      -46.1340   -4.9390    6.8530 C.3   1309  SPN1309     0.1745
      2  O1       -44.7430   -4.5960    6.6000 O.3   1309  SPN1309    -0.3486
      3  CM1      -44.7310   -2.4860    7.7750 C.3   1309  SPN1309     0.0376
      4  CM2      -42.5900   -3.5060    7.0290 C.3   1309  SPN1309     0.0376
      5  C1       -43.9890   -3.8040    7.5570 C.3   1309  SPN1309     0.1476
      6  C2       -43.8570   -4.5480    8.8700 C.2   1309  SPN1309     0.1972
      7  O2       -43.8920   -3.9100    9.9100 O.2   1309  SPN1309    -0.2889
      8  C3       -43.6900   -6.0600    8.9320 C.2   1309  SPN1309     0.0395
      9  C4       -43.3860   -6.6600   10.1150 C.2   1309  SPN1309    -0.0012
     10  C5       -43.3140   -8.1200   10.2940 C.2   1309  SPN1309    -0.0218
     11  CM3      -43.5990   -9.0710    9.1620 C.3   1309  SPN1309     0.0310
     12  C6       -42.9770   -8.5770   11.5260 C.2   1309  SPN1309    -0.0043
     13  C7       -42.8690   -9.9970   11.8710 C.2   1309  SPN1309    -0.0006
     14  C8       -42.5400  -10.3190   13.1450 C.2   1309  SPN1309    -0.0043
     15  C9       -42.4150  -11.6980   13.6270 C.2   1309  SPN1309    -0.0218
     16  CM4      -42.8670  -12.8610   12.7890 C.3   1309  SPN1309     0.0310
     17  C10      -41.8830  -11.8740   14.8630 C.2   1309  SPN1309    -0.0043
     18  C11      -41.7140  -13.1730   15.5220 C.2   1309  SPN1309    -0.0006
     19  C12      -41.2560  -13.1660   16.7960 C.2   1309  SPN1309    -0.0043
     20  C13      -41.0610  -14.3600   17.6100 C.2   1309  SPN1309    -0.0218
     21  CM5      -41.7910  -15.6220   17.2210 C.3   1309  SPN1309     0.0310
     22  C14      -40.2580  -14.2700   18.7180 C.2   1309  SPN1309    -0.0043
     23  C15      -40.0440  -15.4310   19.6370 C.2   1309  SPN1309    -0.0003
     24  C16      -39.1330  -15.5090   20.6510 C.2   1309  SPN1309    -0.0003
     25  C17      -38.0660  -14.3880   20.9750 C.2   1309  SPN1309    -0.0043
     26  C18      -37.2520  -14.4040   22.0730 C.2   1309  SPN1309    -0.0218
     27  CM6      -37.2930  -15.4810   23.1220 C.3   1309  SPN1309     0.0310
     28  C19      -36.3160  -13.2820   22.1810 C.2   1309  SPN1309    -0.0043
     29  C20      -35.6730  -12.9140   23.3100 C.2   1309  SPN1309    -0.0010
     30  C21      -34.7860  -11.7530   23.2090 C.2   1309  SPN1309    -0.0085
     31  C22      -34.0550  -11.2580   24.2320 C.2   1309  SPN1309    -0.0436
     32  CM7      -34.1070  -11.8660   25.5970 C.3   1309  SPN1309     0.0264
     33  C23      -33.1880  -10.0530   23.9830 C.3   1309  SPN1309     0.0267
     34  C24      -31.7020  -10.3870   23.8650 C.3   1309  SPN1309     0.0297
     35  C25      -30.8680   -9.1710   23.5640 C.2   1309  SPN1309    -0.0342
     36  C26      -29.7160   -9.2450   22.8490 C.2   1309  SPN1309    -0.0478
     37  CM8      -29.2160  -10.5610   22.3170 C.3   1309  SPN1309     0.0260
     38  C27      -28.9000   -8.0150   22.5650 C.3   1309  SPN1309     0.0263
     39  C28      -28.5480   -7.3000   23.8640 C.3   1309  SPN1309     0.0297
     40  C29      -27.4580   -6.2930   23.7200 C.2   1309  SPN1309    -0.0342
     41  C30      -27.3020   -5.3210   24.6620 C.2   1309  SPN1309    -0.0478
     42  CM9      -26.1980   -4.3140   24.5020 C.3   1309  SPN1309     0.0260
     43  CMB      -28.2170   -5.2420   25.8630 C.3   1309  SPN1309     0.0260
@<TRIPOS>BOND
     1     2     1    1
     2     2     5    1
     3     4     5    1
     4     5     3    1
     5     5     6    1
     6     6     8    1
     7     6     7    2
     8     8     9    2
     9    11    10    1
    10     9    10    1
    11    10    12    2
    12    12    13    1
    13    13    14    2
    14    16    15    1
    15    14    15    1
    16    15    17    2
    17    17    18    1
    18    18    19    2
    19    19    20    1
    20    21    20    1
    21    20    22    2
    22    22    23    1
    23    23    24    2
    24    24    25    1
    25    25    26    2
    26    26    28    1
    27    26    27    1
    28    28    29    2
    29    37    36    1
    30    38    36    1
    31    38    39    1
    32    36    35    2
    33    30    29    1
    34    30    31    2
    35    35    34    1
    36    40    39    1
    37    40    41    2
    38    34    33    1
    39    33    31    1
    40    31    32    1
    41    42    41    1
    42    41    43    1
