@<TRIPOS>MOLECULE
2jiy_U10_L_1.pdb
 27 27 0 0 0
SMALL
GASTEIGER

@<TRIPOS>ATOM
      1  C1       -57.7520   -7.1770   34.5830 C.2   1286  U101286     0.0195
      2  C2       -58.5690   -7.3720   35.8270 C.2   1286  U101286     0.2282
      3  C3       -59.7660   -6.5490   36.1070 C.2   1286  U101286     0.2140
      4  C4       -60.1720   -5.5300   35.1140 C.2   1286  U101286     0.2140
      5  C5       -59.3630   -5.3100   33.8820 C.2   1286  U101286     0.2282
      6  C6       -58.1600   -6.1260   33.6020 C.2   1286  U101286     0.0191
      7  C1M      -56.5340   -8.0050   34.3370 C.3   1286  U101286     0.0343
      8  C3M      -60.0630   -6.4970   38.5920 C.3   1286  U101286     0.2528
      9  C4M      -61.1570   -3.6530   36.2740 C.3   1286  U101286     0.2528
     10  C7       -57.3940   -5.8360   32.3310 C.3   1286  U101286     0.0295
     11  C8       -58.1110   -6.4180   31.1480 C.3   1286  U101286     0.0048
     12  C9       -57.6520   -6.1620   29.9150 C.3   1286  U101286     0.0003
     13  C10      -57.0420   -4.8280   29.5800 C.3   1286  U101286     0.0000
     14  C11      -57.7370   -7.2380   28.8470 C.3   1286  U101286     0.0000
     15  C12      -56.3490   -7.7800   28.4890 C.3   1286  U101286     0.0000
     16  C13      -56.2020   -9.2530   28.8330 C.3   1286  U101286     0.0000
     17  C14      -55.7710  -10.1150   27.8840 C.3   1286  U101286     0.0000
     18  C15      -54.8020  -11.1990   28.2760 C.3   1286  U101286     0.0000
     19  C16      -56.2190   -9.9750   26.4380 C.3   1286  U101286     0.0000
     20  C17      -56.4180  -11.3200   25.7370 C.3   1286  U101286     0.0000
     21  C18      -57.5150  -11.1990   24.6970 C.3   1286  U101286     0.0000
     22  C19      -57.5090  -12.0280   23.6380 C.3   1286  U101286     0.0000
     23  C20      -58.7880  -12.3680   22.9080 C.3   1286  U101286     0.0000
     24  O2       -58.2740   -8.2180   36.6780 O.2   1286  U101286    -0.2836
     25  O3       -60.5200   -6.7430   37.2550 O.2   1286  U101286    -0.4652
     26  O4       -61.2690   -4.7580   35.3760 O.2   1286  U101286    -0.4652
     27  O5       -59.6930   -4.4310   33.0610 O.2   1286  U101286    -0.2836
@<TRIPOS>BOND
     1    23    22    1
     2    22    21    1
     3    21    20    1
     4    20    19    1
     5    19    17    1
     6    17    18    1
     7    17    16    1
     8    15    16    1
     9    15    14    1
    10    14    12    1
    11    13    12    1
    12    12    11    1
    13    11    10    1
    14    10     6    1
    15    27     5    2
    16     6     5    1
    17     6     1    2
    18     5     4    1
    19     7     1    1
    20     1     2    1
    21     4    26    1
    22     4     3    2
    23    26     9    1
    24     2     3    1
    25     2    24    2
    26     3    25    1
    27    25     8    1
