@<TRIPOS>MOLECULE
2jiz_ADP_D_1.pdb
 27 29 0 0 0
SMALL
GASTEIGER

@<TRIPOS>ATOM
      1  PB       -32.1830   35.7430   -1.9050 P.3   1476  ADP1476     0.5373
      2  O1B      -31.7150   34.9280   -0.7370 O.3   1476  ADP1476    -0.1143
      3  O2B      -31.0510   36.2840   -2.7340 O.2   1476  ADP1476    -0.2221
      4  O3B      -33.2710   35.0810   -2.7100 O.3   1476  ADP1476    -0.1143
      5  PA       -34.4100   37.4670   -1.1740 P.3   1476  ADP1476     0.2231
      6  O1A      -34.8690   37.8030   -2.5690 O.2   1476  ADP1476    -0.5169
      7  O2A      -35.1920   36.4530   -0.3900 O.3   1476  ADP1476    -0.4370
      8  O3A      -32.8340   37.0460   -1.1830 O.3   1476  ADP1476    -0.2261
      9  O5'      -34.2900   38.8380   -0.3530 O.3   1476  ADP1476    -0.3111
     10  C5'      -33.9220   38.7620    1.0280 C.3   1476  ADP1476     0.1813
     11  C4'      -34.5830   39.8850    1.8050 C.3   1476  ADP1476     0.1821
     12  O4'      -33.9590   41.1090    1.4020 O.3   1476  ADP1476    -0.3135
     13  C3'      -36.0620   40.0720    1.4720 C.3   1476  ADP1476     0.2184
     14  O3'      -36.9590   39.2640    2.2340 O.3   1476  ADP1476    -0.2174
     15  C2'      -36.2710   41.5430    1.7370 C.3   1476  ADP1476     0.2570
     16  O2'      -36.5080   41.7280    3.1300 O.3   1476  ADP1476    -0.2130
     17  C1'      -34.9350   42.1560    1.3490 C.3   1476  ADP1476     0.3186
     18  N9       -35.0340   42.6080   -0.0500 N.pl3 1476  ADP1476    -0.1439
     19  C8       -34.5790   41.9210   -1.1200 C.3   1476  ADP1476     0.3377
     20  N7       -34.8100   42.5980   -2.2680 N.2   1476  ADP1476    -0.2095
     21  C5       -35.4450   43.7420   -1.9300 C.2   1476  ADP1476     0.2526
     22  C6       -35.9640   44.9150   -2.6650 C.2   1476  ADP1476     0.4393
     23  N6       -35.8750   44.9840   -4.0190 N.pl3 1476  ADP1476     0.2180
     24  N1       -36.5290   45.8990   -1.9410 N.2   1476  ADP1476     0.0021
     25  C2       -36.6250   45.8340   -0.5980 C.3   1476  ADP1476     0.5254
     26  N3       -36.1630   44.8130    0.1420 N.2   1476  ADP1476    -0.0055
     27  C4       -35.5740   43.7530   -0.4650 C.2   1476  ADP1476     0.3518
@<TRIPOS>BOND
     1    23    22    1
     2     3     1    2
     3     4     1    1
     4    22    24    2
     5    22    21    1
     6     6     5    2
     7    20    21    2
     8    20    19    1
     9    24    25    1
    10    21    27    1
    11     1     8    1
    12     1     2    1
    13     8     5    1
    14     5     7    1
    15     5     9    1
    16    19    18    1
    17    25    26    1
    18    27    18    1
    19    27    26    2
    20     9    10    1
    21    18    17    1
    22    10    11    1
    23    17    12    1
    24    17    15    1
    25    12    11    1
    26    13    15    1
    27    13    11    1
    28    13    14    1
    29    15    16    1
