@<TRIPOS>MOLECULE
2jiz_STL_G_1.pdb
 18 19 0 0 0
SMALL
GASTEIGER

@<TRIPOS>ATOM
      1  C1        -9.3030   20.5410    6.9670 C.ar  1273  STL1273     0.1989
      2  C2       -10.4520   21.2220    7.3710 C.ar  1273  STL1273     0.0840
      3  C3       -10.3440   22.4730    7.9910 C.ar  1273  STL1273     0.1989
      4  C4        -9.0780   23.0390    8.2010 C.ar  1273  STL1273     0.0422
      5  C5        -7.9280   22.3340    7.8070 C.ar  1273  STL1273     0.0064
      6  C6        -8.0500   21.1010    7.1750 C.ar  1273  STL1273     0.0422
      7  C7        -6.5650   22.8760    7.9720 C.2   1273  STL1273    -0.0001
      8  C8        -6.4350   24.1910    8.0950 C.2   1273  STL1273    -0.0039
      9  C9        -5.1500   24.9230    8.1940 C.2   1273  STL1273    -0.0177
     10  C10       -5.0570   26.0120    9.0530 C.3   1273  STL1273     0.0556
     11  C11       -3.8730   26.7390    9.1300 C.2   1273  STL1273     0.0206
     12  C12       -2.7910   26.3920    8.3330 C.2   1273  STL1273     0.1918
     13  C13       -2.8800   25.3120    7.4530 C.2   1273  STL1273     0.0030
     14  C14       -4.0660   24.5790    7.3770 C.2   1273  STL1273    -0.0038
     15  O1        -1.6500   27.1290    8.4290 O.2   1273  STL1273    -0.2869
     16  O2       -11.4790   23.1360    8.3730 O.3   1273  STL1273    -0.2865
     17  O3        -9.3930   19.3240    6.3680 O.3   1273  STL1273    -0.2865
     18  C1        -2.6290   25.6790    7.8040 C.2   1273  STL1273     0.0417
@<TRIPOS>BOND
     1    17     1    1
     2     1     6   ar
     3     1     2   ar
     4     6     5   ar
     5     2     3   ar
     6    14    13    1
     7    14     9    2
     8    13    18    2
     9    18    12    1
    10     5     7    1
    11     5     4   ar
    12     7     8    2
    13     3     4   ar
    14     3    16    1
    15     8     9    1
    16     9    10    1
    17    12    15    1
    18    12    11    2
    19    10    11    1
