@<TRIPOS>MOLECULE
2jiz_ANP_A_1.pdb
 31 33 0 0 0
SMALL
GASTEIGER

@<TRIPOS>ATOM
      1  PG       -15.9490   35.8850  -20.5900 P.3   1511  ANP1511     0.4884
      2  O1G      -17.4480   35.7860  -20.7260 O.3   1511  ANP1511    -0.1240
      3  O2G      -15.1890   34.9700  -21.5240 O.2   1511  ANP1511    -0.2331
      4  O3G      -15.4240   35.7950  -19.1730 O.3   1511  ANP1511    -0.1240
      5  PB       -14.0690   37.9750  -21.7630 P.3   1511  ANP1511     0.4669
      6  O1B      -13.1100   38.1520  -20.6200 O.3   1511  ANP1511    -0.1253
      7  O2B      -13.6290   37.0610  -22.8910 O.2   1511  ANP1511    -0.2351
      8  N3B      -15.6230   37.5180  -21.1010 N.3   1511  ANP1511    -0.0163
      9  PA       -15.1220   39.6070  -23.8230 P.3   1511  ANP1511     0.2220
     10  O1A      -16.3220   38.6850  -23.8200 O.3   1511  ANP1511    -0.4370
     11  O2A      -14.1820   39.5910  -24.9840 O.2   1511  ANP1511    -0.5170
     12  O3A      -14.2770   39.4230  -22.4510 O.3   1511  ANP1511    -0.2360
     13  O5'      -15.6310   41.1180  -23.6300 O.3   1511  ANP1511    -0.3111
     14  C5'      -16.3580   41.4950  -22.4580 C.3   1511  ANP1511     0.1813
     15  C4'      -17.3520   42.5940  -22.7980 C.3   1511  ANP1511     0.1821
     16  O4'      -16.6080   43.7900  -23.0180 O.3   1511  ANP1511    -0.3135
     17  C3'      -18.1310   42.3190  -24.0830 C.3   1511  ANP1511     0.2184
     18  O3'      -19.4710   42.8130  -23.9770 O.3   1511  ANP1511    -0.2174
     19  C2'      -17.3960   43.1070  -25.1430 C.3   1511  ANP1511     0.2570
     20  O2'      -18.2570   43.5500  -26.1900 O.3   1511  ANP1511    -0.2130
     21  C1'      -16.8300   44.2670  -24.3490 C.3   1511  ANP1511     0.3186
     22  N9       -15.5680   44.7800  -24.9420 N.pl3 1511  ANP1511    -0.1439
     23  C8       -14.4590   44.0740  -25.2160 C.3   1511  ANP1511     0.3377
     24  N7       -13.5040   44.8750  -25.7530 N.2   1511  ANP1511    -0.2095
     25  C5       -13.9940   46.1250  -25.8270 C.2   1511  ANP1511     0.2526
     26  C6       -13.5090   47.4520  -26.2870 C.2   1511  ANP1511     0.4393
     27  N6       -12.2620   47.6110  -26.7980 N.pl3 1511  ANP1511     0.2180
     28  N1       -14.3630   48.5000  -26.1830 N.2   1511  ANP1511     0.0021
     29  C2       -15.6100   48.3640  -25.6810 C.3   1511  ANP1511     0.5254
     30  N3       -16.1150   47.1970  -25.2430 N.2   1511  ANP1511    -0.0055
     31  C4       -15.3650   46.0610  -25.2850 C.2   1511  ANP1511     0.3518
@<TRIPOS>BOND
     1    27    26    1
     2    26    28    2
     3    26    25    1
     4    20    19    1
     5    28    29    1
     6    25    24    2
     7    25    31    1
     8    24    23    1
     9    29    30    1
    10    31    30    2
    11    31    22    1
    12    23    22    1
    13    19    21    1
    14    19    17    1
    15    11     9    2
    16    22    21    1
    17    21    16    1
    18    17    18    1
    19    17    15    1
    20     9    10    1
    21     9    13    1
    22     9    12    1
    23    13    14    1
    24    16    15    1
    25     7     5    2
    26    15    14    1
    27    12     5    1
    28     5     8    1
    29     5     6    1
    30     3     1    2
    31     8     1    1
    32     2     1    1
    33     1     4    1
