@<TRIPOS>MOLECULE
2jj0_SPN_M_1.pdb
 43 42 0 0 0
SMALL
GASTEIGER

@<TRIPOS>ATOM
      1  CMA      -46.2150   -4.8670    6.9830 C.3   1308  SPN1308     0.1745
      2  O1       -44.9200   -4.3980    6.5150 O.3   1308  SPN1308    -0.3489
      3  CM1      -44.7400   -2.1920    7.5500 C.3   1308  SPN1308     0.0372
      4  CM2      -42.7000   -3.3420    6.7150 C.3   1308  SPN1308     0.0372
      5  C1       -44.0730   -3.5510    7.3490 C.3   1308  SPN1308     0.1437
      6  C2       -43.9230   -4.2280    8.6890 C.2   1308  SPN1308     0.1751
      7  O2       -44.0050   -3.5640    9.7030 O.2   1308  SPN1308    -0.2936
      8  C3       -43.7010   -5.7230    8.7940 C.3   1308  SPN1308     0.0713
      9  C4       -43.1990   -6.2720    9.9380 C.3   1308  SPN1308     0.0299
     10  C5       -43.3760   -7.6950   10.2640 C.2   1308  SPN1308    -0.0435
     11  CM3      -43.9320   -8.6470    9.2450 C.3   1308  SPN1308     0.0264
     12  C6       -43.0230   -8.1180   11.5050 C.2   1308  SPN1308    -0.0085
     13  C7       -43.1580   -9.5030   11.9580 C.2   1308  SPN1308    -0.0010
     14  C8       -42.3630   -9.9460   12.9570 C.2   1308  SPN1308    -0.0043
     15  C9       -42.4490  -11.3080   13.4900 C.2   1308  SPN1308    -0.0218
     16  CM4      -43.0070  -12.4590   12.6970 C.3   1308  SPN1308     0.0310
     17  C10      -42.0070  -11.4790   14.7520 C.2   1308  SPN1308    -0.0043
     18  C11      -42.0150  -12.7660   15.4550 C.2   1308  SPN1308    -0.0006
     19  C12      -41.4660  -12.7930   16.6910 C.2   1308  SPN1308    -0.0043
     20  C13      -41.3870  -13.9880   17.5210 C.2   1308  SPN1308    -0.0218
     21  CM5      -42.1500  -15.2180   17.1390 C.3   1308  SPN1308     0.0310
     22  C14      -40.5950  -13.9060   18.6180 C.2   1308  SPN1308    -0.0043
     23  C15      -40.4170  -15.0270   19.5640 C.2   1308  SPN1308    -0.0003
     24  C16      -39.4530  -15.0820   20.5220 C.2   1308  SPN1308    -0.0003
     25  C17      -38.3380  -13.9830   20.7740 C.2   1308  SPN1308    -0.0043
     26  C18      -37.5320  -13.9960   21.8750 C.2   1308  SPN1308    -0.0218
     27  CM6      -37.6780  -15.0210   22.9560 C.3   1308  SPN1308     0.0310
     28  C19      -36.5400  -12.9220   22.0020 C.2   1308  SPN1308    -0.0043
     29  C20      -35.9620  -12.5440   23.1770 C.2   1308  SPN1308    -0.0010
     30  C21      -35.0270  -11.4080   23.1690 C.2   1308  SPN1308    -0.0085
     31  C22      -34.3960  -10.9610   24.2720 C.2   1308  SPN1308    -0.0436
     32  CM7      -34.5910  -11.6250   25.5990 C.3   1308  SPN1308     0.0264
     33  C23      -33.4690   -9.7940   24.1560 C.3   1308  SPN1308     0.0267
     34  C24      -32.0500  -10.1730   23.7120 C.3   1308  SPN1308     0.0297
     35  C25      -31.2090   -8.9800   23.3670 C.2   1308  SPN1308    -0.0342
     36  C26      -30.0910   -9.0460   22.6080 C.2   1308  SPN1308    -0.0478
     37  CM8      -29.5730  -10.3260   22.0340 C.3   1308  SPN1308     0.0260
     38  C27      -29.3400   -7.7940   22.3200 C.3   1308  SPN1308     0.0263
     39  C28      -28.3870   -7.4170   23.4570 C.3   1308  SPN1308     0.0297
     40  C29      -27.3240   -6.4540   23.0080 C.2   1308  SPN1308    -0.0342
     41  C30      -26.9420   -5.3720   23.7500 C.2   1308  SPN1308    -0.0478
     42  CM9      -25.8690   -4.4640   23.2080 C.3   1308  SPN1308     0.0260
     43  CMB      -27.5800   -5.0680   25.0870 C.3   1308  SPN1308     0.0260
@<TRIPOS>BOND
     1     2     1    1
     2     2     5    1
     3     4     5    1
     4     5     3    1
     5     5     6    1
     6     6     8    1
     7     6     7    2
     8     8     9    1
     9    11    10    1
    10     9    10    1
    11    10    12    2
    12    12    13    1
    13    13    14    2
    14    16    15    1
    15    14    15    1
    16    15    17    2
    17    17    18    1
    18    18    19    2
    19    19    20    1
    20    21    20    1
    21    20    22    2
    22    22    23    1
    23    23    24    2
    24    24    25    1
    25    25    26    2
    26    26    28    1
    27    26    27    1
    28    28    29    2
    29    37    36    1
    30    38    36    1
    31    38    39    1
    32    36    35    2
    33    40    39    1
    34    40    41    2
    35    30    29    1
    36    30    31    2
    37    42    41    1
    38    35    34    1
    39    34    33    1
    40    41    43    1
    41    33    31    1
    42    31    32    1
