@<TRIPOS>MOLECULE
2jj0_U10_L_1.pdb
 17 17 0 0 0
SMALL
GASTEIGER

@<TRIPOS>ATOM
      1  C1       -58.0790   -7.2740   34.3290 C.2   1286  U101286     0.0198
      2  C2       -58.8810   -7.4820   35.5720 C.2   1286  U101286     0.2282
      3  C3       -60.0350   -6.6160   35.9180 C.2   1286  U101286     0.2140
      4  C4       -60.4070   -5.5060   34.9980 C.2   1286  U101286     0.2140
      5  C5       -59.5930   -5.2810   33.7510 C.2   1286  U101286     0.2285
      6  C6       -58.4320   -6.1530   33.4050 C.2   1286  U101286     0.0235
      7  C1M      -56.9290   -8.1740   34.0270 C.3   1286  U101286     0.0343
      8  C3M      -60.2660   -6.5800   38.3870 C.3   1286  U101286     0.2528
      9  C4M      -61.3500   -3.6810   36.3380 C.3   1286  U101286     0.2528
     10  C7       -57.6780   -5.8620   32.1170 C.3   1286  U101286     0.0551
     11  C8       -58.5020   -6.3320   30.9350 C.2   1286  U101286    -0.0259
     12  C9       -58.2450   -5.9560   29.6750 C.2   1286  U101286    -0.0300
     13  C10      -57.3140   -4.8100   29.3890 C.3   1286  U101286     0.0304
     14  O2       -58.6080   -8.3900   36.3640 O.2   1286  U101286    -0.2836
     15  O3       -60.7620   -6.8440   37.0730 O.2   1286  U101286    -0.4652
     16  O4       -61.4780   -4.7000   35.3350 O.2   1286  U101286    -0.4652
     17  O5       -59.8670   -4.3550   32.9650 O.2   1286  U101286    -0.2835
@<TRIPOS>BOND
     1    13    12    1
     2    12    11    2
     3    11    10    1
     4    10     6    1
     5    17     5    2
     6     6     5    1
     7     6     1    2
     8     5     4    1
     9     7     1    1
    10     1     2    1
    11     4    16    1
    12     4     3    2
    13    16     9    1
    14     2     3    1
    15     2    14    2
    16     3    15    1
    17    15     8    1
