@<TRIPOS>MOLECULE
2jj1_ADP_D_1.pdb
 27 29 0 0 0
SMALL
GASTEIGER

@<TRIPOS>ATOM
      1  PB       -31.9230   36.7040   -0.5860 P.3   1476  ADP1476     0.5373
      2  O1B      -30.8180   37.4510   -1.2950 O.3   1476  ADP1476    -0.1143
      3  O2B      -32.9520   35.9950   -1.4480 O.2   1476  ADP1476    -0.2221
      4  O3B      -31.4630   35.8660    0.5690 O.3   1476  ADP1476    -0.1143
      5  PA       -34.2470   38.2220    0.0730 P.3   1476  ADP1476     0.2231
      6  O1A      -34.9110   37.0670    0.7450 O.3   1476  ADP1476    -0.4370
      7  O2A      -34.7600   38.7240   -1.2630 O.2   1476  ADP1476    -0.5169
      8  O3A      -32.6590   37.9460    0.0970 O.3   1476  ADP1476    -0.2261
      9  O5'      -34.2200   39.5110    1.0520 O.3   1476  ADP1476    -0.3111
     10  C5'      -33.6950   39.4680    2.3750 C.3   1476  ADP1476     0.1813
     11  C4'      -34.2240   40.6520    3.1860 C.3   1476  ADP1476     0.1821
     12  O4'      -33.5890   41.8980    2.8240 O.3   1476  ADP1476    -0.3135
     13  C3'      -35.7200   40.9100    3.0110 C.3   1476  ADP1476     0.2184
     14  O3'      -36.5410   40.1040    3.8500 O.3   1476  ADP1476    -0.2174
     15  C2'      -35.8460   42.3790    3.3580 C.3   1476  ADP1476     0.2570
     16  O2'      -35.9300   42.5410    4.7820 O.3   1476  ADP1476    -0.2130
     17  C1'      -34.5530   42.9700    2.8160 C.3   1476  ADP1476     0.3186
     18  N9       -34.7960   43.4420    1.4220 N.pl3 1476  ADP1476    -0.1439
     19  C8       -34.4910   42.7340    0.3210 C.3   1476  ADP1476     0.3377
     20  N7       -34.8220   43.3990   -0.8090 N.2   1476  ADP1476    -0.2095
     21  C5       -35.3620   44.5630   -0.4390 C.2   1476  ADP1476     0.2526
     22  C6       -35.9090   45.7280   -1.1610 C.2   1476  ADP1476     0.4393
     23  N6       -35.9430   45.7370   -2.5160 N.pl3 1476  ADP1476     0.2180
     24  N1       -36.3760   46.7570   -0.4140 N.2   1476  ADP1476     0.0021
     25  C2       -36.3340   46.7300    0.9390 C.3   1476  ADP1476     0.5254
     26  N3       -35.8360   45.6990    1.6540 N.2   1476  ADP1476    -0.0055
     27  C4       -35.3450   44.5970    1.0310 C.2   1476  ADP1476     0.3518
@<TRIPOS>BOND
     1    23    22    1
     2     3     1    2
     3     2     1    1
     4     7     5    2
     5    22    21    1
     6    22    24    2
     7    20    21    2
     8    20    19    1
     9     1     8    1
    10     1     4    1
    11    21    27    1
    12    24    25    1
    13     5     8    1
    14     5     6    1
    15     5     9    1
    16    19    18    1
    17    25    26    1
    18    27    18    1
    19    27    26    2
    20     9    10    1
    21    18    17    1
    22    10    11    1
    23    17    12    1
    24    17    15    1
    25    12    11    1
    26    13    11    1
    27    13    15    1
    28    13    14    1
    29    15    16    1
