@<TRIPOS>MOLECULE
2jj1_PIT_G_1.pdb
 18 19 0 0 0
SMALL
GASTEIGER

@<TRIPOS>ATOM
      1  C1        -2.2740   26.4080    8.6630 C.ar  1273  PIT1273     0.1989
      2  C2        -1.9980   27.4650    9.5200 C.ar  1273  PIT1273     0.0840
      3  C3        -2.9890   27.9350   10.3770 C.ar  1273  PIT1273     0.1989
      4  C4        -4.2650   27.3560   10.3840 C.ar  1273  PIT1273     0.0422
      5  C5        -4.5340   26.2840    9.5220 C.ar  1273  PIT1273     0.0064
      6  C6        -3.5340   25.8160    8.6650 C.ar  1273  PIT1273     0.0422
      7  C7        -5.8700   25.6290    9.4890 C.2   1273  PIT1273     0.0002
      8  C8        -6.0240   24.6150    8.6310 C.2   1273  PIT1273     0.0001
      9  C9        -7.2450   23.7960    8.4000 C.ar  1273  PIT1273     0.0034
     10  C10       -8.4430   24.0070    9.0880 C.ar  1273  PIT1273     0.0454
     11  C11       -9.5440   23.1930    8.8040 C.ar  1273  PIT1273     0.2343
     12  C12       -9.4640   22.1740    7.8510 C.ar  1273  PIT1273     0.2343
     13  C13       -8.2740   21.9570    7.1610 C.ar  1273  PIT1273     0.0454
     14  C14       -7.1740   22.7730    7.4440 C.ar  1273  PIT1273     0.0035
     15  O1       -10.5350   21.3820    7.5760 O.3   1273  PIT1273    -0.2831
     16  O2        -2.6740   28.9690   11.1990 O.3   1273  PIT1273    -0.2865
     17  O3        -1.2980   25.9550    7.8380 O.3   1273  PIT1273    -0.2865
     18  OAD      -10.7020   23.4070    9.4710 O.3   1273  PIT1273    -0.2831
@<TRIPOS>BOND
     1    13    14   ar
     2    13    12   ar
     3    14     9   ar
     4    15    12    1
     5    17     1    1
     6    12    11   ar
     7     9     8    1
     8     9    10   ar
     9     8     7    2
    10     1     6   ar
    11     1     2   ar
    12     6     5   ar
    13    11    10   ar
    14    11    18    1
    15     7     5    1
    16     2     3   ar
    17     5     4   ar
    18     3     4   ar
    19     3    16    1
