@<TRIPOS>MOLECULE
2jj1_ANP_A_1.pdb
 31 33 0 0 0
SMALL
GASTEIGER

@<TRIPOS>ATOM
      1  PG       -15.9860   37.4100  -19.5130 P.3   1511  ANP1511     0.4884
      2  O1G      -17.4840   37.6350  -19.6490 O.3   1511  ANP1511    -0.1240
      3  O2G      -15.4270   36.4260  -20.5160 O.2   1511  ANP1511    -0.2331
      4  O3G      -15.5440   37.0820  -18.1030 O.3   1511  ANP1511    -0.1240
      5  PB       -13.7740   39.4120  -20.4740 P.3   1511  ANP1511     0.4669
      6  O1B      -12.8740   39.7720  -19.3190 O.3   1511  ANP1511    -0.1253
      7  O2B      -13.3060   38.3730  -21.4450 O.2   1511  ANP1511    -0.2351
      8  N3B      -15.3780   39.0130  -19.9060 N.3   1511  ANP1511    -0.0163
      9  PA       -15.1110   41.0290  -22.3750 P.3   1511  ANP1511     0.2220
     10  O1A      -16.2650   40.1010  -22.0750 O.3   1511  ANP1511    -0.4370
     11  O2A      -14.4300   40.9890  -23.7090 O.2   1511  ANP1511    -0.5170
     12  O3A      -13.9260   40.7620  -21.3210 O.3   1511  ANP1511    -0.2360
     13  O5'      -15.5630   42.5500  -22.0600 O.3   1511  ANP1511    -0.3111
     14  C5'      -16.6190   42.8060  -21.1180 C.3   1511  ANP1511     0.1813
     15  C4'      -17.4760   44.0300  -21.4760 C.3   1511  ANP1511     0.1821
     16  O4'      -16.6520   45.1830  -21.7040 O.3   1511  ANP1511    -0.3135
     17  C3'      -18.3210   43.8310  -22.7290 C.3   1511  ANP1511     0.2184
     18  O3'      -19.5630   44.5190  -22.5540 O.3   1511  ANP1511    -0.2174
     19  C2'      -17.5520   44.5640  -23.8020 C.3   1511  ANP1511     0.2570
     20  O2'      -18.4320   45.0120  -24.8450 O.3   1511  ANP1511    -0.2130
     21  C1'      -16.9130   45.6990  -23.0050 C.3   1511  ANP1511     0.3186
     22  N9       -15.6450   46.1900  -23.5910 N.pl3 1511  ANP1511    -0.1439
     23  C8       -14.5990   45.4380  -23.9770 C.3   1511  ANP1511     0.3377
     24  N7       -13.5940   46.2070  -24.4730 N.2   1511  ANP1511    -0.2095
     25  C5       -13.9970   47.4860  -24.3960 C.2   1511  ANP1511     0.2526
     26  C6       -13.4240   48.8010  -24.7400 C.2   1511  ANP1511     0.4393
     27  N6       -12.1810   48.8930  -25.2790 N.pl3 1511  ANP1511     0.2180
     28  N1       -14.1870   49.8990  -24.4980 N.2   1511  ANP1511     0.0021
     29  C2       -15.4230   49.8300  -23.9640 C.3   1511  ANP1511     0.5254
     30  N3       -15.9970   48.6610  -23.6240 N.2   1511  ANP1511    -0.0055
     31  C4       -15.3510   47.4790  -23.8170 C.2   1511  ANP1511     0.3518
@<TRIPOS>BOND
     1    27    26    1
     2    20    19    1
     3    26    28    2
     4    26    25    1
     5    28    29    1
     6    24    25    2
     7    24    23    1
     8    25    31    1
     9    23    22    1
    10    29    30    1
    11    31    30    2
    12    31    22    1
    13    19    21    1
    14    19    17    1
    15    11     9    2
    16    22    21    1
    17    21    16    1
    18    17    18    1
    19    17    15    1
    20     9    10    1
    21     9    13    1
    22     9    12    1
    23    13    14    1
    24    16    15    1
    25    15    14    1
    26     7     5    2
    27    12     5    1
    28     3     1    2
    29     5     8    1
    30     5     6    1
    31     8     1    1
    32     2     1    1
    33     1     4    1
