@<TRIPOS>MOLECULE
2jj2_QUE_G_1.pdb
 23 23 0 0 0
SMALL
GASTEIGER

@<TRIPOS>ATOM
      1  C1        -2.7190   27.5280    9.3410 C.3   1273  QUE1273     0.0774
      2  C2        -3.8450   27.8330   10.0920 C.2   1273  QUE1273     0.2344
      3  C3        -5.0680   26.9910    9.9210 C.ar  1273  QUE1273     0.0830
      4  C4        -5.0290   25.8580    8.9530 C.ar  1273  QUE1273     0.1516
      5  C5        -3.8480   25.6430    8.2500 C.2   1273  QUE1273     0.0750
      6  C6        -2.7330   26.4620    8.4450 C.2   1273  QUE1273     0.1766
      7  C9        -6.3240   27.2380   10.6760 C.ar  1273  QUE1273     0.2404
      8  C10       -7.4750   26.3320   10.4230 C.ar  1273  QUE1273     0.2684
      9  C11       -7.3210   25.2120    9.4340 C.ar  1273  QUE1273     0.1872
     10  C14       -8.4570   24.2900    9.1220 C.ar  1273  QUE1273     0.0413
     11  C15       -8.2150   23.0190    8.5800 C.ar  1273  QUE1273     0.0066
     12  C16       -9.2680   22.1550    8.2620 C.ar  1273  QUE1273     0.0455
     13  C17      -10.5900   22.5560    8.4650 C.ar  1273  QUE1273     0.2343
     14  C18      -10.8620   23.9100    9.0240 C.ar  1273  QUE1273     0.2344
     15  C19       -9.7740   24.7290    9.3250 C.ar  1273  QUE1273     0.0485
     16  O12       -6.1260   25.0420    8.7600 O.2   1273  QUE1273    -0.4499
     17  O13       -6.4150   28.1750   11.5010 O.2   1273  QUE1273    -0.2829
     18  O23      -12.1380   24.3440    9.2450 O.3   1273  QUE1273    -0.2831
     19  O24      -11.6260   21.7290    8.1560 O.3   1273  QUE1273    -0.2831
     20  O27       -8.6390   26.5440   11.1050 O.3   1273  QUE1273    -0.2798
     21  O29       -1.6020   26.2130    7.7430 O.2   1273  QUE1273    -0.2912
     22  O30       -3.8150   28.8840   10.9560 O.2   1273  QUE1273    -0.2831
     23  C1        -3.0010   27.6000    9.4700 C.2   1273  QUE1273     0.0488
@<TRIPOS>BOND
     1    21     6    1
     2    19    13    1
     3     5     6    2
     4     5     4    1
     5    12    13   ar
     6    12    11   ar
     7     6     1    1
     8    13    14   ar
     9    11    10   ar
    10    16     4   ar
    11    16     9   ar
    12     4     3   ar
    13    14    18    1
    14    14    15   ar
    15    10    15   ar
    16    10     9    1
    17     9     8   ar
    18    23     2    2
    19     3     7   ar
    20     2    22    1
    21     8     7   ar
    22     8    20    1
    23     7    17    2
