@<TRIPOS>MOLECULE
2jj2_ANP_A_1.pdb
 31 33 0 0 0
SMALL
GASTEIGER

@<TRIPOS>ATOM
      1  PG       -16.5670   37.4190  -19.5940 P.3   1511  ANP1511     0.4884
      2  O1G      -18.0490   37.3420  -19.9090 O.3   1511  ANP1511    -0.1240
      3  O2G      -15.7620   36.4480  -20.3960 O.2   1511  ANP1511    -0.2331
      4  O3G      -16.2280   37.4420  -18.1160 O.3   1511  ANP1511    -0.1240
      5  PB       -14.5510   39.4520  -20.6820 P.3   1511  ANP1511     0.4669
      6  O1B      -13.6040   39.5610  -19.5070 O.3   1511  ANP1511    -0.1253
      7  O2B      -14.1240   38.6060  -21.8490 O.2   1511  ANP1511    -0.2351
      8  N3B      -16.1300   39.0100  -20.1290 N.3   1511  ANP1511    -0.0163
      9  PA       -15.6530   41.1760  -22.6740 P.3   1511  ANP1511     0.2220
     10  O1A      -16.8720   40.2900  -22.6850 O.3   1511  ANP1511    -0.4370
     11  O2A      -14.7660   41.1620  -23.8770 O.2   1511  ANP1511    -0.5170
     12  O3A      -14.7810   40.9260  -21.3190 O.3   1511  ANP1511    -0.2360
     13  O5'      -16.1820   42.6820  -22.4450 O.3   1511  ANP1511    -0.3111
     14  C5'      -16.9510   43.0330  -21.2890 C.3   1511  ANP1511     0.1813
     15  C4'      -17.9050   44.1860  -21.5960 C.3   1511  ANP1511     0.1821
     16  O4'      -17.1720   45.3980  -21.7910 O.3   1511  ANP1511    -0.3135
     17  C3'      -18.6860   43.9340  -22.8810 C.3   1511  ANP1511     0.2184
     18  O3'      -20.0060   44.4710  -22.7410 O.3   1511  ANP1511    -0.2174
     19  C2'      -17.8830   44.6880  -23.9200 C.3   1511  ANP1511     0.2570
     20  O2'      -18.6720   45.0620  -25.0330 O.3   1511  ANP1511    -0.2130
     21  C1'      -17.3470   45.8750  -23.1360 C.3   1511  ANP1511     0.3186
     22  N9       -16.0690   46.4060  -23.6840 N.pl3 1511  ANP1511    -0.1439
     23  C8       -14.9470   45.7140  -23.9550 C.3   1511  ANP1511     0.3377
     24  N7       -13.9860   46.5460  -24.4380 N.2   1511  ANP1511    -0.2095
     25  C5       -14.4930   47.8060  -24.4920 C.2   1511  ANP1511     0.2526
     26  C6       -14.0330   49.1700  -24.8960 C.2   1511  ANP1511     0.4393
     27  N6       -12.7890   49.4150  -25.3690 N.pl3 1511  ANP1511     0.2180
     28  N1       -14.9030   50.2010  -24.7760 N.2   1511  ANP1511     0.0021
     29  C2       -16.1520   50.0190  -24.3050 C.3   1511  ANP1511     0.5254
     30  N3       -16.6270   48.8150  -23.9240 N.2   1511  ANP1511    -0.0055
     31  C4       -15.8680   47.6960  -23.9870 C.2   1511  ANP1511     0.3518
@<TRIPOS>BOND
     1    27    26    1
     2    20    19    1
     3    26    28    2
     4    26    25    1
     5    28    29    1
     6    25    24    2
     7    25    31    1
     8    24    23    1
     9    29    30    1
    10    31    30    2
    11    31    22    1
    12    23    22    1
    13    19    21    1
    14    19    17    1
    15    11     9    2
    16    22    21    1
    17    21    16    1
    18    17    18    1
    19    17    15    1
    20    10     9    1
    21     9    13    1
    22     9    12    1
    23    13    14    1
    24     7     5    2
    25    16    15    1
    26    15    14    1
    27    12     5    1
    28     5     8    1
    29     5     6    1
    30     3     1    2
    31     8     1    1
    32     2     1    1
    33     1     4    1
