@<TRIPOS>MOLECULE
2jj2_ADP_D_1.pdb
 27 29 0 0 0
SMALL
GASTEIGER

@<TRIPOS>ATOM
      1  PB       -32.6810   36.9360   -0.6870 P.3   1476  ADP1476     0.5373
      2  O1B      -31.6030   37.6600   -1.4750 O.3   1476  ADP1476    -0.1143
      3  O2B      -33.7930   36.3480   -1.5420 O.2   1476  ADP1476    -0.2221
      4  O3B      -32.1660   36.0200    0.3700 O.3   1476  ADP1476    -0.1143
      5  PA       -34.8990   38.6370    0.0450 P.3   1476  ADP1476     0.2231
      6  O1A      -35.8150   37.7160    0.7920 O.3   1476  ADP1476    -0.4370
      7  O2A      -35.2410   39.0370   -1.3640 O.2   1476  ADP1476    -0.5169
      8  O3A      -33.3720   38.1070    0.1880 O.3   1476  ADP1476    -0.2261
      9  O5'      -34.7250   40.0010    0.8700 O.3   1476  ADP1476    -0.3111
     10  C5'      -34.3070   39.9630    2.2370 C.3   1476  ADP1476     0.1813
     11  C4'      -34.9690   41.0840    3.0390 C.3   1476  ADP1476     0.1821
     12  O4'      -34.2960   42.3300    2.8180 O.3   1476  ADP1476    -0.3135
     13  C3'      -36.4060   41.3710    2.6320 C.3   1476  ADP1476     0.2184
     14  O3'      -37.3450   40.4820    3.2380 O.3   1476  ADP1476    -0.2174
     15  C2'      -36.5660   42.8070    3.0790 C.3   1476  ADP1476     0.2570
     16  O2'      -36.7370   42.8760    4.5020 O.3   1476  ADP1476    -0.2130
     17  C1'      -35.2300   43.4100    2.6970 C.3   1476  ADP1476     0.3186
     18  N9       -35.3590   43.8230    1.2820 N.pl3 1476  ADP1476    -0.1439
     19  C8       -34.9820   43.0800    0.2280 C.3   1476  ADP1476     0.3377
     20  N7       -35.2330   43.6950   -0.9470 N.2   1476  ADP1476    -0.2095
     21  C5       -35.7980   44.8700   -0.6560 C.2   1476  ADP1476     0.2526
     22  C6       -36.3080   46.0060   -1.4570 C.2   1476  ADP1476     0.4393
     23  N6       -36.2510   45.9710   -2.8110 N.pl3 1476  ADP1476     0.2180
     24  N1       -36.8330   47.0550   -0.7710 N.2   1476  ADP1476     0.0021
     25  C2       -36.8830   47.0720    0.5890 C.3   1476  ADP1476     0.5254
     26  N3       -36.4310   46.0780    1.3770 N.2   1476  ADP1476    -0.0055
     27  C4       -35.8870   44.9600    0.8200 C.2   1476  ADP1476     0.3518
@<TRIPOS>BOND
     1    23    22    1
     2     3     1    2
     3     2     1    1
     4    22    24    2
     5    22    21    1
     6     7     5    2
     7    20    21    2
     8    20    19    1
     9    24    25    1
    10     1     8    1
    11     1     4    1
    12    21    27    1
    13     5     8    1
    14     5     6    1
    15     5     9    1
    16    19    18    1
    17    25    26    1
    18    27    18    1
    19    27    26    2
    20     9    10    1
    21    18    17    1
    22    10    11    1
    23    13    11    1
    24    13    15    1
    25    13    14    1
    26    17    12    1
    27    17    15    1
    28    12    11    1
    29    15    16    1
