@<TRIPOS>MOLECULE
2jj3_JJ3_A_1.pdb
 24 27 0 0 0
SMALL
GASTEIGER

@<TRIPOS>ATOM
      1  C1        79.9690   42.6170   68.0430 C.ar  1499  JJ31499     0.1954
      2  C2        80.0090   42.6960   69.4310 C.ar  1499  JJ31499     0.0432
      3  C3        79.1100   41.9430   70.1820 C.ar  1499  JJ31499     0.0441
      4  C4        78.1650   41.1120   69.5730 C.ar  1499  JJ31499     0.1333
      5  O5        77.3310   40.4200   70.4030 O.3   1499  JJ31499    -0.4753
      6  C6        76.9060   39.1920   69.8100 C.3   1499  JJ31499     0.1883
      7  C8        76.1480   39.4660   68.4900 C.3   1499  JJ31499     0.0485
      8  C10       75.0360   40.5320   68.7030 C.3   1499  JJ31499     0.0043
      9  C11       74.8590   41.1840   67.3090 C.3   1499  JJ31499     0.0005
     10  C12       76.1980   41.0060   66.5620 C.3   1499  JJ31499     0.0046
     11  C13       77.1220   40.1290   67.4700 C.3   1499  JJ31499     0.0292
     12  C15       78.1260   41.0270   68.1880 C.ar  1499  JJ31499     0.0145
     13  C16       79.0280   41.7850   67.4170 C.ar  1499  JJ31499     0.0407
     14  C17       76.0200   38.4410   70.7970 C.ar  1499  JJ31499     0.0174
     15  C18       75.9830   38.8250   72.1370 C.ar  1499  JJ31499     0.0025
     16  C19       75.1690   38.1400   73.0420 C.ar  1499  JJ31499     0.0418
     17  C20       74.3910   37.0640   72.5980 C.ar  1499  JJ31499     0.1957
     18  O21       73.5840   36.3860   73.4700 O.3   1499  JJ31499    -0.2866
     19  C22       74.4280   36.6770   71.2590 C.ar  1499  JJ31499     0.0418
     20  C23       75.2410   37.3630   70.3600 C.ar  1499  JJ31499     0.0025
     21  C24       79.1470   42.0170   71.6670 C.3   1499  JJ31499     0.1718
     22  O25       79.6730   40.7730   72.1350 O.3   1499  JJ31499    -0.3462
     23  C26       80.4590   41.0690   73.2630 C.3   1499  JJ31499     0.1746
     24  O27       80.8480   43.3580   67.3100 O.3   1499  JJ31499    -0.2866
@<TRIPOS>BOND
     1    10     9    1
     2    10    11    1
     3     9     8    1
     4    24     1    1
     5    13     1   ar
     6    13    12   ar
     7    11    12    1
     8    11     7    1
     9     1     2   ar
    10    12     4   ar
    11     7     8    1
    12     7     6    1
    13     2     3   ar
    14     4     3   ar
    15     4     5    1
    16     6     5    1
    17     6    14    1
    18     3    21    1
    19    20    14   ar
    20    20    19   ar
    21    14    15   ar
    22    19    17   ar
    23    21    22    1
    24    22    23    1
    25    15    16   ar
    26    17    16   ar
    27    17    18    1
