@<TRIPOS>MOLECULE
2jj4_NLG_A_1.pdb
 13 12 0 0 0
SMALL
GASTEIGER

@<TRIPOS>ATOM
      1  CA       -31.5800   27.1580  -28.9720 C.3   1292  NLG1292     0.1983
      2  C        -32.2460   27.2100  -30.3410 C.2   1292  NLG1292     0.3842
      3  OXT      -33.4090   26.7550  -30.4240 O.co2 1292  NLG1292    -0.2437
      4  O        -31.5830   27.7140  -31.2730 O.co2 1292  NLG1292    -0.2437
      5  CB       -31.3140   25.7000  -28.5960 C.3   1292  NLG1292     0.0451
      6  CG       -29.8800   25.4770  -28.1240 C.3   1292  NLG1292     0.1164
      7  CD       -28.8360   26.2830  -28.9140 C.2   1292  NLG1292     0.3649
      8  OE1      -28.5970   27.4330  -28.4840 O.co2 1292  NLG1292    -0.2457
      9  OE2      -28.2910   25.7390  -29.9080 O.co2 1292  NLG1292    -0.2457
     10  C7       -32.6510   29.1030  -27.9210 C.2   1292  NLG1292     0.2423
     11  C8       -33.5320   29.5890  -26.9640 C.3   1292  NLG1292     0.0964
     12  O7       -32.0700   29.9110  -28.6470 O.2   1292  NLG1292    -0.2733
     13  N2       -32.4760   27.7850  -27.9940 N.am  1292  NLG1292    -0.1956
@<TRIPOS>BOND
     1     4     2   ar
     2     3     2   ar
     3     2     1    1
     4     9     7   ar
     5     1     5    1
     6     1    13    1
     7     7     8   ar
     8     7     6    1
     9    12    10    2
    10     5     6    1
    11    13    10   am
    12    10    11    1
