@<TRIPOS>MOLECULE
2jj8_AZZ_A_1.pdb
 19 20 0 0 0
SMALL
GASTEIGER

@<TRIPOS>ATOM
      1  O5'       24.0000   13.9040   -7.7100 O.3   1211  AZZ1211    -0.2176
      2  C5'       24.6710   13.2130   -8.7790 C.3   1211  AZZ1211     0.2136
      3  C4'       23.6090   12.7430   -9.7640 C.3   1211  AZZ1211     0.1752
      4  O4'       22.8420   11.6690   -9.2280 O.3   1211  AZZ1211    -0.3344
      5  C3'       22.6420   13.8830  -10.0080 C.3   1211  AZZ1211     0.1732
      6  N3'       22.7680   14.1280  -11.4180 N.2   1211  AZZ1211    -0.0969
      7  N4'       23.5360   14.8560  -12.0810 N.2   1211  AZZ1211    -0.1663
      8  N5'       24.2070   15.4920  -12.6580 N.2   1211  AZZ1211     0.0678
      9  C2'       21.2480   13.4070   -9.6050 C.3   1211  AZZ1211     0.0819
     10  C1'       21.4250   11.9140   -9.3340 C.3   1211  AZZ1211     0.2085
     11  N1        20.7010   11.3280   -8.1720 N.am  1211  AZZ1211    -0.1794
     12  C2        19.6110   10.4530   -8.4210 C.1   1211  AZZ1211     0.2844
     13  O2        19.2600   10.2190   -9.6030 O.2   1211  AZZ1211    -0.1918
     14  N3        18.9220    9.8540   -7.4410 N.2   1211  AZZ1211    -0.2455
     15  C4        19.2310   10.0620   -6.1630 C.1   1211  AZZ1211     0.2134
     16  O4        18.5850    9.4930   -5.2480 O.2   1211  AZZ1211    -0.2088
     17  C5        20.3690   10.9690   -5.8570 C.2   1211  AZZ1211     0.0891
     18  C5A       20.7430   11.2180   -4.4200 C.3   1211  AZZ1211     0.0462
     19  C6        21.0760   11.5610   -6.9110 C.2   1211  AZZ1211     0.0877
@<TRIPOS>BOND
     1     8     7    2
     2     7     6    2
     3     6     5    1
     4     5     3    1
     5     5     9    1
     6     3     4    1
     7     3     2    1
     8     9    10    1
     9    13    12    2
    10    10     4    1
    11    10    11    1
    12     2     1    1
    13    12    11   am
    14    12    14    2
    15    11    19    1
    16    14    15    2
    17    19    17    2
    18    15    17    1
    19    15    16    2
    20    17    18    1
