@<TRIPOS>MOLECULE
2jj9_AD9_A_1.pdb
 31 33 0 0 0
SMALL
GASTEIGER

@<TRIPOS>ATOM
      1  VG        63.4740   40.1730  -28.2550 V     1694  AD91694     0.0000
      2  O1G       63.5830   38.6920  -28.8570 O.3   1694  AD91694     0.0000
      3  O2G       64.5410   41.1820  -29.0560 O.3   1694  AD91694     0.0000
      4  O3G       61.8100   40.8090  -28.1510 O.3   1694  AD91694     0.0000
      5  PB        64.9300   39.5880  -25.3940 P.3   1694  AD91694     0.0000
      6  O1B       64.9540   38.0340  -25.1130 O.3   1694  AD91694    -0.5000
      7  O2B       66.4560   40.2530  -25.6160 O.2   1694  AD91694    -0.5000
      8  O3B       64.2870   40.0760  -26.6830 O.3   1694  AD91694     0.0000
      9  PA        65.1720   41.5190  -23.1500 P.3   1694  AD91694     0.0000
     10  O1A       65.0290   42.9330  -24.0960 O.2   1694  AD91694    -0.5000
     11  O2A       66.5930   41.1600  -22.6880 O.3   1694  AD91694    -0.5000
     12  O3A       64.4130   40.4000  -24.0740 O.3   1694  AD91694     0.0000
     13  O5'       64.0370   41.7360  -22.0260 O.3   1694  AD91694     0.0000
     14  C5'       62.8280   42.5590  -22.1160 C.3   1694  AD91694     0.0000
     15  C4'       62.6310   43.2890  -20.8180 C.3   1694  AD91694     0.0000
     16  O4'       62.6380   42.2930  -19.7420 O.3   1694  AD91694     0.0000
     17  C3'       63.8020   44.1970  -20.4050 C.3   1694  AD91694     0.0000
     18  O3'       63.7650   45.4650  -21.1200 O.3   1694  AD91694     0.0000
     19  C2'       63.5560   44.3420  -18.8860 C.3   1694  AD91694     0.0000
     20  O2'       62.3640   45.1290  -18.5990 O.3   1694  AD91694     0.0000
     21  C1'       63.2180   42.8620  -18.5190 C.3   1694  AD91694     0.0000
     22  N9        64.3690   42.0560  -18.0940 N.pl3 1694  AD91694     0.5000
     23  C8        64.9300   40.9160  -18.7150 C.3   1694  AD91694     0.0000
     24  N7        65.9590   40.4220  -18.0580 N.2   1694  AD91694     0.0000
     25  C5        66.1050   41.2520  -16.9460 C.2   1694  AD91694     0.0000
     26  C6        67.0160   41.2590  -15.8450 C.2   1694  AD91694     0.0000
     27  N6        68.0020   40.3340  -15.6950 N.pl3 1694  AD91694     0.5000
     28  N1        66.8890   42.2430  -14.8870 N.2   1694  AD91694     0.5000
     29  C2        65.9030   43.1840  -15.0090 C.3   1694  AD91694     0.0000
     30  C4        65.1290   42.2780  -16.9540 C.2   1694  AD91694     0.0000
     31  N3        64.9870   43.2640  -16.0100 N.2   1694  AD91694     0.5000
@<TRIPOS>BOND
     1     3     1    1
     2     2     1    1
     3     1     4    1
     4     1     8    1
     5     8     5    1
     6     7     5    2
     7     5     6    1
     8     5    12    1
     9    10     9    2
    10    12     9    1
    11     9    11    1
    12     9    13    1
    13    14    13    1
    14    14    15    1
    15    18    17    1
    16    15    17    1
    17    15    16    1
    18    17    19    1
    19    16    21    1
    20    19    20    1
    21    19    21    1
    22    23    22    1
    23    23    24    1
    24    21    22    1
    25    22    30    1
    26    24    25    2
    27    30    25    1
    28    30    31    2
    29    25    26    1
    30    31    29    1
    31    26    27    1
    32    26    28    2
    33    29    28    1
