@<TRIPOS>MOLECULE
2jjb_3CU_A_1.pdb
 13 14 0 0 0
SMALL
GASTEIGER

@<TRIPOS>ATOM
      1  O7        -6.2250  -33.8360   45.0860 O.3   1547  3CU1547    -0.2216
      2  C7        -5.7560  -34.4580   43.8760 C.3   1547  3CU1547     0.1704
      3  C7A       -6.8140  -34.2240   42.7990 C.3   1547  3CU1547     0.1215
      4  C1        -6.9550  -35.3600   41.7760 C.3   1547  3CU1547     0.2005
      5  O1        -8.0630  -36.2200   42.0480 O.3   1547  3CU1547    -0.2188
      6  C2        -7.1090  -34.6490   40.4240 C.3   1547  3CU1547     0.2006
      7  O2        -6.8160  -35.5040   39.2950 O.3   1547  3CU1547    -0.2188
      8  C3        -6.0060  -33.5830   40.4870 C.3   1547  3CU1547     0.1241
      9  C8        -6.1400  -32.4130   39.4900 C.3   1547  3CU1547     0.2006
     10  O8        -7.3970  -31.8030   39.5920 O.3   1547  3CU1547    -0.2188
     11  N4        -6.0530  -33.3090   41.9380 N.3   1547  3CU1547    -0.2663
     12  C5        -5.0810  -32.5080   42.6640 C.3   1547  3CU1547     0.0750
     13  C6        -4.4790  -33.7090   43.4300 C.3   1547  3CU1547     0.0517
@<TRIPOS>BOND
     1     7     6    1
     2     9    10    1
     3     9     8    1
     4     6     8    1
     5     6     4    1
     6     8    11    1
     7     4     5    1
     8     4     3    1
     9    11    12    1
    10    11     3    1
    11    12    13    1
    12     3     2    1
    13    13     2    1
    14     2     1    1
