@<TRIPOS>MOLECULE
2jjb_GLC_A_1.pdb
 12 12 0 0 0
SMALL
GASTEIGER

@<TRIPOS>ATOM
      1  C1        -2.7670  -34.4590   41.7860 C.3   1548  GLC1548     0.3024
      2  C2        -2.1980  -35.6990   41.0850 C.3   1548  GLC1548     0.2434
      3  C3        -1.3770  -36.5670   42.0620 C.3   1548  GLC1548     0.2199
      4  C4        -0.2710  -35.6850   42.6720 C.3   1548  GLC1548     0.2144
      5  C5        -0.8820  -34.4710   43.3710 C.3   1548  GLC1548     0.1836
      6  C6         0.1820  -33.4920   43.9130 C.3   1548  GLC1548     0.2142
      7  O1        -3.8180  -34.7830   42.6870 O.3   1548  GLC1548    -0.1869
      8  O2        -3.2600  -36.3910   40.4530 O.3   1548  GLC1548    -0.2148
      9  O3        -0.7910  -37.6460   41.3750 O.3   1548  GLC1548    -0.2174
     10  O4         0.5340  -36.4300   43.5730 O.3   1548  GLC1548    -0.2176
     11  O5        -1.7390  -33.7660   42.4800 O.3   1548  GLC1548    -0.3236
     12  O6        -0.4270  -32.3290   44.4920 O.3   1548  GLC1548    -0.2176
@<TRIPOS>BOND
     1     8     2    1
     2     2     1    1
     3     2     3    1
     4     9     3    1
     5     1    11    1
     6     1     7    1
     7     3     4    1
     8    11     5    1
     9     4     5    1
    10     4    10    1
    11     5     6    1
    12     6    12    1
