@<TRIPOS>MOLECULE
2jjc_LGA_A_1.pdb
 12 12 0 0 0
SMALL
GASTEIGER

@<TRIPOS>ATOM
      1  N2        61.8240   33.4050   26.1120 N.pl3 1225  LGA1225    -0.2835
      2  C1        62.8290   33.8290   25.3520 C.1   1225  LGA1225     0.1943
      3  N1        64.0850   33.6680   25.8360 N.2   1225  LGA1225    -0.3413
      4  C4        65.0740   34.1090   25.0550 C.2   1225  LGA1225     0.0800
      5  N7        62.5100   34.3850   24.1490 N.2   1225  LGA1225    -0.3413
      6 H2N1       62.0170   32.9750   26.9950 H     1225  LGA1225     0.1555
      7 H2N2       60.8940   33.5370   25.7700 H     1225  LGA1225     0.1555
      8  H4        66.0880   33.9960   25.4180 H     1225  LGA1225     0.0939
      9  H5        65.6510   35.0430   23.2190 H     1225  LGA1225     0.0448
     10  H3        63.3080   35.2720   22.4550 H     1225  LGA1225     0.0939
     11  C5        64.8360   34.6970   23.8370 C.3   1225  LGA1225     0.0684
     12  C3        63.5330   34.8210   23.4170 C.2   1225  LGA1225     0.0800
@<TRIPOS>BOND
     1    10    12    1
     2     9    11    1
     3    12    11    1
     4    12     5    2
     5    11     4    1
     6     5     2    2
     7     4     8    1
     8     4     3    2
     9     2     3    2
    10     2     1    1
    11     7     1    1
    12     1     6    1
