@<TRIPOS>MOLECULE
2jje_PLP_A_1.pdb
 15 15 0 0 0
SMALL
GASTEIGER

@<TRIPOS>ATOM
      1  N1       -39.7150    2.1850   20.9610 N.2   1450  PLP1450    -0.2505
      2  C2       -40.3600    2.9430   19.9860 C.2   1450  PLP1450     0.0675
      3  C2A      -40.0030    2.7530   18.5340 C.3   1450  PLP1450     0.0499
      4  C3       -41.3370    3.8670   20.3710 C.3   1450  PLP1450     0.1913
      5  O3       -42.0590    4.5640   19.4270 O.3   1450  PLP1450    -0.2167
      6  C4       -41.6600    4.0200   21.7320 C.3   1450  PLP1450     0.0581
      7  C4A      -42.3370    5.3070   22.1460 C.3   1450  PLP1450     0.0075
      8  C5       -41.0020    3.2470   22.7010 C.2   1450  PLP1450     0.0073
      9  C6       -40.0310    2.3340   22.2990 C.2   1450  PLP1450     0.0921
     10  C5A      -41.1640    3.5410   24.1830 C.3   1450  PLP1450     0.1776
     11  O4P      -42.4890    3.2560   24.6040 O.3   1450  PLP1450    -0.2656
     12  P        -43.0590    3.8450   25.9950 P.3   1450  PLP1450     0.5329
     13  O1P      -42.0570    3.4670   27.0660 O.3   1450  PLP1450    -0.1145
     14  O2P      -43.1090    5.3680   25.9290 O.2   1450  PLP1450    -0.2224
     15  O3P      -44.4070    3.2390   26.2880 O.3   1450  PLP1450    -0.1145
@<TRIPOS>BOND
     1     3     2    1
     2     5     4    1
     3     2     4    1
     4     2     1    2
     5     4     6    1
     6     1     9    1
     7     6     7    1
     8     6     8    1
     9     9     8    2
    10     8    10    1
    11    10    11    1
    12    11    12    1
    13    14    12    2
    14    12    15    1
    15    12    13    1
