@<TRIPOS>MOLECULE
2jjg_PLP_A_1.pdb
 15 15 0 0 0
SMALL
GASTEIGER

@<TRIPOS>ATOM
      1  N1       -21.6760  -33.2280   37.4190 N.2   600  PLP600     -0.2505
      2  C2       -22.6490  -33.3910   36.4330 C.2   600  PLP600      0.0675
      3  C2A      -22.2870  -33.1250   35.0070 C.3   600  PLP600      0.0499
      4  C3       -23.9390  -33.8160   36.7860 C.3   600  PLP600      0.1913
      5  O3       -24.8330  -34.1620   35.7860 O.3   600  PLP600     -0.2167
      6  C4       -24.2220  -34.0580   38.1550 C.3   600  PLP600      0.0581
      7  C4A      -25.3740  -34.9380   38.5170 C.3   600  PLP600      0.0075
      8  C5       -23.2340  -33.8820   39.1390 C.2   600  PLP600      0.0073
      9  C6       -21.9590  -33.4750   38.7520 C.2   600  PLP600      0.0921
     10  C5A      -23.5740  -33.9090   40.6270 C.3   600  PLP600      0.1776
     11  O4P      -24.1500  -35.1420   41.0150 O.3   600  PLP600     -0.2656
     12  P        -24.8830  -35.4080   42.4360 P.3   600  PLP600      0.5329
     13  O1P      -24.0520  -34.8030   43.5390 O.3   600  PLP600     -0.1145
     14  O2P      -26.2790  -34.8290   42.4250 O.2   600  PLP600     -0.2224
     15  O3P      -25.0050  -36.9050   42.6990 O.3   600  PLP600     -0.1145
@<TRIPOS>BOND
     1     3     2    1
     2     5     4    1
     3     2     4    1
     4     2     1    2
     5     4     6    1
     6     1     9    1
     7     6     7    1
     8     6     8    1
     9     9     8    2
    10     8    10    1
    11    10    11    1
    12    11    12    1
    13    14    12    2
    14    12    15    1
    15    12    13    1
