@<TRIPOS>MOLECULE
2jjg_L18_A_1.pdb
 19 20 0 0 0
SMALL
GASTEIGER

@<TRIPOS>ATOM
      1  C8       -29.1040  -30.2420   41.5010 C.3   601  L18601      0.0020
      2  C9       -29.9110  -31.3510   42.1500 C.3   601  L18601      0.0001
      3  C10      -27.5930  -30.4460   41.7460 C.3   601  L18601      0.0044
      4  C11      -27.1180  -31.8010   42.3160 C.3   601  L18601      0.0223
      5  C12      -26.5490  -32.6460   41.1910 C.3   601  L18601      0.0047
      6  C15      -26.3460  -31.9540   44.7170 C.ar  601  L18601     -0.0043
      7  C16      -25.3760  -32.0260   45.7280 C.ar  601  L18601     -0.0003
      8  C17      -24.0450  -31.9880   45.3700 C.ar  601  L18601     -0.0000
      9  C18      -23.7250  -31.8890   44.0190 C.ar  601  L18601     -0.0003
     10  C19      -24.6980  -31.8180   43.0260 C.ar  601  L18601     -0.0043
     11  C13      -26.0450  -31.8320   43.3610 C.ar  601  L18601     -0.0225
     12  C1       -32.3990  -28.1270   38.0810 C.2   601  L18601      0.0567
     13  C2       -33.4700  -28.9920   38.7880 C.2   601  L18601     -0.0103
     14  C3       -33.1190  -29.5570   40.1780 C.3   601  L18601      0.0291
     15  C5       -31.9950  -28.8230   40.9180 C.3   601  L18601      0.0244
     16  C6       -30.7160  -28.5560   40.0950 C.3   601  L18601      0.0732
     17  C7       -29.5680  -29.6230   40.1430 C.3   601  L18601      0.0197
     18  C14      -30.6810  -26.4770   38.7060 C.3   601  L18601      0.1122
     19  N1       -30.9910  -27.9650   38.6940 N.pl3 601  L18601     -0.3067
@<TRIPOS>BOND
     1    12    19    1
     2    12    13    2
     3    19    18    1
     4    19    16    1
     5    13    14    1
     6    16    17    1
     7    16    15    1
     8    17     1    1
     9    14    15    1
    10     5     4    1
    11     1     3    1
    12     1     2    1
    13     3     4    1
    14     4    11    1
    15    10    11   ar
    16    10     9   ar
    17    11     6   ar
    18     9     8   ar
    19     6     7   ar
    20     8     7   ar
