@<TRIPOS>MOLECULE
2jjh_AKG_A_1.pdb
 10 9 0 0 0
SMALL
GASTEIGER

@<TRIPOS>ATOM
      1  C1       -29.2870  -31.6580   36.2820 C.2   1451  AKG1451     0.4219
      2  O1       -30.4380  -31.2510   36.1420 O.co2 1451  AKG1451    -0.2373
      3  O2       -28.6360  -31.8960   35.2530 O.co2 1451  AKG1451    -0.2373
      4  C2       -28.7410  -31.8010   37.6410 C.2   1451  AKG1451     0.2526
      5  O5       -28.2670  -32.8190   38.0830 O.2   1451  AKG1451    -0.2843
      6  C3       -28.7090  -30.6500   38.5820 C.3   1451  AKG1451     0.0881
      7  C4       -30.0950  -30.3900   39.1300 C.3   1451  AKG1451     0.1224
      8  C5       -29.9240  -28.9880   39.6710 C.2   1451  AKG1451     0.3653
      9  O3       -30.1460  -27.9870   38.9190 O.co2 1451  AKG1451    -0.2456
     10  O4       -29.5210  -28.8960   40.8520 O.co2 1451  AKG1451    -0.2456
@<TRIPOS>BOND
     1     3     1   ar
     2     2     1   ar
     3     1     4    1
     4     4     5    2
     5     4     6    1
     6     6     7    1
     7     9     8   ar
     8     7     8    1
     9     8    10   ar
