@<TRIPOS>MOLECULE
2jjh_PLP_A_1.pdb
 15 15 0 0 0
SMALL
GASTEIGER

@<TRIPOS>ATOM
      1  N1       -21.7090  -33.1160   37.0620 N.ar  1450  PLP1450    -0.2452
      2  C2       -22.6700  -33.3860   36.1080 C.ar  1450  PLP1450     0.0978
      3  C2A      -22.3790  -33.1240   34.6590 C.3   1450  PLP1450     0.0555
      4  C3       -23.9060  -33.9060   36.4960 C.ar  1450  PLP1450     0.2049
      5  O3       -24.9000  -34.0210   35.5570 O.3   1450  PLP1450    -0.2857
      6  C4       -24.1780  -34.1600   37.8510 C.ar  1450  PLP1450     0.0182
      7  C4A      -25.6100  -34.2950   38.3100 C.3   1450  PLP1450     0.0342
      8  C5       -23.2030  -33.8800   38.8220 C.ar  1450  PLP1450     0.0261
      9  C6       -21.9680  -33.3550   38.4070 C.ar  1450  PLP1450     0.0965
     10  C5A      -23.6200  -33.7510   40.2770 C.3   1450  PLP1450     0.1815
     11  O4P      -24.1130  -34.9970   40.7160 O.3   1450  PLP1450    -0.2653
     12  P        -24.7970  -35.2240   42.1690 P.3   1450  PLP1450     0.5329
     13  O1P      -23.8880  -34.6340   43.2390 O.3   1450  PLP1450    -0.1145
     14  O2P      -26.1490  -34.5310   42.2100 O.2   1450  PLP1450    -0.2224
     15  O3P      -25.0020  -36.7110   42.4240 O.3   1450  PLP1450    -0.1145
@<TRIPOS>BOND
     1     3     2    1
     2     5     4    1
     3     2     4   ar
     4     2     1   ar
     5     4     6   ar
     6     1     9   ar
     7     6     7    1
     8     6     8   ar
     9     9     8   ar
    10     8    10    1
    11    10    11    1
    12    11    12    1
    13    12    14    2
    14    12    15    1
    15    12    13    1
