@<TRIPOS>MOLECULE
2jjk_R15_A_1.pdb
 35 36 0 0 0
SMALL
GASTEIGER

@<TRIPOS>ATOM
      1  S1         8.7430   59.9740   30.4230 S.O2  1336  R151336     0.0967
      2  S2        16.9850   59.0470   19.4940 S.O2  1336  R151336     0.0967
      3  N3        16.4590   60.0070   20.8020 N.am  1336  R151336    -0.0401
      4  N5         8.8540   60.3120   28.7850 N.am  1336  R151336    -0.0401
      5  C7         9.1950   59.3040   27.8890 C.2   1336  R151336     0.3603
      6  C8        16.5520   59.5330   22.1110 C.2   1336  R151336     0.3603
      7  C9         7.2490   59.0710   30.7210 C.ar  1336  R151336     0.1280
      8  C10       18.7430   58.8530   19.4830 C.ar  1336  R151336     0.1280
      9  O11        9.8900   59.1430   30.7690 O.2   1336  R151336    -0.1482
     10  O12       16.4010   57.7280   19.6380 O.2   1336  R151336    -0.1482
     11  O13       16.6690   59.7810   18.2630 O.2   1336  R151336    -0.1482
     12  O14        8.6750   61.2430   31.1850 O.2   1336  R151336    -0.1482
     13  C15        7.2990   57.6950   30.9180 C.ar  1336  R151336     0.0316
     14  C17       19.3270   57.6440   19.8710 C.ar  1336  R151336     0.0316
     15  O19        9.4020   58.1260   28.2250 O.2   1336  R151336    -0.2474
     16  O20       17.0140   58.3940   22.3910 O.2   1336  R151336    -0.2474
     17  N21        9.2500   59.7650   26.5930 N.am  1336  R151336    -0.1859
     18  N22       16.0900   60.4420   23.0590 N.am  1336  R151336    -0.1859
     19  C23        6.1300   56.9900   31.1510 C.ar  1336  R151336     0.0590
     20  C24       20.7060   57.5200   19.8410 C.ar  1336  R151336     0.0590
     21 CL25        6.2160   55.2750   31.3940 Cl    1336  R151336    -0.0822
     22 CL26       21.4520   56.0180   20.3100 Cl    1336  R151336    -0.0822
     23  C27        6.0290   59.7230   30.7660 C.ar  1336  R151336     0.0203
     24  C29       19.5310   59.9140   19.0500 C.ar  1336  R151336     0.0203
     25  C31        4.8540   59.0220   31.0140 C.ar  1336  R151336     0.0022
     26  C33       20.9060   59.7840   19.0370 C.ar  1336  R151336     0.0022
     27  C41        4.9110   57.6440   31.2030 C.ar  1336  R151336     0.0115
     28  C43       21.4920   58.5850   19.4290 C.ar  1336  R151336     0.0115
     29  C35       16.0940   60.1340   24.4840 C.3   1336  R151336     0.1169
     30  C38        9.9580   59.0160   25.5600 C.3   1336  R151336     0.1169
     31  C45       15.0640   59.0380   24.7820 C.3   1336  R151336     0.0235
     32  C48       11.4650   58.9770   25.8370 C.3   1336  R151336     0.0235
     33  C51       14.4100   59.2030   26.1560 C.3   1336  R151336     0.0018
     34  C54       12.1700   60.2960   25.5030 C.3   1336  R151336     0.0018
     35  C57       13.4990   60.4290   26.2540 C.3   1336  R151336     0.0001
@<TRIPOS>BOND
     1    11     2    2
     2    26    24   ar
     3    26    28   ar
     4    24     8   ar
     5    28    20   ar
     6     8     2    1
     7     8    14   ar
     8     2    10    2
     9     2     3    1
    10    20    14   ar
    11    20    22    1
    12     3     6   am
    13     6    16    2
    14     6    18   am
    15    18    29    1
    16    29    31    1
    17    31    33    1
    18    34    32    1
    19    34    35    1
    20    30    32    1
    21    30    17    1
    22    33    35    1
    23    17     5   am
    24     5    15    2
    25     5     4   am
    26     4     1    1
    27     1     7    1
    28     1     9    2
    29     1    12    2
    30     7    23   ar
    31     7    13   ar
    32    23    25   ar
    33    13    19   ar
    34    25    27   ar
    35    19    27   ar
    36    19    21    1
