@<TRIPOS>MOLECULE
2jjn_HEM_A_1.pdb
 43 50 0 0 0
SMALL
GASTEIGER

@<TRIPOS>ATOM
      1 FE         24.1500   -3.2900    5.1220 Fe    412  HEM412      0.0000
      2  CHA       25.9970   -3.8920    2.2710 C.2   412  HEM412      0.0000
      3  CHB       21.2610   -3.2270    3.2420 C.2   412  HEM412      0.0000
      4  CHC       22.3190   -2.7990    7.9520 C.2   412  HEM412      0.0000
      5  CHD       27.0640   -2.6480    6.8890 C.2   412  HEM412      0.0000
      6  NA        23.7100   -3.5300    3.2100 N.ar  412  HEM412      0.0000
      7  C1A       24.6220   -3.8120    2.1790 C.ar  412  HEM412      0.0000
      8  C2A       23.8650   -3.9720    0.9320 C.ar  412  HEM412      0.0000
      9  C3A       22.5700   -3.7740    1.1940 C.ar  412  HEM412      0.0000
     10  C4A       22.4460   -3.4760    2.6070 C.ar  412  HEM412      0.0000
     11  CMA       21.3960   -3.8090    0.1910 C.3   412  HEM412      0.0000
     12  CAA       24.4640   -4.3400   -0.4380 C.3   412  HEM412      0.0000
     13  CBA       25.0150   -3.1210   -1.1550 C.3   412  HEM412      0.0000
     14  CGA       25.3700   -3.4170   -2.6140 C.2   412  HEM412      0.0000
     15  O1A       25.2050   -4.5830   -3.0710 O.co2 412  HEM412      0.0000
     16  O2A       25.8670   -2.4570   -3.2830 O.co2 412  HEM412      0.0000
     17  NB        22.2180   -2.9690    5.5010 N.2   412  HEM412      0.0000
     18  C1B       21.1420   -3.0630    4.6230 C.2   412  HEM412      0.0000
     19  C2B       19.8950   -2.9570    5.3370 C.2   412  HEM412      0.0000
     20  C3B       20.1860   -2.8460    6.6540 C.2   412  HEM412      0.0000
     21  C4B       21.6400   -2.8800    6.7550 C.2   412  HEM412      0.0000
     22  CMB       18.5520   -2.9950    4.5780 C.3   412  HEM412      0.0000
     23  CAB       19.2750   -2.6670    7.8840 C.2   412  HEM412      0.0000
     24  CBB       18.1100   -3.2290    7.9100 C.2   412  HEM412      0.0000
     25  NC        24.6250   -2.7520    7.0530 N.ar  412  HEM412      0.0000
     26  C1C       23.6900   -2.7180    8.0700 C.ar  412  HEM412      0.0000
     27  C2C       24.4100   -2.5560    9.3230 C.ar  412  HEM412      0.0000
     28  C3C       25.7270   -2.5120    9.0290 C.ar  412  HEM412      0.0000
     29  C4C       25.8760   -2.6630    7.5800 C.ar  412  HEM412      0.0000
     30  CMC       23.6960   -2.4650   10.6980 C.3   412  HEM412      0.0000
     31  CAC       26.9340   -2.3090    9.9650 C.2   412  HEM412      0.0000
     32  CBC       27.0150   -2.8600   11.1760 C.2   412  HEM412      0.0000
     33  ND        26.1290   -3.2800    4.6650 N.2   412  HEM412      0.0000
     34  C1D       27.1620   -2.9430    5.5630 C.2   412  HEM412      0.0000
     35  C2D       28.4110   -2.9880    4.8730 C.2   412  HEM412      0.0000
     36  C3D       28.0920   -3.3880    3.4690 C.2   412  HEM412      0.0000
     37  C4D       26.6680   -3.5390    3.4190 C.2   412  HEM412      0.0000
     38  CMD       29.8240   -2.6860    5.4560 C.3   412  HEM412      0.0000
     39  CAD       29.0680   -3.5710    2.2930 C.3   412  HEM412      0.0000
     40  CBD       29.5220   -5.0380    2.1670 C.3   412  HEM412      0.0000
     41  CGD       30.3750   -5.2090    0.9480 C.2   412  HEM412      0.0000
     42  O1D       30.4190   -4.3200    0.0800 O.co2 412  HEM412      0.0000
     43  O2D       31.0260   -6.2710    0.8550 O.co2 412  HEM412      0.0000
@<TRIPOS>BOND
     1    16    14   ar
     2    15    14   ar
     3    14    13    1
     4    13    12    1
     5    12     8    1
     6    42    41   ar
     7    11     9    1
     8    43    41   ar
     9     8     9   ar
    10     8     7   ar
    11    41    40    1
    12     9    10   ar
    13    40    39    1
    14     7     2    2
    15     7     6   ar
    16     2    37    1
    17    39    36    1
    18    10     6   ar
    19    10     3    2
    20     6     1    1
    21     3    18    1
    22    37    36    1
    23    37    33    2
    24    36    35    2
    25    22    19    1
    26    18    19    1
    27    18    17    2
    28    33     1    1
    29    33    34    1
    30    35    38    1
    31    35    34    1
    32     1    17    1
    33     1    25    1
    34    19    20    2
    35    17    21    1
    36    34     5    2
    37    20    21    1
    38    20    23    1
    39    21     4    2
    40     5    29    1
    41    25    29   ar
    42    25    26   ar
    43    29    28   ar
    44    23    24    2
    45     4    26    1
    46    26    27   ar
    47    28    27   ar
    48    28    31    1
    49    27    30    1
    50    31    32    2
