@<TRIPOS>MOLECULE
2jjo_HEM_A_1.pdb
 43 50 0 0 0
SMALL
GASTEIGER

@<TRIPOS>ATOM
      1  CHA      -13.7350    4.0410   27.6920 C.2   412  HEM412      0.0000
      2  CHB      -11.8330    2.8390   23.4110 C.2   412  HEM412      0.0000
      3  CHC       -7.4210    2.8260   25.4480 C.2   412  HEM412      0.0000
      4  CHD       -9.3670    3.6910   29.8010 C.2   412  HEM412      0.0000
      5  C1A      -13.5800    3.7630   26.3610 C.ar  412  HEM412      0.0000
      6  C2A      -14.6520    3.8330   25.3900 C.ar  412  HEM412      0.0000
      7  C3A      -14.1370    3.4970   24.2100 C.ar  412  HEM412      0.0000
      8  C4A      -12.7220    3.2210   24.4000 C.ar  412  HEM412      0.0000
      9  CMA      -14.8800    3.4060   22.8370 C.3   412  HEM412      0.0000
     10  CAA      -16.1200    4.2420   25.7120 C.3   412  HEM412      0.0000
     11  CBA      -17.0350    3.0290   26.0120 C.3   412  HEM412      0.0000
     12  CGA      -18.5140    3.4100   26.1000 C.2   412  HEM412      0.0000
     13  O1A      -18.8760    4.5700   25.6920 O.co2 412  HEM412      0.0000
     14  O2A      -19.3540    2.5290   26.5410 O.co2 412  HEM412      0.0000
     15  C1B      -10.4470    2.7470   23.5900 C.2   412  HEM412      0.0000
     16  C2B       -9.5100    2.4690   22.5490 C.2   412  HEM412      0.0000
     17  C3B       -8.2800    2.4580   23.0910 C.2   412  HEM412      0.0000
     18  C4B       -8.4200    2.7660   24.5200 C.2   412  HEM412      0.0000
     19  CMB       -9.9120    2.2060   21.0650 C.3   412  HEM412      0.0000
     20  CAB       -6.9450    2.1740   22.3520 C.2   412  HEM412      0.0000
     21  CBB       -6.7450    2.5560   21.0650 C.2   412  HEM412      0.0000
     22  C1C       -7.5620    3.0410   26.8090 C.ar  412  HEM412      0.0000
     23  C2C       -6.4670    3.0450   27.7770 C.ar  412  HEM412      0.0000
     24  C3C       -7.0100    3.3100   28.9850 C.ar  412  HEM412      0.0000
     25  C4C       -8.4560    3.4260   28.8200 C.ar  412  HEM412      0.0000
     26  CMC       -4.9690    2.8500   27.4120 C.3   412  HEM412      0.0000
     27  CAC       -6.2660    3.4070   30.3280 C.2   412  HEM412      0.0000
     28  CBC       -6.6950    2.6830   31.3720 C.2   412  HEM412      0.0000
     29  C1D      -10.7220    3.8470   29.6520 C.2   412  HEM412      0.0000
     30  C2D      -11.6580    4.0530   30.7310 C.2   412  HEM412      0.0000
     31  C3D      -13.0010    4.1790   30.0540 C.2   412  HEM412      0.0000
     32  C4D      -12.7510    4.0030   28.6520 C.2   412  HEM412      0.0000
     33  CMD      -11.3650    4.1560   32.2550 C.3   412  HEM412      0.0000
     34  CAD      -14.3780    4.3820   30.6920 C.3   412  HEM412      0.0000
     35  CBD      -14.6270    5.8740   30.6870 C.3   412  HEM412      0.0000
     36  CGD      -15.9650    6.1790   31.3180 C.2   412  HEM412      0.0000
     37  O1D      -16.8850    5.3220   31.2590 O.co2 412  HEM412      0.0000
     38  O2D      -16.1290    7.2940   31.8830 O.co2 412  HEM412      0.0000
     39  NA       -12.4200    3.3960   25.7390 N.ar  412  HEM412      0.0000
     40  NB        -9.7560    2.9030   24.7960 N.2   412  HEM412      0.0000
     41  NC        -8.7550    3.2630   27.4830 N.ar  412  HEM412      0.0000
     42  ND       -11.3990    3.8110   28.4490 N.2   412  HEM412      0.0000
     43 FE        -10.5830    3.5390   26.5850 Fe    412  HEM412      0.0000
@<TRIPOS>BOND
     1    19    16    1
     2    21    20    2
     3    20    17    1
     4    16    17    2
     5    16    15    1
     6     9     7    1
     7    17    18    1
     8     2    15    1
     9     2     8    2
    10    15    40    2
    11     7     8   ar
    12     7     6   ar
    13     8    39   ar
    14    18    40    1
    15    18     3    2
    16    40    43    1
    17     6    10    1
    18     6     5   ar
    19     3    22    1
    20    13    12   ar
    21    10    11    1
    22    39     5   ar
    23    39    43    1
    24    11    12    1
    25    12    14   ar
    26     5     1    2
    27    43    41    1
    28    43    42    1
    29    22    41   ar
    30    22    23   ar
    31    26    23    1
    32    41    25   ar
    33     1    32    1
    34    23    24   ar
    35    42    32    2
    36    42    29    1
    37    32    31    1
    38    25    24   ar
    39    25     4    1
    40    24    27    1
    41    29     4    2
    42    29    30    1
    43    31    34    1
    44    31    30    2
    45    27    28    2
    46    35    34    1
    47    35    36    1
    48    30    33    1
    49    37    36   ar
    50    36    38   ar
