@<TRIPOS>MOLECULE
2jjp_HEM_A_1.pdb
 43 50 0 0 0
SMALL
GASTEIGER

@<TRIPOS>ATOM
      1 FE         23.8710   -2.9870    5.0700 Fe    412  HEM412      0.0000
      2  CHA       25.5970   -3.7800    2.2290 C.2   412  HEM412      0.0000
      3  CHB       20.9580   -3.1150    3.3320 C.2   412  HEM412      0.0000
      4  CHC       22.0230   -2.4660    8.0640 C.2   412  HEM412      0.0000
      5  CHD       26.6890   -2.4850    6.7770 C.2   412  HEM412      0.0000
      6  NA        23.3790   -3.4040    3.1650 N.ar  412  HEM412      0.0000
      7  C1A       24.2450   -3.6940    2.1290 C.ar  412  HEM412      0.0000
      8  C2A       23.5020   -3.8550    0.8990 C.ar  412  HEM412      0.0000
      9  C3A       22.2020   -3.6810    1.2120 C.ar  412  HEM412      0.0000
     10  C4A       22.1120   -3.3630    2.6260 C.ar  412  HEM412      0.0000
     11  CMA       20.9820   -3.7220    0.2870 C.3   412  HEM412      0.0000
     12  CAA       24.1690   -4.2140   -0.4720 C.3   412  HEM412      0.0000
     13  CBA       24.5960   -2.8960   -1.1590 C.3   412  HEM412      0.0000
     14  CGA       25.0080   -3.1950   -2.6070 C.2   412  HEM412      0.0000
     15  O1A       24.9480   -4.3510   -3.0920 O.co2 412  HEM412      0.0000
     16  O2A       25.3930   -2.2540   -3.3320 O.co2 412  HEM412      0.0000
     17  NB        21.8950   -2.8600    5.6390 N.2   412  HEM412      0.0000
     18  C1B       20.8650   -2.9270    4.7050 C.2   412  HEM412      0.0000
     19  C2B       19.6410   -2.7690    5.4070 C.2   412  HEM412      0.0000
     20  C3B       19.9160   -2.5740    6.7220 C.2   412  HEM412      0.0000
     21  C4B       21.3380   -2.6110    6.8780 C.2   412  HEM412      0.0000
     22  CMB       18.2900   -2.8750    4.6820 C.3   412  HEM412      0.0000
     23  CAB       18.9700   -2.3900    7.9310 C.2   412  HEM412      0.0000
     24  CBB       17.6700   -2.3070    7.7550 C.2   412  HEM412      0.0000
     25  NC        24.2160   -2.5610    7.0420 N.ar  412  HEM412      0.0000
     26  C1C       23.3970   -2.3870    8.1350 C.ar  412  HEM412      0.0000
     27  C2C       24.2120   -2.1270    9.3200 C.ar  412  HEM412      0.0000
     28  C3C       25.4870   -2.1570    8.9320 C.ar  412  HEM412      0.0000
     29  C4C       25.5170   -2.4280    7.5110 C.ar  412  HEM412      0.0000
     30  CMC       23.6890   -1.9010   10.7630 C.3   412  HEM412      0.0000
     31  CAC       26.7810   -1.9700    9.7690 C.2   412  HEM412      0.0000
     32  CBC       26.7970   -1.4750   11.0160 C.2   412  HEM412      0.0000
     33  ND        25.8490   -3.0680    4.5480 N.2   412  HEM412      0.0000
     34  C1D       26.8620   -2.8760    5.4670 C.2   412  HEM412      0.0000
     35  C2D       28.1310   -3.1290    4.8310 C.2   412  HEM412      0.0000
     36  C3D       27.7930   -3.5550    3.3920 C.2   412  HEM412      0.0000
     37  C4D       26.3570   -3.4470    3.3240 C.2   412  HEM412      0.0000
     38  CMD       29.4960   -2.9540    5.5390 C.3   412  HEM412      0.0000
     39  CAD       28.6790   -3.8960    2.1560 C.3   412  HEM412      0.0000
     40  CBD       29.4070   -5.2180    2.2180 C.3   412  HEM412      0.0000
     41  CGD       30.2590   -5.4400    1.0150 C.2   412  HEM412      0.0000
     42  O1D       30.3560   -4.5280    0.1470 O.co2 412  HEM412      0.0000
     43  O2D       30.8320   -6.5640    0.9390 O.co2 412  HEM412      0.0000
@<TRIPOS>BOND
     1    16    14   ar
     2    15    14   ar
     3    14    13    1
     4    13    12    1
     5    12     8    1
     6    42    41   ar
     7    11     9    1
     8     8     9   ar
     9     8     7   ar
    10    43    41   ar
    11    41    40    1
    12     9    10   ar
    13     7     2    2
    14     7     6   ar
    15    39    40    1
    16    39    36    1
    17     2    37    1
    18    10     6   ar
    19    10     3    2
    20     6     1    1
    21    37    36    1
    22    37    33    2
    23     3    18    1
    24    36    35    2
    25    33     1    1
    26    33    34    1
    27    22    19    1
    28    18    19    1
    29    18    17    2
    30    35    34    1
    31    35    38    1
    32     1    17    1
    33     1    25    1
    34    19    20    2
    35    34     5    2
    36    17    21    1
    37    20    21    1
    38    20    23    1
    39     5    29    1
    40    21     4    2
    41    25    29   ar
    42    25    26   ar
    43    29    28   ar
    44    24    23    2
    45     4    26    1
    46    26    27   ar
    47    28    27   ar
    48    28    31    1
    49    27    30    1
    50    31    32    2
