@<TRIPOS>MOLECULE
2jjp_KLN_A_1.pdb
 36 40 0 0 0
SMALL
GASTEIGER

@<TRIPOS>ATOM
      1  N1        23.6860    0.8450    3.6350 N.ar  413  KLN413     -0.3025
      2  C1        23.3090   -0.4460    3.6220 C.ar  413  KLN413      0.1788
      3  N2        23.7670   -1.0600    4.7270 N.ar  413  KLN413     -0.2223
      4  C2        24.4550   -0.1500    5.4440 C.ar  413  KLN413      0.1193
      5  C3        24.3960    1.0510    4.7510 C.ar  413  KLN413      0.0982
      6  C4        23.4230    1.8200    2.5910 C.3   413  KLN413      0.1682
      7  C5        24.4630    1.5520    1.4980 C.3   413  KLN413      0.2296
      8  O1        24.5300    2.6240    0.5780 O.3   413  KLN413     -0.3255
      9  C6        24.9540    2.0630   -0.6620 C.3   413  KLN413      0.1909
     10  C7        24.5250    0.6140   -0.5960 C.3   413  KLN413      0.1783
     11  O2        24.1020    0.4080    0.7460 O.3   413  KLN413     -0.3267
     12  C8        25.8370    1.2680    2.0240 C.ar  413  KLN413      0.0409
     13  C9        26.6000    2.2630    2.6220 C.ar  413  KLN413      0.0591
     14  C10       27.8660    1.9590    3.1030 C.ar  413  KLN413      0.0226
     15  C11       28.3520    0.6590    2.9510 C.ar  413  KLN413      0.0585
     16  C12       27.5810   -0.3210    2.3460 C.ar  413  KLN413      0.0113
     17  C13       26.3210   -0.0220    1.8800 C.ar  413  KLN413      0.0022
     18 CL1        29.9630    0.2040    3.5150 Cl    413  KLN413     -0.0822
     19  C14       24.2700    2.7130   -1.8520 C.3   413  KLN413      0.2374
     20  O3        22.8990    3.0560   -1.6610 O.3   413  KLN413     -0.4727
     21  C15       22.3610    3.8210   -2.6570 C.ar  413  KLN413      0.1388
     22  C16       21.3610    3.3050   -3.4600 C.ar  413  KLN413      0.0382
     23  C17       20.8190    4.0730   -4.4890 C.ar  413  KLN413      0.0176
     24  C18       21.2600    5.3720   -4.7410 C.ar  413  KLN413      0.0481
     25  C19       22.2900    5.8900   -3.9360 C.ar  413  KLN413      0.0176
     26  C20       22.8340    5.1210   -2.9010 C.ar  413  KLN413      0.0382
     27  N3        20.6990    6.1230   -5.8210 N.pl3 413  KLN413     -0.3041
     28  C21       19.3350    5.6630   -6.1490 C.3   413  KLN413      0.1123
     29  C22       18.4270    6.8210   -6.5470 C.3   413  KLN413      0.1148
     30  N4        19.1050    7.7910   -7.4280 N.am  413  KLN413     -0.2760
     31  C23       20.3690    8.3040   -6.8670 C.3   413  KLN413      0.1148
     32  C24       20.7220    7.5750   -5.5760 C.3   413  KLN413      0.1123
     33  C25       18.2160    8.8840   -7.6860 C.2   413  KLN413      0.2262
     34  O4        17.7150    9.5320   -6.7670 O.2   413  KLN413     -0.2749
     35  C26       17.9000    9.2350   -9.1130 C.3   413  KLN413      0.0948
     36 CL2        25.9450    3.9000    2.7750 Cl    413  KLN413     -0.0824
@<TRIPOS>BOND
     1    35    33    1
     2    33    30   am
     3    33    34    2
     4    30    31    1
     5    30    29    1
     6    31    32    1
     7    29    28    1
     8    28    27    1
     9    27    32    1
    10    27    24    1
    11    24    23   ar
    12    24    25   ar
    13    23    22   ar
    14    25    26   ar
    15    22    21   ar
    16    26    21   ar
    17    21    20    1
    18    19    20    1
    19    19     9    1
    20     9    10    1
    21     9     8    1
    22    10    11    1
    23     8     7    1
    24    11     7    1
    25     7    12    1
    26     7     6    1
    27    17    12   ar
    28    17    16   ar
    29    12    13   ar
    30    16    15   ar
    31     6     1    1
    32    13    36    1
    33    13    14   ar
    34    15    14   ar
    35    15    18    1
    36     2     1   ar
    37     2     3   ar
    38     1     5   ar
    39     3     4   ar
    40     5     4   ar
