@<TRIPOS>MOLECULE
2jjq_SAH_A_1.pdb
 26 28 0 0 0
SMALL
GASTEIGER

@<TRIPOS>ATOM
      1  N          8.7270    0.7340    6.6200 N.3   1406  SAH1406    -0.1208
      2  CA         9.8270    0.0970    7.4160 C.3   1406  SAH1406     0.1952
      3  CB        10.6780   -0.8230    6.5420 C.3   1406  SAH1406     0.0422
      4  CG         9.9150   -2.0230    6.0270 C.3   1406  SAH1406     0.0597
      5  SD        11.1310   -3.2960    5.6480 S.3   1406  SAH1406    -0.1375
      6  C         10.7250    1.1970    7.9320 C.2   1406  SAH1406     0.3819
      7  O         11.6190    1.0070    8.7720 O.co2 1406  SAH1406    -0.2441
      8  OXT       10.5820    2.3230    7.4780 O.co2 1406  SAH1406    -0.2441
      9  C5'        9.9910   -4.6150    5.3120 C.3   1406  SAH1406     0.0899
     10  C4'        9.2950   -5.0590    6.6110 C.3   1406  SAH1406     0.1630
     11  O4'        8.4840   -6.2460    6.4060 O.3   1406  SAH1406    -0.3153
     12  C3'       10.2500   -5.4220    7.7480 C.3   1406  SAH1406     0.2168
     13  O3'       10.0130   -4.5240    8.8510 O.3   1406  SAH1406    -0.2175
     14  C2'        9.9100   -6.8970    8.0800 C.3   1406  SAH1406     0.2569
     15  O2'        9.9500   -7.2460    9.4670 O.3   1406  SAH1406    -0.2130
     16  C1'        8.4940   -7.0410    7.6070 C.3   1406  SAH1406     0.3185
     17  N9         8.0700   -8.3230    7.0550 N.pl3 1406  SAH1406    -0.1439
     18  C8         8.7980   -9.2020    6.3250 C.3   1406  SAH1406     0.3377
     19  N7         7.9820  -10.2050    5.9030 N.2   1406  SAH1406    -0.2095
     20  C5         6.7360   -9.9460    6.3310 C.2   1406  SAH1406     0.2526
     21  C6         5.4070  -10.5840    6.2290 C.2   1406  SAH1406     0.4393
     22  N6         5.3180  -11.7520    5.5460 N.pl3 1406  SAH1406     0.2180
     23  N1         4.3540   -9.9520    6.8440 N.2   1406  SAH1406     0.0021
     24  C2         4.4870   -8.7900    7.5200 C.3   1406  SAH1406     0.5254
     25  N3         5.6730   -8.1800    7.6550 N.2   1406  SAH1406    -0.0055
     26  C4         6.7870   -8.6970    7.0840 C.2   1406  SAH1406     0.3518
@<TRIPOS>BOND
     1     9     5    1
     2     9    10    1
     3    22    21    1
     4     5     4    1
     5    19    18    1
     6    19    20    2
     7     4     3    1
     8    21    20    1
     9    21    23    2
    10    18    17    1
    11    20    26    1
    12    11    10    1
    13    11    16    1
    14     3     2    1
    15    10    12    1
    16     1     2    1
    17    23    24    1
    18    17    26    1
    19    17    16    1
    20    26    25    2
    21     2     6    1
    22     8     6   ar
    23    24    25    1
    24    16    14    1
    25    12    14    1
    26    12    13    1
    27     6     7   ar
    28    14    15    1
