@<TRIPOS>MOLECULE
2jjr_TAM_A_1.pdb
 11 10 0 0 0
SMALL
GASTEIGER

@<TRIPOS>ATOM
      1  C         21.5620  -18.1430  -18.7780 C.3   1257  TAM1257     0.0846
      2  C1        21.7520  -17.4140  -20.1110 C.3   1257  TAM1257     0.0533
      3  C2        22.0340  -19.5960  -18.9510 C.3   1257  TAM1257     0.0533
      4  C3        22.3480  -17.4250  -17.6920 C.3   1257  TAM1257     0.0533
      5  C4        21.5560  -15.8940  -20.0860 C.3   1257  TAM1257     0.1835
      6  C5        21.3990  -20.6400  -18.0270 C.3   1257  TAM1257     0.1835
      7  C6        21.5640  -16.3750  -16.8870 C.3   1257  TAM1257     0.1835
      8  N         20.1390  -18.1310  -18.4190 N.3   1257  TAM1257    -0.1341
      9  O4        22.0690  -15.3050  -21.2900 O.3   1257  TAM1257    -0.2204
     10  O5        22.3630  -21.6360  -17.6150 O.3   1257  TAM1257    -0.2204
     11  O6        22.4200  -15.2850  -16.5100 O.3   1257  TAM1257    -0.2204
@<TRIPOS>BOND
     1     9     5    1
     2     2     5    1
     3     2     1    1
     4     3     1    1
     5     3     6    1
     6     1     8    1
     7     1     4    1
     8     6    10    1
     9     4     7    1
    10     7    11    1
