@<TRIPOS>MOLECULE
2jjx_ATP_A_1.pdb
 31 33 0 0 0
SMALL
GASTEIGER

@<TRIPOS>ATOM
      1  PG        41.7870  -26.8470  119.0310 P.3   1246  ATP1246     0.5373
      2  O1G       42.8100  -27.4320  119.9970 O.3   1246  ATP1246    -0.1143
      3  O2G       40.4520  -27.4050  119.4820 O.3   1246  ATP1246    -0.1143
      4  O3G       42.1040  -27.3050  117.6130 O.2   1246  ATP1246    -0.2221
      5  PB        41.7970  -24.0970  117.9970 P.3   1246  ATP1246     0.2277
      6  O1B       43.0350  -23.1900  118.2540 O.3   1246  ATP1246    -0.4368
      7  O2B       40.5240  -23.2140  118.1510 O.2   1246  ATP1246    -0.5168
      8  O3B       41.7250  -25.2490  119.1040 O.3   1246  ATP1246    -0.2258
      9  PA        42.8140  -24.9850  115.3540 P.3   1246  ATP1246     0.2189
     10  O1A       43.4450  -26.3930  115.5210 O.3   1246  ATP1246    -0.4371
     11  O2A       43.9530  -23.9380  115.2990 O.2   1246  ATP1246    -0.5170
     12  O3A       41.7900  -24.7300  116.5370 O.3   1246  ATP1246    -0.2700
     13  O5'       41.9910  -24.9030  113.9490 O.3   1246  ATP1246    -0.3112
     14  C5'       40.5830  -25.1820  113.9590 C.3   1246  ATP1246     0.1813
     15  C4'       40.3100  -26.2840  112.9360 C.3   1246  ATP1246     0.1821
     16  O4'       40.8130  -25.9180  111.6170 O.3   1246  ATP1246    -0.3135
     17  C3'       40.8540  -27.6710  113.2930 C.3   1246  ATP1246     0.2184
     18  O3'       39.9090  -28.4720  114.0070 O.3   1246  ATP1246    -0.2174
     19  C2'       41.2050  -28.2980  111.9410 C.3   1246  ATP1246     0.2570
     20  O2'       40.0470  -29.0480  111.5200 O.3   1246  ATP1246    -0.2130
     21  C1'       41.4950  -27.0840  111.0380 C.3   1246  ATP1246     0.3186
     22  N9        41.3770  -27.3090  109.5860 N.pl3 1246  ATP1246    -0.1439
     23  C8        40.9000  -28.4430  108.9650 C.3   1246  ATP1246     0.3377
     24  N7        40.9390  -28.3800  107.6530 N.2   1246  ATP1246    -0.2095
     25  C5        41.4730  -27.1330  107.4100 C.2   1246  ATP1246     0.2526
     26  C6        41.7510  -26.4880  106.2030 C.2   1246  ATP1246     0.4393
     27  N6        41.5010  -27.1090  105.0040 N.pl3 1246  ATP1246     0.2180
     28  N1        42.2780  -25.2310  106.2450 N.2   1246  ATP1246     0.0021
     29  C2        42.5060  -24.6450  107.4460 C.3   1246  ATP1246     0.5254
     30  N3        42.2810  -25.1850  108.6680 N.2   1246  ATP1246    -0.0055
     31  C4        41.7570  -26.4360  108.5800 C.2   1246  ATP1246     0.3518
@<TRIPOS>BOND
     1    27    26    1
     2    26    28    2
     3    26    25    1
     4    28    29    1
     5    25    24    2
     6    25    31    1
     7    29    30    1
     8    24    23    1
     9    31    30    2
    10    31    22    1
    11    23    22    1
    12    22    21    1
    13    21    16    1
    14    21    19    1
    15    20    19    1
    16    16    15    1
    17    19    17    1
    18    15    17    1
    19    15    14    1
    20    17    18    1
    21    13    14    1
    22    13     9    1
    23    11     9    2
    24     9    10    1
    25     9    12    1
    26    12     5    1
    27     4     1    2
    28     5     7    2
    29     5     6    1
    30     5     8    1
    31     1     8    1
    32     1     3    1
    33     1     2    1
