@<TRIPOS>MOLECULE
2jjy_NAD_D_1.pdb
 44 48 0 0 0
SMALL
GASTEIGER

@<TRIPOS>ATOM
      1  PA        -8.7530  -20.8010   29.1050 P.3   1261  NAD1261     0.2189
      2  O1A       -7.3740  -20.5010   29.9320 O.3   1261  NAD1261    -0.4371
      3  O2A       -8.8770  -19.8520   27.9640 O.2   1261  NAD1261    -0.5170
      4  O5B       -8.7120  -22.3800   28.7300 O.3   1261  NAD1261    -0.3112
      5  C5B       -8.3570  -22.8440   27.4420 C.3   1261  NAD1261     0.1813
      6  C4B       -8.8190  -24.2730   27.2940 C.3   1261  NAD1261     0.1821
      7  O4B       -8.1240  -24.7890   26.1420 O.3   1261  NAD1261    -0.3135
      8  C3B       -8.3180  -25.0580   28.5140 C.3   1261  NAD1261     0.2184
      9  O3B       -9.4190  -25.7220   29.1310 O.3   1261  NAD1261    -0.2174
     10  C2B       -7.3580  -26.0810   27.9250 C.3   1261  NAD1261     0.2570
     11  O2B       -7.5480  -27.3340   28.5850 O.3   1261  NAD1261    -0.2130
     12  C1B       -7.8050  -26.1450   26.4590 C.3   1261  NAD1261     0.3186
     13  N9A       -6.6970  -26.4270   25.5470 N.pl3 1261  NAD1261    -0.1439
     14  C8A       -5.6290  -25.6460   25.3790 C.3   1261  NAD1261     0.3377
     15  N7A       -4.8210  -26.1910   24.4710 N.2   1261  NAD1261    -0.2095
     16  C5A       -5.3810  -27.3230   24.0560 C.2   1261  NAD1261     0.2526
     17  C6A       -4.9950  -28.2900   23.1420 C.2   1261  NAD1261     0.4393
     18  N6A       -3.8400  -28.1460   22.4870 N.pl3 1261  NAD1261     0.2180
     19  N1A       -5.8040  -29.3510   22.9420 N.2   1261  NAD1261     0.0021
     20  C2A       -6.9490  -29.4710   23.5990 C.3   1261  NAD1261     0.5254
     21  N3A       -7.3430  -28.5650   24.4850 N.2   1261  NAD1261    -0.0055
     22  C4A       -6.5810  -27.4800   24.7350 C.2   1261  NAD1261     0.3518
     23  O3       -10.0420  -20.7580   30.1770 O.3   1261  NAD1261    -0.2703
     24  PN       -11.6740  -20.5870   29.8790 P.3   1261  NAD1261     0.2189
     25  O1N      -12.4030  -21.5130   30.7540 O.3   1261  NAD1261    -0.4371
     26  O2N      -11.9620  -19.1510   29.9870 O.2   1261  NAD1261    -0.5170
     27  O5D      -11.9890  -21.1840   28.4290 O.3   1261  NAD1261    -0.3112
     28  C5D      -11.3150  -20.8790   27.1970 C.3   1261  NAD1261     0.1813
     29  C4D      -12.1460  -19.9840   26.3200 C.3   1261  NAD1261     0.1799
     30  O4D      -12.4400  -18.8340   27.1020 O.3   1261  NAD1261    -0.3327
     31  C3D      -11.1840  -19.4770   25.2770 C.3   1261  NAD1261     0.2158
     32  O3D      -11.6130  -20.0840   24.0620 O.3   1261  NAD1261    -0.2175
     33  C2D      -11.3960  -17.9490   25.2770 C.3   1261  NAD1261     0.2309
     34  O2D      -11.7710  -17.5150   23.9820 O.3   1261  NAD1261    -0.2158
     35  C1D      -12.6240  -17.7600   26.1640 C.3   1261  NAD1261     0.2263
     36  N1N      -12.7950  -16.5270   26.9990 N.pl3 1261  NAD1261    -0.2787
     37  C2N      -12.4830  -16.5930   28.3820 C.3   1261  NAD1261     0.1244
     38  C3N      -12.6290  -15.4960   29.2310 C.2   1261  NAD1261     0.0544
     39  C7N      -12.2890  -15.6300   30.7390 C.2   1261  NAD1261     0.2818
     40  O7N      -12.6670  -14.7910   31.5500 O.2   1261  NAD1261    -0.2670
     41  N7N      -11.6080  -16.7140   31.1010 N.am  1261  NAD1261    -0.0839
     42  C4N      -13.1070  -14.2980   28.6810 C.2   1261  NAD1261     0.0033
     43  C5N      -13.4310  -14.2150   27.3160 C.2   1261  NAD1261     0.0157
     44  C6N      -13.2880  -15.3170   26.4620 C.2   1261  NAD1261     0.0633
@<TRIPOS>BOND
     1    18    17    1
     2    19    17    2
     3    19    20    1
     4    17    16    1
     5    20    21    1
     6    34    33    1
     7    16    15    2
     8    16    22    1
     9    32    31    1
    10    15    14    1
    11    21    22    2
    12    22    13    1
    13    33    31    1
    14    33    35    1
    15    31    29    1
    16    14    13    1
    17    13    12    1
    18     7    12    1
    19     7     6    1
    20    35    36    1
    21    35    30    1
    22    29    30    1
    23    29    28    1
    24    12    10    1
    25    44    36    1
    26    44    43    2
    27    36    37    1
    28    28    27    1
    29     6     5    1
    30     6     8    1
    31    43    42    1
    32     5     4    1
    33    10     8    1
    34    10    11    1
    35     3     1    2
    36    37    38    1
    37    27    24    1
    38     8     9    1
    39    42    38    2
    40     4     1    1
    41     1     2    1
    42     1    23    1
    43    38    39    1
    44    24    26    2
    45    24    23    1
    46    24    25    1
    47    39    41   am
    48    39    40    2
