@<TRIPOS>MOLECULE
2jk5_TBA_C_1.pdb
 17 16 0 0 0
SMALL
GASTEIGER

@<TRIPOS>ATOM
      1  N1        -0.0630    0.0130   -7.5300 N.4   1133  TBA1133     0.3899
      2  C11        0.9050   -0.7130   -8.2970 C.3   1133  TBA1133    -0.0730
      3  C12        1.4320   -1.8900   -7.4980 C.3   1133  TBA1133    -0.0223
      4  C21       -0.7980   -0.9010   -6.7120 C.3   1133  TBA1133    -0.0730
      5  C22       -1.7520   -1.6710   -7.6070 C.3   1133  TBA1133    -0.0223
      6  C31       -1.0310    0.7390   -8.2970 C.3   1133  TBA1133    -0.0730
      7  C32       -1.5580    1.9150   -7.4980 C.3   1133  TBA1133    -0.0223
      8  C41        0.6720    0.9260   -6.7110 C.3   1133  TBA1133    -0.0730
      9  C42        1.6260    1.6960   -7.6070 C.3   1133  TBA1133    -0.0223
     10  C13        2.8680   -1.7920   -7.0890 C.3   1133  TBA1133    -0.0021
     11  C14        3.5090   -3.1360   -6.9950 C.3   1133  TBA1133    -0.0001
     12  C23       -1.9460   -3.0330   -7.0150 C.3   1133  TBA1133    -0.0021
     13  C24       -3.3370   -3.5490   -7.0460 C.3   1133  TBA1133    -0.0001
     14  C33       -2.9940    1.8180   -7.0900 C.3   1133  TBA1133    -0.0021
     15  C34       -3.6350    3.1620   -6.9950 C.3   1133  TBA1133    -0.0001
     16  C43        1.8190    3.0580   -7.0150 C.3   1133  TBA1133    -0.0021
     17  C44        3.2110    3.5740   -7.0460 C.3   1133  TBA1133    -0.0001
@<TRIPOS>BOND
     1     2     1    1
     2     2     3    1
     3     6     1    1
     4     6     7    1
     5     9    16    1
     6     9     8    1
     7     5    12    1
     8     5     4    1
     9     1     4    1
    10     1     8    1
    11     3    10    1
    12     7    14    1
    13    14    15    1
    14    10    11    1
    15    13    12    1
    16    17    16    1
