@<TRIPOS>MOLECULE
2jk7_BI6_A_1.pdb
 36 39 0 0 0
SMALL
GASTEIGER

@<TRIPOS>ATOM
      1  C49      110.8170   98.7840   61.8030 C.3   1346  BI61346     0.0018
      2  C9       109.7170   98.1930   62.8130 C.3   1346  BI61346     0.0198
      3  C10      108.4090   97.3610   62.3070 C.3   1346  BI61346     0.0755
      4  N3       108.1430   97.0740   60.7930 N.am  1346  BI61346    -0.2774
      5  C6       109.0010   96.3840   59.8790 C.2   1346  BI61346     0.2455
      6  C5       110.4180   95.7540   60.1720 C.3   1346  BI61346     0.1713
      7  N2       111.0130   94.8310   59.2550 N.am  1346  BI61346    -0.1967
      8  C4       111.6480   93.7600   59.8560 C.2   1346  BI61346     0.2576
      9  C1       112.2870   92.7240   58.9860 C.3   1346  BI61346     0.1504
     10  C2       111.4380   91.4060   59.0430 C.3   1346  BI61346     0.0268
     11  C3       109.9960   91.5730   58.4900 C.3   1346  BI61346     0.0020
     12  N1       113.6600   92.5470   59.4900 N.3   1346  BI61346    -0.2087
     13  O1       111.7190   93.5930   61.1060 O.2   1346  BI61346    -0.2718
     14  C7       111.4010   96.7410   60.5290 C.3   1346  BI61346     0.0310
     15  C8       111.3140   97.9740   60.6810 C.3   1346  BI61346     0.0023
     16  O2       108.6390   96.2320   58.6680 O.2   1346  BI61346    -0.2730
     17  C13      106.8590   97.5860   60.2320 C.3   1346  BI61346     0.1226
     18  C14      107.0080   98.9570   59.5450 C.3   1346  BI61346     0.2443
     19  O3       108.1290   99.4610   59.5120 O.3   1346  BI61346    -0.2018
     20  N4       106.2580   98.5770   58.4020 N.3   1346  BI61346    -0.1803
     21  C15      106.0630   99.6790   57.3870 C.3   1346  BI61346     0.1197
     22  C17      105.2960  100.9950   57.9330 C.ar  1346  BI61346    -0.0023
     23  C18      105.5460  102.3180   57.2890 C.ar  1346  BI61346    -0.0026
     24  C26      114.8390   93.2990   59.3980 C.3   1346  BI61346     0.1080
     25  C19      104.8570  103.5010   57.7740 C.ar  1346  BI61346    -0.0003
     26  C20      103.9270  103.4230   58.8760 C.ar  1346  BI61346    -0.0000
     27  C21      103.6660  102.1420   59.5190 C.ar  1346  BI61346    -0.0003
     28  C22      104.3420  100.9350   59.0530 C.ar  1346  BI61346    -0.0026
     29  C16      105.2570   99.1020   56.1840 C.ar  1346  BI61346    -0.0023
     30  C23      103.9930   99.6270   55.6330 C.ar  1346  BI61346    -0.0026
     31  C24      103.3640   99.0050   54.5210 C.ar  1346  BI61346    -0.0003
     32  C25      103.9700   97.8520   53.9240 C.ar  1346  BI61346    -0.0000
     33  C27      105.8330   97.9450   55.5640 C.ar  1346  BI61346    -0.0026
     34  C28      105.2100   97.3160   54.4450 C.ar  1346  BI61346    -0.0003
     35  C12      106.0870   97.2360   61.4330 C.3   1346  BI61346     0.0256
     36  C11      107.0650   97.9030   62.5650 C.3   1346  BI61346     0.0216
@<TRIPOS>BOND
     1    32    34   ar
     2    32    31   ar
     3    34    33   ar
     4    31    30   ar
     5    33    29   ar
     6    30    29   ar
     7    29    21    1
     8    23    25   ar
     9    23    22   ar
    10    21    22    1
    11    21    20    1
    12    25    26   ar
    13    22    28   ar
    14    20    18    1
    15    11    10    1
    16    16     5    2
    17    26    27   ar
    18     9    10    1
    19     9    12    1
    20     9     8    1
    21    28    27   ar
    22     7     8   am
    23     7     6    1
    24    24    12    1
    25    19    18    1
    26    18    17    1
    27     8    13    2
    28     5     6    1
    29     5     4   am
    30     6    14    1
    31    17     4    1
    32    17    35    1
    33    14    15    1
    34    15     1    1
    35     4     3    1
    36    35    36    1
    37     1     2    1
    38     3    36    1
    39     3     2    1
