@<TRIPOS>MOLECULE
2jkb_SKD_A_1.pdb
 20 21 0 0 0
SMALL
GASTEIGER

@<TRIPOS>ATOM
      1  C1        -3.0960   -5.8910  -33.0570 C.2   1698  SKD1698     0.4152
      2  C2        -3.6140   -6.2680  -34.4220 C.3   1698  SKD1698     0.2863
      3  C3        -3.0300   -7.5670  -35.0130 C.3   1698  SKD1698     0.1028
      4  C4        -4.0250   -8.2720  -35.9210 C.3   1698  SKD1698     0.1797
      5  C5        -4.7350   -7.2220  -36.7680 C.3   1698  SKD1698     0.1553
      6  C6        -5.3310   -6.1260  -35.8530 C.3   1698  SKD1698     0.1701
      7  C7        -4.5050   -4.8480  -35.9760 C.3   1698  SKD1698     0.1798
      8  C8        -5.1650   -3.5810  -35.3890 C.3   1698  SKD1698     0.2142
      9  C9        -6.3560   -3.1410  -36.2350 C.3   1698  SKD1698     0.2174
     10  C10       -5.8300   -7.3480  -38.9210 C.2   1698  SKD1698     0.2420
     11  C11       -6.8080   -8.0730  -39.7790 C.3   1698  SKD1698     0.0964
     12  N5        -5.6640   -7.8410  -37.7000 N.am  1698  SKD1698    -0.2020
     13  O1A       -3.8330   -5.1470  -32.3510 O.co2 1698  SKD1698    -0.2402
     14  O1B       -1.9720   -6.2650  -32.7080 O.co2 1698  SKD1698    -0.2402
     15  O4        -3.3450   -9.2210  -36.7460 O.3   1698  SKD1698    -0.2210
     16  O6        -5.0400   -6.3760  -34.4800 O.3   1698  SKD1698    -0.3240
     17  O7        -3.2760   -5.1850  -35.2860 O.3   1698  SKD1698    -0.3232
     18  O8        -5.6100   -3.7070  -34.0270 O.3   1698  SKD1698    -0.2176
     19  O9        -7.5080   -3.9460  -35.9870 O.3   1698  SKD1698    -0.2175
     20  O10       -5.2170   -6.3740  -39.3230 O.2   1698  SKD1698    -0.2733
@<TRIPOS>BOND
     1    11    10    1
     2    20    10    2
     3    10    12   am
     4    12     5    1
     5     5     4    1
     6     5     6    1
     7    15     4    1
     8     9    19    1
     9     9     8    1
    10     7     6    1
    11     7     8    1
    12     7    17    1
    13     4     3    1
    14     6    16    1
    15     8    18    1
    16    17     2    1
    17     3     2    1
    18    16     2    1
    19     2     1    1
    20     1    14   ar
    21     1    13   ar
