@<TRIPOS>MOLECULE
2jkc_TRP_A_1.pdb
 15 16 0 0 0
SMALL
GASTEIGER

@<TRIPOS>ATOM
      1  N          6.2570    4.7270  -12.4940 N.3   1520  TRP1520    -0.1205
      2  CA         6.3290    4.6460  -13.9790 C.3   1520  TRP1520     0.1987
      3  C          5.4100    3.5560  -14.5210 C.2   1520  TRP1520     0.3822
      4  O          5.5750    2.3350  -14.2450 O.co2 1520  TRP1520    -0.2440
      5  CB         7.7660    4.4070  -14.4230 C.3   1520  TRP1520     0.0585
      6  CG         7.9650    4.6710  -15.8800 C.2   1520  TRP1520     0.0001
      7  CD1        7.9460    5.8930  -16.5030 C.2   1520  TRP1520     0.0946
      8  CD2        8.2210    3.6940  -16.9090 C.2   1520  TRP1520     0.0113
      9  NE1        8.1640    5.7370  -17.8500 N.2   1520  TRP1520    -0.2442
     10  CE2        8.3480    4.4050  -18.1320 C.2   1520  TRP1520     0.0804
     11  CE3        8.3620    2.2940  -16.9150 C.2   1520  TRP1520    -0.0202
     12  CZ2        8.6060    3.7590  -19.3660 C.2   1520  TRP1520     0.0148
     13  CZ3        8.6320    1.6440  -18.1470 C.3   1520  TRP1520     0.0521
     14  CH2        8.7510    2.3850  -19.3540 C.2   1520  TRP1520    -0.0199
     15  OXT        4.4580    3.8730  -15.2280 O.co2 1520  TRP1520    -0.2440
@<TRIPOS>BOND
     1    12    14    2
     2    12    10    1
     3    14    13    1
     4    13    11    1
     5    10     9    2
     6    10     8    1
     7     9     7    1
     8    11     8    2
     9     8     6    1
    10     7     6    2
    11     6     5    1
    12    15     3   ar
    13     3     4   ar
    14     3     2    1
    15     5     2    1
    16     2     1    1
