@<TRIPOS>MOLECULE
2jke_NOJ_A_1.pdb
 11 11 0 0 0
SMALL
GASTEIGER

@<TRIPOS>ATOM
      1  C1        23.5560   44.2570   68.6290 C.3   1727  NOJ1727     0.1243
      2  C2        23.2300   43.2230   69.7220 C.3   1727  NOJ1727     0.2020
      3  O2        22.5830   43.8930   70.7790 O.3   1727  NOJ1727    -0.2188
      4  C3        24.5590   42.6270   70.2120 C.3   1727  NOJ1727     0.2151
      5  O3        24.3790   41.8000   71.3270 O.3   1727  NOJ1727    -0.2176
      6  C4        25.1710   41.8020   69.0820 C.3   1727  NOJ1727     0.2031
      7  O4        26.4550   41.3620   69.5490 O.3   1727  NOJ1727    -0.2187
      8  C5        25.3890   42.7210   67.8600 C.3   1727  NOJ1727     0.1386
      9  N5        24.2380   43.5920   67.5090 N.3   1727  NOJ1727    -0.2113
     10  C6        25.7250   41.9230   66.5930 C.3   1727  NOJ1727     0.2020
     11  O6        24.6290   41.0330   66.2910 O.3   1727  NOJ1727    -0.2188
@<TRIPOS>BOND
     1    11    10    1
     2    10     8    1
     3     9     8    1
     4     9     1    1
     5     8     6    1
     6     1     2    1
     7     6     7    1
     8     6     4    1
     9     2     4    1
    10     2     3    1
    11     4     5    1
