@<TRIPOS>MOLECULE
2jkh_BI7_A_1.pdb
 31 35 0 0 0
SMALL
GASTEIGER

@<TRIPOS>ATOM
      1  O13       -3.3790   10.1460   22.3380 O.2   1244  BI71244    -0.2744
      2  C6        -3.9410   11.1580   21.9180 C.2   1244  BI71244     0.2331
      3  N12       -4.9910   11.0850   21.0360 N.am  1244  BI71244    -0.2299
      4  C19       -5.8800    9.9090   21.1480 C.3   1244  BI71244     0.0987
      5  C21       -5.5610    9.1700   19.8540 C.3   1244  BI71244    -0.0003
      6  C23       -6.3260    7.8750   19.6540 C.3   1244  BI71244    -0.0715
      7  N29       -6.0510    7.1990   18.3700 N.4   1244  BI71244     0.3857
      8  C30       -4.6370    6.8540   18.2010 C.3   1244  BI71244    -0.0960
      9  C31       -6.7910    5.9390   18.3930 C.3   1244  BI71244    -0.0960
     10  C32       -6.5190    7.9920   17.2120 C.3   1244  BI71244    -0.0960
     11  C2        -3.5440   12.5840   22.2200 C.3   1244  BI71244     0.1074
     12  C1        -3.3790   12.9840   23.6880 C.3   1244  BI71244     0.1106
     13  N3        -4.7170   13.3720   24.1640 N.3   1244  BI71244    -0.2694
     14  C8        -4.6370   14.4120   25.2040 C.3   1244  BI71244     0.0724
     15  C15       -4.7100   15.7650   24.5000 C.3   1244  BI71244     0.0187
     16  C14       -5.1380   15.4870   23.0620 C.3   1244  BI71244     0.0179
     17  C7        -5.3720   13.9770   22.9790 C.3   1244  BI71244     0.0670
     18  C5        -4.7430   13.3810   21.7340 C.3   1244  BI71244     0.1020
     19  C11       -5.5910   12.3290   21.0820 C.2   1244  BI71244     0.2327
     20  O18       -6.6970   12.5320   20.5910 O.2   1244  BI71244    -0.2744
     21  C4        -2.5260   12.0300   24.4490 C.ar  1244  BI71244     0.1156
     22  C16       -3.0640   11.1180   25.3850 C.ar  1244  BI71244     0.0600
     23  N9        -1.1850   11.9120   24.2960 N.ar  1244  BI71244    -0.0800
     24  O10       -0.8190   10.8700   25.1950 O.2   1244  BI71244    -0.3532
     25  C17       -1.9190   10.4620   25.8600 C.ar  1244  BI71244     0.1826
     26  C20       -1.8730    9.3760   26.7280 C.ar  1244  BI71244     0.0674
     27  C22       -2.7630    9.0540   27.7450 C.ar  1244  BI71244     0.0110
     28  C24       -2.4110    7.8370   28.3300 C.ar  1244  BI71244     0.0186
     29  S1        -0.5750    8.2640   26.4200 S.2   1244  BI71244    -0.0723
     30  C25       -1.2890    7.3390   27.6830 C.ar  1244  BI71244     0.0871
     31 CL1        -0.4950    5.7740   28.1070 Cl    1244  BI71244    -0.0752
@<TRIPOS>BOND
     1    10     7    1
     2     8     7    1
     3     7     9    1
     4     7     6    1
     5     6     5    1
     6     5     4    1
     7    20    19    2
     8     3    19   am
     9     3     4    1
    10     3     2   am
    11    19    18    1
    12    18    11    1
    13    18    17    1
    14     2    11    1
    15     2     1    2
    16    11    12    1
    17    17    16    1
    18    17    13    1
    19    16    15    1
    20    12    13    1
    21    12    21    1
    22    13    14    1
    23    23    21   ar
    24    23    24   ar
    25    21    22   ar
    26    15    14    1
    27    24    25   ar
    28    22    25   ar
    29    25    26    1
    30    29    26   ar
    31    29    30   ar
    32    26    27   ar
    33    30    31    1
    34    30    28   ar
    35    27    28   ar
