@<TRIPOS>MOLECULE
2jki_ADP_A_1.pdb
 27 29 0 0 0
SMALL
GASTEIGER

@<TRIPOS>ATOM
      1  PB        68.6960  -42.3860   11.0800 P.3   1218  ADP1218     0.5373
      2  O1B       68.5230  -42.1780   12.5600 O.3   1218  ADP1218    -0.1143
      3  O2B       67.9640  -43.6520   10.6560 O.3   1218  ADP1218    -0.1143
      4  O3B       70.1340  -42.0750   10.5710 O.2   1218  ADP1218    -0.2221
      5  PA        68.0560  -40.6940    8.9560 P.3   1218  ADP1218     0.2231
      6  O1A       67.1750  -39.5120    8.6540 O.2   1218  ADP1218    -0.5169
      7  O2A       69.5660  -40.5340    9.0140 O.3   1218  ADP1218    -0.4370
      8  O3A       67.7400  -41.2540   10.4390 O.3   1218  ADP1218    -0.2261
      9  O5'       67.5550  -41.9020    7.9850 O.3   1218  ADP1218    -0.3111
     10  C5'       66.3520  -42.6310    8.2880 C.3   1218  ADP1218     0.1813
     11  C4'       66.1050  -43.8560    7.4040 C.3   1218  ADP1218     0.1821
     12  O4'       66.4280  -43.5800    6.0420 O.3   1218  ADP1218    -0.3135
     13  C3'       66.9540  -45.0520    7.8070 C.3   1218  ADP1218     0.2184
     14  O3'       66.2910  -45.9050    8.7570 O.3   1218  ADP1218    -0.2174
     15  C2'       67.2970  -45.7370    6.4880 C.3   1218  ADP1218     0.2570
     16  O2'       66.5140  -46.9010    6.2200 O.3   1218  ADP1218    -0.2130
     17  C1'       66.9590  -44.7400    5.4050 C.3   1218  ADP1218     0.3186
     18  N9        68.1850  -44.3970    4.6440 N.pl3 1218  ADP1218    -0.1439
     19  C8        68.7470  -43.1740    4.5710 C.3   1218  ADP1218     0.3377
     20  N7        69.8550  -43.1560    3.7840 N.2   1218  ADP1218    -0.2095
     21  C5        70.0070  -44.4160    3.3360 C.2   1218  ADP1218     0.2526
     22  C6        70.9860  -45.0950    2.4610 C.2   1218  ADP1218     0.4393
     23  N6        72.0180  -44.3920    1.9130 N.pl3 1218  ADP1218     0.2180
     24  N1        70.8090  -46.4160    2.2390 N.2   1218  ADP1218     0.0021
     25  C2        69.7780  -47.0720    2.8010 C.3   1218  ADP1218     0.5254
     26  N3        68.8550  -46.5240    3.6100 N.2   1218  ADP1218    -0.0055
     27  C4        68.9180  -45.2210    3.9100 C.2   1218  ADP1218     0.3518
@<TRIPOS>BOND
     1    23    22    1
     2    24    22    2
     3    24    25    1
     4    22    21    1
     5    25    26    1
     6    21    20    2
     7    21    27    1
     8    26    27    2
     9    20    19    1
    10    27    18    1
    11    19    18    1
    12    18    17    1
    13    17    12    1
    14    17    15    1
    15    12    11    1
    16    16    15    1
    17    15    13    1
    18    11    13    1
    19    11    10    1
    20    13    14    1
    21     9    10    1
    22     9     5    1
    23     6     5    2
    24     5     7    1
    25     5     8    1
    26     8     1    1
    27     4     1    2
    28     3     1    1
    29     1     2    1
