@<TRIPOS>MOLECULE
2jkj_CLM_A_1.pdb
 20 20 0 0 0
SMALL
GASTEIGER

@<TRIPOS>ATOM
      1  C1        38.5650   37.8440  -10.3060 C.3   1141  CLM1141     0.2356
      2 CL1        38.9760   38.2010   -8.5980 Cl    1141  CLM1141    -0.0870
      3 CL2        38.9870   36.1640  -10.7270 Cl    1141  CLM1141    -0.0870
      4  C2        39.3470   38.8740  -11.2180 C.2   1141  CLM1141     0.2720
      5  O2        40.4020   39.4030  -10.8310 O.2   1141  CLM1141    -0.2706
      6  N2        38.7930   39.0750  -12.3540 N.am  1141  CLM1141    -0.1994
      7  C3        39.3690   39.9930  -13.3450 C.3   1141  CLM1141     0.1626
      8  C4        38.5890   41.3190  -13.3280 C.3   1141  CLM1141     0.2065
      9  O4        39.4040   42.4250  -12.8710 O.3   1141  CLM1141    -0.2184
     10  C5        39.3710   39.3130  -14.7270 C.3   1141  CLM1141     0.1966
     11  O5        37.9960   39.0770  -15.0310 O.3   1141  CLM1141    -0.2163
     12  C6        40.1740   38.0300  -14.6790 C.ar  1141  CLM1141     0.0096
     13  C7        41.5450   38.0810  -14.4040 C.ar  1141  CLM1141    -0.0001
     14  C8        42.2980   36.8850  -14.3620 C.ar  1141  CLM1141     0.0238
     15  C9        41.5980   35.6980  -14.6030 C.ar  1141  CLM1141     0.1429
     16  N9        42.3780   34.4170  -14.5650 N.pl3 1141  CLM1141     0.0577
     17  O9A       41.7260   33.3900  -14.7840 O.2   1141  CLM1141    -0.1261
     18  O9B       43.5630   34.4620  -14.3290 O.2   1141  CLM1141    -0.1261
     19  C10       40.2640   35.6450  -14.8680 C.ar  1141  CLM1141     0.0238
     20  C11       39.5290   36.8180  -14.9100 C.ar  1141  CLM1141    -0.0001
@<TRIPOS>BOND
     1    11    10    1
     2    20    19   ar
     3    20    12   ar
     4    19    15   ar
     5    17    16    2
     6    10    12    1
     7    10     7    1
     8    12    13   ar
     9    15    16    1
    10    15    14   ar
    11    16    18    2
    12    13    14   ar
    13     7     8    1
    14     7     6    1
    15     8     9    1
    16     6     4   am
    17     4     5    2
    18     4     1    1
    19     3     1    1
    20     1     2    1
