@<TRIPOS>MOLECULE
2jkj_TH8_B_1.pdb
 21 21 0 0 0
SMALL
GASTEIGER

@<TRIPOS>ATOM
      1  C1        -6.0010   37.4520   -1.2200 C.3   1142  TH81142     0.2356
      2 CL1        -7.7720   37.3950   -0.9660 Cl    1142  TH81142    -0.0870
      3 CL2        -5.2330   35.9650   -0.5610 Cl    1142  TH81142    -0.0870
      4  C2        -5.6390   37.6210   -2.7580 C.2   1142  TH81142     0.2720
      5  O2        -5.4660   36.6290   -3.4980 O.2   1142  TH81142    -0.2706
      6  N2        -5.5910   38.8530   -3.0990 N.am  1142  TH81142    -0.1994
      7  C3        -5.3070   39.1300   -4.4870 C.3   1142  TH81142     0.1626
      8  C4        -3.8910   39.6860   -4.6940 C.3   1142  TH81142     0.2065
      9  O4        -2.8560   38.6790   -4.7800 O.3   1142  TH81142    -0.2184
     10  C5        -6.4820   40.0040   -5.0080 C.3   1142  TH81142     0.1966
     11  O5        -6.3410   41.2510   -4.3360 O.3   1142  TH81142    -0.2163
     12  C6        -7.7820   39.2750   -4.7020 C.ar  1142  TH81142     0.0096
     13  C7        -8.0770   38.0410   -5.3000 C.ar  1142  TH81142    -0.0005
     14  C8        -9.3020   37.3860   -4.9900 C.ar  1142  TH81142     0.0181
     15  C9       -10.1600   38.0210   -4.0830 C.ar  1142  TH81142     0.1057
     16  O9A      -12.5260   38.2720   -3.3100 O.2   1142  TH81142    -0.1686
     17  O9B      -11.9380   36.4290   -4.8770 O.2   1142  TH81142    -0.1686
     18  C10       -9.8740   39.2220   -3.4970 C.ar  1142  TH81142     0.0181
     19  C11       -8.6750   39.8620   -3.8050 C.ar  1142  TH81142    -0.0005
     20  C12      -11.2590   36.1300   -2.2940 C.3   1142  TH81142     0.1816
     21  S12      -11.6880   37.1920   -3.7030 S.O2  1142  TH81142     0.0104
@<TRIPOS>BOND
     1    13    14   ar
     2    13    12   ar
     3    10    12    1
     4    10     7    1
     5    10    11    1
     6    14    15   ar
     7    17    21    2
     8     9     8    1
     9    12    19   ar
    10     8     7    1
    11     7     6    1
    12    15    21    1
    13    15    18   ar
    14    19    18   ar
    15    21    16    2
    16    21    20    1
    17     5     4    2
    18     6     4   am
    19     4     1    1
    20     1     2    1
    21     1     3    1
