@<TRIPOS>MOLECULE
2jkk_BI9_A_1.pdb
 33 36 0 0 0
SMALL
GASTEIGER

@<TRIPOS>ATOM
      1  CBC        9.0410   -2.7190   32.0490 C.3   1686  BI91686     0.1231
      2  CBE       10.2130   -2.9610   33.0220 C.3   1686  BI91686     0.1636
      3  OBG       11.3040   -3.5690   32.3390 O.3   1686  BI91686    -0.3501
      4  CBF       11.8660   -2.6670   31.3900 C.3   1686  BI91686     0.1636
      5  CBD       10.8670   -2.2280   30.3140 C.3   1686  BI91686     0.1231
      6  NBB        9.4790   -2.0480   30.8040 N.pl3 1686  BI91686    -0.3027
      7  CBA        8.5740   -1.2030   30.0720 C.ar  1686  BI91686     0.0511
      8  CAY        7.2790   -0.9350   30.5310 C.ar  1686  BI91686     0.0528
      9  CAS        6.3970   -0.1130   29.8000 C.ar  1686  BI91686     0.1559
     10  OAT        5.1280    0.1660   30.2020 O.3   1686  BI91686    -0.4700
     11  CAU        4.7900   -0.5600   31.3940 C.3   1686  BI91686     0.2525
     12  CAX        8.9970   -0.6060   28.8740 C.ar  1686  BI91686     0.0161
     13  CAR        8.1160    0.2040   28.1470 C.ar  1686  BI91686     0.0217
     14  CAL        6.8140    0.4680   28.6080 C.ar  1686  BI91686     0.1165
     15  NAH        5.9230    1.2440   27.9650 N.pl3 1686  BI91686    -0.1326
     16  C2         6.2010    2.3770   27.2920 C.1   1686  BI91686     0.1711
     17  N3         7.4540    2.8240   27.1340 N.2   1686  BI91686    -0.3180
     18  N1         5.1990    3.0670   26.7550 N.2   1686  BI91686    -0.1674
     19  C6         5.4270    4.1840   26.0740 C.2   1686  BI91686     0.1271
     20  C5         6.7110    4.6620   25.8790 C.2   1686  BI91686     0.1241
     21 CL5         6.9780    6.1210   24.9630 Cl    1686  BI91686    -0.0764
     22  C4         7.7720    3.9310   26.4160 C.2   1686  BI91686     0.2283
     23  NAE        9.0490    4.3410   26.2290 N.pl3 1686  BI91686    -0.1819
     24  CAJ       10.1860    3.7000   26.5900 C.ar  1686  BI91686     0.0775
     25  CAQ       10.3770    3.3480   27.9430 C.ar  1686  BI91686     0.0167
     26  CAW       11.5180    2.6950   28.3730 C.ar  1686  BI91686     0.0013
     27  CAZ       12.5330    2.4170   27.4570 C.ar  1686  BI91686     0.0002
     28  CAV       12.3700    2.7740   26.1200 C.ar  1686  BI91686     0.0059
     29  CAP       11.2100    3.4050   25.6740 C.ar  1686  BI91686     0.0703
     30  CAO       11.1170    3.7550   24.1830 C.2   1686  BI91686     0.2661
     31  OAI       10.3950    4.6710   23.8180 O.2   1686  BI91686    -0.2683
     32  NAN       11.8370    2.9880   23.3590 N.am  1686  BI91686    -0.1997
     33  CAM       11.8190    3.3030   21.9240 C.3   1686  BI91686     0.1388
@<TRIPOS>BOND
     1    33    32    1
     2    32    30   am
     3    31    30    2
     4    30    29    1
     5    21    20    1
     6    29    28   ar
     7    29    24   ar
     8    20    19    2
     9    20    22    1
    10    19    18    1
    11    28    27   ar
    12    23    22    1
    13    23    24    1
    14    22    17    2
    15    24    25   ar
    16    18    16    2
    17    17    16    2
    18    16    15    1
    19    27    26   ar
    20    25    26   ar
    21    15    14    1
    22    13    14   ar
    23    13    12   ar
    24    14     9   ar
    25    12     7   ar
    26     9    10    1
    27     9     8   ar
    28     7     8   ar
    29     7     6    1
    30    10    11    1
    31     5     6    1
    32     5     4    1
    33     6     1    1
    34     4     3    1
    35     1     2    1
    36     3     2    1
