@<TRIPOS>MOLECULE
2jkl_CLM_A_1.pdb
 20 20 0 0 0
SMALL
GASTEIGER

@<TRIPOS>ATOM
      1 CL1        39.0510   38.2950   -8.5920 Cl    1144  CLM1144    -0.0870
      2 CL2        38.7100   36.1830  -10.9770 Cl    1144  CLM1144    -0.0870
      3  C2        39.4210   39.0380  -11.3530 C.2   1144  CLM1144     0.2720
      4  O2        40.3020   39.7000  -10.8560 O.2   1144  CLM1144    -0.2706
      5  N2        39.0750   39.0250  -12.5320 N.am  1144  CLM1144    -0.1994
      6  C3        39.5020   39.8120  -13.6760 C.3   1144  CLM1144     0.1626
      7  C4        39.0730   41.2530  -13.5070 C.3   1144  CLM1144     0.2065
      8  O4        38.1070   41.3970  -14.5820 O.3   1144  CLM1144    -0.2184
      9  C5        39.6860   38.9970  -14.8740 C.3   1144  CLM1144     0.1966
     10  O5        38.3160   39.1340  -15.2960 O.3   1144  CLM1144    -0.2163
     11  C6        40.4370   37.8090  -14.9560 C.ar  1144  CLM1144     0.0096
     12  C7        39.6860   36.6910  -15.2120 C.ar  1144  CLM1144    -0.0001
     13  C8        40.3190   35.4640  -15.2050 C.ar  1144  CLM1144     0.0238
     14  C9        41.6540   35.4160  -14.9370 C.ar  1144  CLM1144     0.1429
     15  N9        42.3450   34.0840  -14.9370 N.pl3 1144  CLM1144     0.0577
     16  O9A       43.5300   34.0390  -14.7020 O.2   1144  CLM1144    -0.1261
     17  O9B       41.6240   33.1120  -15.1920 O.2   1144  CLM1144    -0.1261
     18  C10       42.4330   36.5440  -14.6600 C.ar  1144  CLM1144     0.0238
     19  C11       41.7770   37.7910  -14.6530 C.ar  1144  CLM1144    -0.0001
     20  C1        38.4730   38.1310  -10.5290 C.3   1144  CLM1144     0.2356
@<TRIPOS>BOND
     1    10     9    1
     2    12    13   ar
     3    12    11   ar
     4    13    14   ar
     5    17    15    2
     6    11     9    1
     7    11    19   ar
     8    15    14    1
     9    15    16    2
    10    14    18   ar
    11     9     6    1
    12    18    19   ar
    13     8     7    1
    14     6     7    1
    15     6     5    1
    16     5     3   am
    17     3     4    2
    18     3    20    1
    19     2    20    1
    20    20     1    1
