@<TRIPOS>MOLECULE
2jkl_BRX_A_1.pdb
 20 20 0 0 0
SMALL
GASTEIGER

@<TRIPOS>ATOM
      1  O2        40.5200   38.9720  -11.1720 O.2   1143  BRX1143    -0.2715
      2  C2        39.3760   38.9090  -11.4250 C.2   1143  BRX1143     0.2626
      3  N2        38.8730   39.3990  -12.5160 N.am  1143  BRX1143    -0.2000
      4  C3        39.5480   39.8790  -13.7240 C.3   1143  BRX1143     0.1626
      5  C4        39.6060   41.3760  -13.7230 C.3   1143  BRX1143     0.2065
      6  O4        38.1820   41.5700  -13.9400 O.3   1143  BRX1143    -0.2184
      7  C5        39.5540   38.9150  -14.8000 C.3   1143  BRX1143     0.1966
      8  O5        38.1680   38.9680  -15.0970 O.3   1143  BRX1143    -0.2163
      9  C6        40.3650   37.7920  -14.9760 C.ar  1143  BRX1143     0.0096
     10  C11       39.6390   36.6480  -15.1150 C.ar  1143  BRX1143    -0.0001
     11  C10       40.3510   35.3670  -15.1540 C.ar  1143  BRX1143     0.0238
     12  C9        41.7300   35.3630  -15.0410 C.ar  1143  BRX1143     0.1429
     13  N9        42.4750   34.0860  -15.0840 N.pl3 1143  BRX1143     0.0577
     14  O9B       43.6880   34.0850  -14.9880 O.2   1143  BRX1143    -0.1261
     15  O9A       41.8720   33.0340  -15.2190 O.2   1143  BRX1143    -0.1261
     16  C8        42.4150   36.5520  -14.8940 C.ar  1143  BRX1143     0.0238
     17  C7        41.6960   37.8260  -14.8340 C.ar  1143  BRX1143    -0.0001
     18  C1        38.6940   38.1350  -10.4700 C.3   1143  BRX1143     0.1907
     19 BR1        38.4220   36.1980  -10.6560 Br    1143  BRX1143    -0.0591
     20 BR2        38.9240   38.6150   -8.5720 Br    1143  BRX1143    -0.0591
@<TRIPOS>BOND
     1    15    13    2
     2    11    10   ar
     3    11    12   ar
     4    10     9   ar
     5     8     7    1
     6    13    12    1
     7    13    14    2
     8    12    16   ar
     9     9    17   ar
    10     9     7    1
    11    16    17   ar
    12     7     4    1
    13     6     5    1
    14     4     5    1
    15     4     3    1
    16     3     2   am
    17     2     1    2
    18     2    18    1
    19    19    18    1
    20    18    20    1
