@<TRIPOS>MOLECULE
2jkm_BII_A_1.pdb
 37 40 0 0 0
SMALL
GASTEIGER

@<TRIPOS>ATOM
      1  CAI       10.8430    3.2190   22.2240 C.3   1687  BII1687     0.0208
      2  CAN       11.2370    3.3060   23.6990 C.3   1687  BII1687     0.0978
      3  CAW       12.2500    2.1940   23.9810 C.3   1687  BII1687     0.0208
      4  NAO       11.8170    4.6430   23.9950 N.3   1687  BII1687    -0.0792
      5  SAP       11.3420    5.4670   25.3700 S.O2  1687  BII1687     0.0780
      6  OAX       12.3910    6.4570   25.7840 O.2   1687  BII1687    -0.1516
      7  OAJ       10.0920    6.2350   25.0780 O.2   1687  BII1687    -0.1516
      8  CAQ       11.1320    4.3470   26.7280 C.ar  1687  BII1687     0.1387
      9  CAY       12.2990    3.8090   27.2890 C.ar  1687  BII1687     0.0213
     10  CBC       12.2380    2.9140   28.3560 C.ar  1687  BII1687     0.0015
     11  CAZ       10.9940    2.5530   28.8630 C.ar  1687  BII1687     0.0014
     12  CAR        9.8270    3.0940   28.3060 C.ar  1687  BII1687     0.0180
     13  CAK        9.8690    3.9870   27.2300 C.ar  1687  BII1687     0.0917
     14  NAE        8.7390    4.5150   26.6990 N.pl3 1687  BII1687    -0.1807
     15  C4         7.5040    3.9590   26.6490 C.2   1687  BII1687     0.2283
     16  N3         7.1990    2.7680   27.2170 N.2   1687  BII1687    -0.3180
     17  C5         6.4860    4.6450   25.9870 C.2   1687  BII1687     0.1241
     18 CL5         6.8310    6.1870   25.2660 Cl    1687  BII1687    -0.0764
     19  C6         5.2080    4.0800   25.9090 C.2   1687  BII1687     0.1271
     20  N1         4.9730    2.8930   26.4690 N.2   1687  BII1687    -0.1674
     21  C2         5.9580    2.2340   27.1170 C.1   1687  BII1687     0.1711
     22  NAH        5.6800    1.0490   27.6680 N.pl3 1687  BII1687    -0.1326
     23  CAM        6.5180    0.3440   28.4420 C.ar  1687  BII1687     0.1165
     24  CAT        6.0090   -0.2050   29.6220 C.ar  1687  BII1687     0.1559
     25  CBB        6.8440   -0.9660   30.4450 C.ar  1687  BII1687     0.0528
     26  OAU        4.6990    0.0170   29.9350 O.3   1687  BII1687    -0.4700
     27  CAV        4.2800   -0.4360   31.2360 C.3   1687  BII1687     0.2525
     28  CAS        7.8610    0.1010   28.0930 C.ar  1687  BII1687     0.0217
     29  CBA        8.6940   -0.6580   28.9260 C.ar  1687  BII1687     0.0161
     30  CBD        8.1800   -1.2040   30.1130 C.ar  1687  BII1687     0.0510
     31  NBE        8.9210   -1.9480   30.9490 N.pl3 1687  BII1687    -0.3059
     32  CBG       10.3390   -2.3010   30.8130 C.3   1687  BII1687     0.1081
     33  CBF        8.3990   -2.5560   32.1730 C.3   1687  BII1687     0.0923
     34  CBH        9.6340   -2.8130   33.0270 C.3   1687  BII1687     0.0405
     35  CBI       10.7630   -2.1250   32.2680 C.3   1687  BII1687     0.0942
     36  NBJ       12.0840   -2.7150   32.6260 N.3   1687  BII1687    -0.2162
     37  CBK       12.7050   -3.5350   31.5410 C.3   1687  BII1687     0.1075
@<TRIPOS>BOND
     1     1     2    1
     2     2     3    1
     3     2     4    1
     4     4     5    1
     5     7     5    2
     6    18    17    1
     7     5     6    2
     8     5     8    1
     9    19    17    2
    10    19    20    1
    11    17    15    1
    12    20    21    2
    13    15    14    1
    14    15    16    2
    15    14    13    1
    16     8    13   ar
    17     8     9   ar
    18    21    16    2
    19    21    22    1
    20    13    12   ar
    21     9    10   ar
    22    22    23    1
    23    28    23   ar
    24    28    29   ar
    25    12    11   ar
    26    10    11   ar
    27    23    24   ar
    28    29    30   ar
    29    24    26    1
    30    24    25   ar
    31    26    27    1
    32    30    25   ar
    33    30    31    1
    34    32    31    1
    35    32    35    1
    36    31    33    1
    37    37    36    1
    38    33    34    1
    39    35    36    1
    40    35    34    1
