@<TRIPOS>MOLECULE
2jkn_CL8_A_1.pdb
 27 27 0 0 0
SMALL
GASTEIGER

@<TRIPOS>ATOM
      1  C1        38.4890   38.0670  -10.3340 C.3   1141  CL81141     0.2356
      2 CL1        38.7930   38.4510   -8.6060 Cl    1141  CL81141    -0.0870
      3 CL2        38.7270   36.3430  -10.7120 Cl    1141  CL81141    -0.0870
      4  C2        39.5000   38.9480  -11.1440 C.2   1141  CL81141     0.2720
      5  O2        40.6320   39.1580  -10.6950 O.2   1141  CL81141    -0.2706
      6  N2        39.0290   39.3890  -12.2240 N.am  1141  CL81141    -0.1983
      7  C3        39.5640   40.2600  -13.2960 C.3   1141  CL81141     0.1734
      8  C4        39.1740   41.7310  -13.0620 C.3   1141  CL81141     0.2328
      9  C5        39.7400   39.5760  -14.6110 C.3   1141  CL81141     0.1977
     10  O5        38.4100   39.7700  -15.1300 O.3   1141  CL81141    -0.2163
     11  C6        40.3240   38.2900  -14.7310 C.ar  1141  CL81141     0.0096
     12  C7        41.6390   38.0620  -14.3770 C.ar  1141  CL81141    -0.0001
     13  C8        42.1570   36.7420  -14.4560 C.ar  1141  CL81141     0.0238
     14  C9        41.2600   35.7400  -14.8560 C.ar  1141  CL81141     0.1429
     15  N9        41.7840   34.3380  -14.9540 N.pl3 1141  CL81141     0.0577
     16  O9A       40.9690   33.4940  -15.3170 O.2   1141  CL81141    -0.1261
     17  O9B       42.9340   34.1260  -14.6910 O.2   1141  CL81141    -0.1261
     18  C10       39.9560   35.9670  -15.1550 C.ar  1141  CL81141     0.0238
     19  C11       39.4640   37.2560  -15.0920 C.ar  1141  CL81141    -0.0001
     20  O4        40.0810   42.5240  -12.2630 O.3   1141  CL81141    -0.4465
     21  O15       43.4000   40.2370  -10.8860 O.co2 1141  CL81141    -0.2456
     22  C15       43.7660   41.1890  -10.2370 C.2   1141  CL81141     0.3654
     23  O16       45.0650   41.3350   -9.9340 O.co2 1141  CL81141    -0.2456
     24  C14       42.7660   42.2190   -9.7780 C.3   1141  CL81141     0.1257
     25  C13       41.3580   41.8100  -10.2270 C.3   1141  CL81141     0.1213
     26  C12       41.2390   41.9060  -11.7240 C.2   1141  CL81141     0.3176
     27  O12       42.1000   41.4440  -12.4300 O.2   1141  CL81141    -0.2501
@<TRIPOS>BOND
     1    16    15    2
     2    18    19   ar
     3    18    14   ar
     4    10     9    1
     5    19    11   ar
     6    15    14    1
     7    15    17    2
     8    14    13   ar
     9    11     9    1
    10    11    12   ar
    11     9     7    1
    12    13    12   ar
    13     7     8    1
    14     7     6    1
    15     8    20    1
    16    27    26    2
    17    20    26    1
    18     6     4   am
    19    26    25    1
    20     4     5    2
    21     4     1    1
    22    21    22   ar
    23     3     1    1
    24     1     2    1
    25    22    23   ar
    26    22    24    1
    27    25    24    1
