@<TRIPOS>MOLECULE
2jko_BIJ_A_1.pdb
 35 39 0 0 0
SMALL
GASTEIGER

@<TRIPOS>ATOM
      1  CBD       29.1450   20.0430   31.1850 C.3   1687  BIJ1687     0.1081
      2  CBF       28.1560   19.7580   30.0440 C.3   1687  BIJ1687     0.0938
      3  NBH       26.9130   19.1920   30.5960 N.3   1687  BIJ1687    -0.2686
      4  CBI       26.0570   18.6960   29.5020 C.3   1687  BIJ1687     0.0897
      5  CBG       26.1880   20.2270   31.3640 C.3   1687  BIJ1687     0.0938
      6  CBE       27.0140   20.6490   32.6070 C.3   1687  BIJ1687     0.1081
      7  NBC       28.4980   20.7390   32.3510 N.pl3 1687  BIJ1687    -0.3046
      8  CBA       29.3250   21.4750   33.2520 C.ar  1687  BIJ1687     0.0511
      9  CAW       30.7020   21.5630   33.0320 C.ar  1687  BIJ1687     0.0528
     10  CAQ       31.5390   22.2750   33.9020 C.ar  1687  BIJ1687     0.1559
     11  OAR       32.8870   22.3620   33.6740 O.3   1687  BIJ1687    -0.4700
     12  CAS       33.3070   21.8740   32.3690 C.3   1687  BIJ1687     0.2525
     13  CAV       28.7920   22.1100   34.3810 C.ar  1687  BIJ1687     0.0161
     14  CAP       29.6190   22.8200   35.2580 C.ar  1687  BIJ1687     0.0217
     15  CAL       30.9970   22.9180   35.0220 C.ar  1687  BIJ1687     0.1165
     16  NAH       31.8260   23.5860   35.8480 N.pl3 1687  BIJ1687    -0.1326
     17  C2        31.5480   24.7030   36.5470 C.1   1687  BIJ1687     0.1711
     18  N3        30.2890   25.1830   36.6290 N.2   1687  BIJ1687    -0.3180
     19  N1        32.5560   25.3400   37.1830 N.2   1687  BIJ1687    -0.1674
     20  C6        32.3300   26.4420   37.8920 C.2   1687  BIJ1687     0.1271
     21  C5        31.0340   26.9590   37.9860 C.2   1687  BIJ1687     0.1241
     22 CL5        30.7170   28.3930   38.9100 Cl    1687  BIJ1687    -0.0764
     23  C4        29.9930   26.2940   37.3340 C.2   1687  BIJ1687     0.2283
     24  NAE       28.7270   26.7600   37.4070 N.pl3 1687  BIJ1687    -0.1819
     25  CAJ       27.6420   25.9660   37.3250 C.ar  1687  BIJ1687     0.0772
     26  CAN       26.8080   25.7410   38.4390 C.ar  1687  BIJ1687     0.0665
     27  CAM       26.8420   26.1850   39.7730 C.2   1687  BIJ1687     0.2503
     28  OAI       27.7000   26.9420   40.2350 O.2   1687  BIJ1687    -0.2699
     29  NAU       25.8270   25.6810   40.4920 N.am  1687  BIJ1687    -0.2702
     30  CAT       25.5580   25.9420   41.9300 C.3   1687  BIJ1687     0.1155
     31  CAX       24.9790   24.8300   39.6490 C.3   1687  BIJ1687     0.1207
     32  CAY       25.6890   24.9050   38.2970 C.ar  1687  BIJ1687     0.0033
     33  CBB       25.3960   24.3060   37.0710 C.ar  1687  BIJ1687    -0.0024
     34  CAZ       26.2180   24.5330   35.9680 C.ar  1687  BIJ1687     0.0011
     35  CAO       27.3310   25.3640   36.0980 C.ar  1687  BIJ1687     0.0167
@<TRIPOS>BOND
     1     4     3    1
     2     2     3    1
     3     2     1    1
     4     3     5    1
     5     1     7    1
     6     5     6    1
     7     7     6    1
     8     7     8    1
     9    12    11    1
    10     9     8   ar
    11     9    10   ar
    12     8    13   ar
    13    11    10    1
    14    10    15   ar
    15    13    14   ar
    16    15    14   ar
    17    15    16    1
    18    16    17    1
    19    34    35   ar
    20    34    33   ar
    21    35    25   ar
    22    17    18    2
    23    17    19    2
    24    18    23    2
    25    33    32   ar
    26    19    20    1
    27    25    24    1
    28    25    26   ar
    29    23    24    1
    30    23    21    1
    31    20    21    2
    32    21    22    1
    33    32    26   ar
    34    32    31    1
    35    26    27    1
    36    31    29    1
    37    27    28    2
    38    27    29   am
    39    29    30    1
