@<TRIPOS>MOLECULE
2jkp_CTS_A_1.pdb
 13 14 0 0 0
SMALL
GASTEIGER

@<TRIPOS>ATOM
      1  C1        22.1680   43.8310   69.9760 C.3   1727  CTS1727     0.1082
      2  C2        21.7770   42.8910   71.1310 C.3   1727  CTS1727     0.2006
      3  C3        23.0400   42.2660   71.7000 C.3   1727  CTS1727     0.2150
      4  C4        23.6740   41.4420   70.5660 C.3   1727  CTS1727     0.2017
      5  C5        24.1760   42.3380   69.4610 C.3   1727  CTS1727     0.1215
      6  C6        24.4800   41.6390   68.1540 C.3   1727  CTS1727     0.1704
      7  O2        21.0420   43.7410   72.0520 O.3   1727  CTS1727    -0.2188
      8  O3        22.6560   41.4290   72.7790 O.3   1727  CTS1727    -0.2176
      9  O4        24.8190   40.7070   70.9650 O.3   1727  CTS1727    -0.2188
     10  O6        23.4530   40.7220   67.7850 O.3   1727  CTS1727    -0.2216
     11  N         23.1320   43.2660   69.0460 N.3   1727  CTS1727    -0.2673
     12  C7        24.4330   42.7940   67.1940 C.3   1727  CTS1727     0.0517
     13  C8        23.2790   43.6770   67.6560 C.3   1727  CTS1727     0.0749
@<TRIPOS>BOND
     1    12    13    1
     2    12     6    1
     3    13    11    1
     4    10     6    1
     5     6     5    1
     6    11     5    1
     7    11     1    1
     8     5     4    1
     9     1     2    1
    10     4     9    1
    11     4     3    1
    12     2     3    1
    13     2     7    1
    14     3     8    1
