@<TRIPOS>MOLECULE
2jkq_VG8_A_1.pdb
 40 45 0 0 0
SMALL
GASTEIGER

@<TRIPOS>ATOM
      1  CBJ       15.2250   -3.5540   26.7410 C.3   1687  VG81687     0.0720
      2  CBL       16.0350   -4.8540   27.1440 C.3   1687  VG81687     0.0174
      3  CBN       16.9640   -4.5870   28.3480 C.3   1687  VG81687     0.0029
      4  CBM       17.9690   -3.4470   28.0440 C.3   1687  VG81687     0.0174
      5  CBK       17.3060   -2.3690   27.1230 C.3   1687  VG81687     0.0720
      6  NBI       15.8500   -2.3730   27.4100 N.3   1687  VG81687    -0.2738
      7  CBH       15.2620   -1.0410   27.0540 C.3   1687  VG81687     0.0609
      8  CBF       14.5800   -1.0050   25.6590 C.3   1687  VG81687     0.0374
      9  CBD       13.9790    0.3890   25.4110 C.3   1687  VG81687     0.0922
     10  CBG       14.3000   -0.5350   28.1710 C.3   1687  VG81687     0.0374
     11  CBE       12.8770   -0.2280   27.6590 C.3   1687  VG81687     0.0922
     12  NBC       12.9030    0.6190   26.4170 N.pl3 1687  VG81687    -0.3076
     13  CBB       11.8850    1.5970   26.2480 C.ar  1687  VG81687     0.0456
     14  CAZ       11.0940    1.9120   27.3500 C.ar  1687  VG81687     0.0156
     15  CAO       10.0730    2.8440   27.2590 C.ar  1687  VG81687     0.0180
     16  CAY       11.6200    2.2470   25.0400 C.ar  1687  VG81687     0.0167
     17  CAX       12.3090    2.1150   23.6760 C.3   1687  VG81687     0.1219
     18  NAU       11.5450    3.0710   22.8750 N.am  1687  VG81687    -0.2701
     19  CAT       11.7750    3.3480   21.4510 C.3   1687  VG81687     0.1155
     20  CAM       10.6050    3.6520   23.6130 C.2   1687  VG81687     0.2504
     21  OAI        9.8360    4.5000   23.1600 O.2   1687  VG81687    -0.2699
     22  CAN       10.6000    3.1930   24.9350 C.ar  1687  VG81687     0.0677
     23  CAJ        9.8100    3.4890   26.0560 C.ar  1687  VG81687     0.0773
     24  NAE        8.8040    4.3870   26.0220 N.pl3 1687  VG81687    -0.1819
     25  C4         7.5110    3.9950   26.0630 C.2   1687  VG81687     0.2283
     26  N3         7.1600    2.8460   26.6750 N.2   1687  VG81687    -0.3180
     27  C5         6.4950    4.7500   25.4790 C.2   1687  VG81687     0.1241
     28 CL5         6.8220    6.2570   24.6740 Cl    1687  VG81687    -0.0764
     29  C6         5.1860    4.2720   25.5570 C.2   1687  VG81687     0.1271
     30  N1         4.9090    3.1280   26.1670 N.2   1687  VG81687    -0.1674
     31  C2         5.8860    2.4140   26.7300 C.1   1687  VG81687     0.1711
     32  NAH        5.5760    1.2660   27.3240 N.pl3 1687  VG81687    -0.1326
     33  CAL        6.4320    0.5420   28.0550 C.ar  1687  VG81687     0.1164
     34  CAP        7.7160    0.2490   27.6040 C.ar  1687  VG81687     0.0204
     35  CAV        8.5860   -0.5070   28.3860 C.ar  1687  VG81687     0.0016
     36  CBA        8.1770   -0.9960   29.6200 C.ar  1687  VG81687     0.0032
     37  CAW        6.8920   -0.7120   30.0690 C.ar  1687  VG81687     0.0383
     38  CAQ        6.0200    0.0500   29.2890 C.ar  1687  VG81687     0.1546
     39  OAR        4.7630    0.3210   29.7180 O.3   1687  VG81687    -0.4701
     40  CAS        4.3780   -0.6870   30.6870 C.3   1687  VG81687     0.2525
@<TRIPOS>BOND
     1    19    18    1
     2    18    20   am
     3    18    17    1
     4    21    20    2
     5    20    22    1
     6    17    16    1
     7    28    27    1
     8    22    16   ar
     9    22    23   ar
    10    16    13   ar
    11     9     8    1
    12     9    12    1
    13    27    29    2
    14    27    25    1
    15    29    30    1
    16     8     7    1
    17    24    23    1
    18    24    25    1
    19    23    15   ar
    20    25    26    2
    21    30    31    2
    22    13    12    1
    23    13    14   ar
    24    12    11    1
    25    26    31    2
    26    31    32    1
    27     1     2    1
    28     1     6    1
    29     7     6    1
    30     7    10    1
    31     5     6    1
    32     5     4    1
    33     2     3    1
    34    15    14   ar
    35    32    33    1
    36    34    33   ar
    37    34    35   ar
    38    11    10    1
    39     4     3    1
    40    33    38   ar
    41    35    36   ar
    42    38    39    1
    43    38    37   ar
    44    36    37   ar
    45    39    40    1
