@<TRIPOS>MOLECULE
2jkv_NAP_A_1.pdb
 48 52 0 0 0
SMALL
GASTEIGER

@<TRIPOS>ATOM
      1  PA        20.9010  -20.9030  -17.7660 P.3   500  NAP500      0.2189
      2  O1A       19.6580  -21.1670  -18.5200 O.2   500  NAP500     -0.5170
      3  O2A       21.7420  -19.8850  -18.4200 O.3   500  NAP500     -0.4371
      4  O5B       20.6010  -20.4950  -16.2510 O.3   500  NAP500     -0.3112
      5  C5B       19.7480  -21.2760  -15.4490 C.3   500  NAP500      0.1813
      6  C4B       20.3860  -21.4080  -14.0720 C.3   500  NAP500      0.1820
      7  O4B       20.5740  -20.1120  -13.5620 O.3   500  NAP500     -0.3136
      8  C3B       19.4300  -22.1070  -13.1230 C.3   500  NAP500      0.2157
      9  O3B       20.1530  -22.8470  -12.1610 O.3   500  NAP500     -0.2175
     10  C2B       18.6760  -20.9770  -12.4650 C.3   500  NAP500      0.2314
     11  O2B       18.2790  -21.2240  -11.1400 O.3   500  NAP500     -0.2630
     12  C1B       19.8000  -19.9720  -12.3990 C.3   500  NAP500      0.3158
     13  N9A       19.2750  -18.6250  -12.2670 N.pl3 500  NAP500     -0.1439
     14  C8A       18.5940  -17.9130  -13.2110 C.3   500  NAP500      0.3377
     15  N7A       18.2990  -16.7140  -12.6620 N.2   500  NAP500     -0.2095
     16  C5A       18.7920  -16.6660  -11.3980 C.2   500  NAP500      0.2526
     17  C6A       18.7700  -15.6850  -10.4120 C.2   500  NAP500      0.4393
     18  N6A       18.1830  -14.5190  -10.6490 N.pl3 500  NAP500      0.2180
     19  N1A       19.3590  -15.9320   -9.1910 N.2   500  NAP500      0.0021
     20  C2A       19.9700  -17.1500   -8.9580 C.3   500  NAP500      0.5254
     21  N3A       19.9890  -18.1180   -9.9460 N.2   500  NAP500     -0.0055
     22  C4A       19.4070  -17.8740  -11.1420 C.2   500  NAP500      0.3518
     23  O3        21.7100  -22.2710  -17.5570 O.3   500  NAP500     -0.2703
     24  PN        22.8360  -22.9930  -18.4380 P.3   500  NAP500      0.2189
     25  O1N       22.3800  -22.9600  -19.8520 O.2   500  NAP500     -0.5170
     26  O2N       23.1670  -24.2810  -17.7590 O.3   500  NAP500     -0.4371
     27  O5D       24.0820  -21.9830  -18.3180 O.3   500  NAP500     -0.3112
     28  C5D       24.7370  -21.7560  -17.0910 C.3   500  NAP500      0.1813
     29  C4D       25.7840  -20.6790  -17.2890 C.3   500  NAP500      0.1799
     30  O4D       26.7970  -21.1610  -18.1390 O.3   500  NAP500     -0.3327
     31  C3D       25.1710  -19.4750  -17.9850 C.3   500  NAP500      0.2158
     32  O3D       25.8640  -18.3330  -17.5670 O.3   500  NAP500     -0.2175
     33  C2D       25.4660  -19.6950  -19.4490 C.3   500  NAP500      0.2309
     34  O2D       25.6940  -18.4730  -20.1030 O.3   500  NAP500     -0.2158
     35  C1D       26.7690  -20.4620  -19.3740 C.3   500  NAP500      0.2263
     36  N1N       26.9890  -21.3960  -20.4850 N.pl3 500  NAP500     -0.2787
     37  C2N       25.9390  -21.8780  -21.2140 C.3   500  NAP500      0.1244
     38  C3N       26.1670  -22.7770  -22.2530 C.2   500  NAP500      0.0544
     39  C7N       25.0540  -23.6600  -22.7510 C.2   500  NAP500      0.2818
     40  O7N       25.3070  -24.5480  -23.8060 O.2   500  NAP500     -0.2670
     41  N7N       23.8530  -23.5920  -22.1900 N.am  500  NAP500     -0.0839
     42  C4N       27.4750  -23.1570  -22.5470 C.2   500  NAP500      0.0033
     43  C5N       28.5310  -22.6510  -21.8030 C.2   500  NAP500      0.0157
     44  C6N       28.2740  -21.7670  -20.7660 C.2   500  NAP500      0.0633
     45  P2B       16.7520  -21.6340  -10.8760 P.3   500  NAP500      0.5328
     46  O1X       16.4480  -21.3010   -9.4390 O.3   500  NAP500     -0.1145
     47  O2X       15.8180  -20.8860  -11.7910 O.2   500  NAP500     -0.2224
     48  O3X       16.5860  -23.0990  -11.1420 O.3   500  NAP500     -0.1145
@<TRIPOS>BOND
     1    40    39    2
     2    39    38    1
     3    39    41   am
     4    42    38    2
     5    42    43    1
     6    38    37    1
     7    43    44    2
     8    37    36    1
     9    44    36    1
    10    36    35    1
    11    34    33    1
    12    25    24    2
    13    33    35    1
    14    33    31    1
    15    35    30    1
    16     2     1    2
    17    24    27    1
    18    24    26    1
    19    24    23    1
    20     3     1    1
    21    27    28    1
    22    30    29    1
    23    31    32    1
    24    31    29    1
    25     1    23    1
    26     1     4    1
    27    29    28    1
    28     4     5    1
    29     5     6    1
    30     6     7    1
    31     6     8    1
    32     7    12    1
    33    14    15    1
    34    14    13    1
    35     8    10    1
    36     8     9    1
    37    15    16    2
    38    10    12    1
    39    10    11    1
    40    12    13    1
    41    13    22    1
    42    47    45    2
    43    16    22    1
    44    16    17    1
    45    22    21    2
    46    48    45    1
    47    11    45    1
    48    45    46    1
    49    18    17    1
    50    17    19    2
    51    21    20    1
    52    19    20    1
