@<TRIPOS>MOLECULE
2jky_5GP_A_1.pdb
 24 26 0 0 0
SMALL
GASTEIGER

@<TRIPOS>ATOM
      1  P         24.0960   22.1900    7.9710 P.3   300  5GP300      0.5327
      2  O1P       23.4840   20.9260    7.4130 O.2   300  5GP300     -0.2224
      3  O2P       23.1700   22.9950    8.8500 O.3   300  5GP300     -0.1145
      4  O3P       25.4580   21.9930    8.5780 O.3   300  5GP300     -0.1145
      5  O5'       24.3880   23.1420    6.7140 O.3   300  5GP300     -0.2675
      6  C5'       24.2080   22.7200    5.3700 C.3   300  5GP300      0.1859
      7  C4'       24.5260   23.8970    4.4710 C.3   300  5GP300      0.1801
      8  O4'       25.9350   24.1330    4.5100 O.3   300  5GP300     -0.3326
      9  C3'       24.1970   23.6090    3.0240 C.3   300  5GP300      0.2158
     10  O3'       22.9150   24.1380    2.6690 O.3   300  5GP300     -0.2175
     11  C2'       25.3220   24.2900    2.2640 C.3   300  5GP300      0.2310
     12  O2'       25.0560   25.6880    2.1110 O.3   300  5GP300     -0.2158
     13  C1'       26.5070   24.1510    3.1950 C.3   300  5GP300      0.2293
     14  N9        27.2390   22.8790    2.9350 N.pl3 300  5GP300     -0.2354
     15  C8        27.4350   21.8920    3.8280 C.3   300  5GP300      0.2246
     16  N7        28.1330   20.9000    3.2350 N.2   300  5GP300     -0.2322
     17  C5        28.3760   21.2740    1.9640 C.2   300  5GP300      0.2182
     18  C6        29.0400   20.6730    0.9020 C.1   300  5GP300      0.2372
     19  O6        29.5510   19.5450    1.0600 O.2   300  5GP300     -0.2069
     20  N1        29.1200   21.2990   -0.2830 N.2   300  5GP300     -0.2485
     21  C2        28.5650   22.5190   -0.4550 C.1   300  5GP300      0.2531
     22  N2        28.6510   23.1490   -1.6610 N.pl3 300  5GP300     -0.0226
     23  N3        27.9150   23.1260    0.5670 N.2   300  5GP300     -0.3074
     24  C4        27.8080   22.5230    1.7780 C.2   300  5GP300      0.2300
@<TRIPOS>BOND
     1    22    21    1
     2    21    20    2
     3    21    23    2
     4    20    18    2
     5    23    24    2
     6    18    19    2
     7    18    17    1
     8    24    17    1
     9    24    14    1
    10    17    16    2
    11    12    11    1
    12    11     9    1
    13    11    13    1
    14    10     9    1
    15    14    13    1
    16    14    15    1
    17     9     7    1
    18    13     8    1
    19    16    15    1
    20     7     8    1
    21     7     6    1
    22     6     5    1
    23     5     1    1
    24     2     1    2
    25     1     4    1
    26     1     3    1
