@<TRIPOS>MOLECULE
2jkz_5GP_A_1.pdb
 24 26 0 0 0
SMALL
GASTEIGER

@<TRIPOS>ATOM
      1  P         22.7890   58.2620   39.9900 P.3   300  5GP300      0.5327
      2  O1P       21.8120   59.3090   40.3090 O.3   300  5GP300     -0.1145
      3  O2P       23.7760   58.6920   38.9170 O.2   300  5GP300     -0.2224
      4  O3P       23.5660   57.8090   41.2780 O.3   300  5GP300     -0.1145
      5  O5'       22.0850   56.8780   39.4650 O.3   300  5GP300     -0.2675
      6  C5'       22.9170   55.7230   39.0900 C.3   300  5GP300      0.1859
      7  C4'       22.1790   54.4510   38.5910 C.3   300  5GP300      0.1801
      8  O4'       22.4860   53.4310   39.6330 O.3   300  5GP300     -0.3326
      9  C3'       20.6480   54.3710   38.5530 C.3   300  5GP300      0.2158
     10  O3'       20.0410   54.9260   37.4020 O.3   300  5GP300     -0.2175
     11  C2'       20.3780   52.8880   38.6850 C.3   300  5GP300      0.2310
     12  O2'       20.5180   52.1990   37.4230 O.3   300  5GP300     -0.2158
     13  C1'       21.3940   52.4730   39.7270 C.3   300  5GP300      0.2293
     14  N9        20.9380   52.4980   41.1520 N.pl3 300  5GP300     -0.2354
     15  C8        21.1310   53.4650   42.1210 C.3   300  5GP300      0.2246
     16  N7        20.6040   53.2080   43.2910 N.2   300  5GP300     -0.2322
     17  C5        20.0120   51.9600   43.0680 C.2   300  5GP300      0.2182
     18  C6        19.2640   51.1380   43.9850 C.1   300  5GP300      0.2372
     19  O6        18.9930   51.3740   45.1670 O.2   300  5GP300     -0.2069
     20  N1        18.8150   49.9050   43.3610 N.2   300  5GP300     -0.2485
     21  C2        19.0760   49.5500   42.0210 C.1   300  5GP300      0.2531
     22  N2        18.5660   48.3530   41.6460 N.pl3 300  5GP300     -0.0226
     23  N3        19.7810   50.3310   41.1660 N.2   300  5GP300     -0.3074
     24  C4        20.2140   51.5160   41.7570 C.2   300  5GP300      0.2300
@<TRIPOS>BOND
     1    10     9    1
     2    12    11    1
     3     9     7    1
     4     9    11    1
     5     7     6    1
     6     7     8    1
     7    11    13    1
     8     3     1    2
     9     6     5    1
    10     5     1    1
    11     8    13    1
    12    13    14    1
    13     1     2    1
    14     1     4    1
    15    14    24    1
    16    14    15    1
    17    23    24    2
    18    23    21    2
    19    22    21    1
    20    24    17    1
    21    21    20    2
    22    15    16    1
    23    17    16    2
    24    17    18    1
    25    20    18    2
    26    18    19    2
