@<TRIPOS>MOLECULE
2jl1_NAP_A_1.pdb
 48 52 0 0 0
SMALL
GASTEIGER

@<TRIPOS>ATOM
      1  PA        -8.1350  -26.8290   -0.3260 P.3   1288  NAP1288     0.2189
      2  O1A       -9.3810  -27.1750    0.4120 O.3   1288  NAP1288    -0.4371
      3  O2A       -8.2220  -26.9450   -1.7970 O.2   1288  NAP1288    -0.5170
      4  O5B       -6.8950  -27.6850    0.1960 O.3   1288  NAP1288    -0.3112
      5  C5B       -6.6810  -28.0310    1.5470 C.3   1288  NAP1288     0.1813
      6  C4B       -5.4950  -28.9830    1.5100 C.3   1288  NAP1288     0.1820
      7  O4B       -5.1620  -29.4300    2.8180 O.3   1288  NAP1288    -0.3136
      8  C3B       -5.8720  -30.2070    0.6750 C.3   1288  NAP1288     0.2157
      9  O3B       -4.8320  -30.5020   -0.2210 O.3   1288  NAP1288    -0.2175
     10  C2B       -5.9820  -31.3140    1.6850 C.3   1288  NAP1288     0.2314
     11  O2B       -5.5040  -32.5130    1.1620 O.3   1288  NAP1288    -0.2630
     12  C1B       -5.0270  -30.8360    2.7590 C.3   1288  NAP1288     0.3158
     13  N9A       -5.3100  -31.5360    4.0190 N.pl3 1288  NAP1288    -0.1439
     14  C8A       -6.5050  -31.6530    4.6740 C.3   1288  NAP1288     0.3377
     15  N7A       -6.2960  -32.3920    5.7890 N.2   1288  NAP1288    -0.2095
     16  C5A       -4.9940  -32.7610    5.8300 C.2   1288  NAP1288     0.2526
     17  C6A       -4.2530  -33.5220    6.7340 C.2   1288  NAP1288     0.4393
     18  N6A       -4.8220  -34.0550    7.8120 N.pl3 1288  NAP1288     0.2180
     19  N1A       -2.9120  -33.7200    6.4980 N.2   1288  NAP1288     0.0021
     20  C2A       -2.3130  -33.1860    5.3780 C.3   1288  NAP1288     0.5254
     21  N3A       -3.0440  -32.4290    4.4910 N.2   1288  NAP1288    -0.0055
     22  C4A       -4.3670  -32.2290    4.7170 C.2   1288  NAP1288     0.3518
     23  O3        -7.7480  -25.3080    0.0960 O.3   1288  NAP1288    -0.2703
     24  PN        -7.1570  -24.0960   -0.7840 P.3   1288  NAP1288     0.2189
     25  O1N       -6.0090  -24.6330   -1.5330 O.2   1288  NAP1288    -0.5170
     26  O2N       -8.2760  -23.4370   -1.5130 O.3   1288  NAP1288    -0.4371
     27  O5D       -6.5520  -23.1050    0.3790 O.3   1288  NAP1288    -0.3112
     28  C5D       -5.4290  -23.5160    1.1470 C.3   1288  NAP1288     0.1813
     29  C4D       -5.5550  -23.2310    2.6480 C.3   1288  NAP1288     0.1799
     30  O4D       -5.8770  -21.8640    2.8400 O.3   1288  NAP1288    -0.3327
     31  C3D       -6.6820  -24.0250    3.3130 C.3   1288  NAP1288     0.2158
     32  O3D       -6.2860  -25.2550    3.8650 O.3   1288  NAP1288    -0.2175
     33  C2D       -7.2230  -23.0920    4.3800 C.3   1288  NAP1288     0.2309
     34  O2D       -6.5890  -23.2170    5.6360 O.3   1288  NAP1288    -0.2158
     35  C1D       -6.8750  -21.7220    3.8390 C.3   1288  NAP1288     0.2263
     36  N1N       -8.1120  -21.0980    3.3410 N.pl3 1288  NAP1288    -0.2787
     37  C2N       -8.0580  -19.7710    3.0540 C.3   1288  NAP1288     0.1244
     38  C3N       -9.1790  -19.1160    2.6320 C.2   1288  NAP1288     0.0544
     39  C7N       -9.1350  -17.6780    2.3380 C.2   1288  NAP1288     0.2818
     40  O7N      -10.3170  -17.1110    1.7790 O.2   1288  NAP1288    -0.2670
     41  N7N       -8.0160  -17.0160    2.6550 N.am  1288  NAP1288    -0.0839
     42  C4N      -10.3690  -19.8360    2.3960 C.2   1288  NAP1288     0.0033
     43  C5N      -10.3840  -21.1940    2.5990 C.2   1288  NAP1288     0.0157
     44  C6N       -9.2510  -21.8180    3.1320 C.2   1288  NAP1288     0.0633
     45  P2B       -6.4880  -33.6070    0.4970 P.3   1288  NAP1288     0.5328
     46  O1X       -6.4460  -33.3940   -1.0040 O.2   1288  NAP1288    -0.2224
     47  O2X       -7.9210  -33.4670    0.9830 O.3   1288  NAP1288    -0.1145
     48  O3X       -5.9140  -34.9510    0.8950 O.3   1288  NAP1288    -0.1145
@<TRIPOS>BOND
     1     3     1    2
     2    25    24    2
     3    26    24    1
     4    46    45    2
     5    24    23    1
     6    24    27    1
     7     1    23    1
     8     1     4    1
     9     1     2    1
    10     9     8    1
    11     4     5    1
    12    27    28    1
    13    45    48    1
    14    45    47    1
    15    45    11    1
    16     8     6    1
    17     8    10    1
    18    28    29    1
    19    11    10    1
    20     6     5    1
    21     6     7    1
    22    10    12    1
    23    40    39    2
    24    39    38    1
    25    39    41   am
    26    42    43    1
    27    42    38    2
    28    43    44    2
    29    38    37    1
    30    29    30    1
    31    29    31    1
    32    12     7    1
    33    12    13    1
    34    30    35    1
    35    37    36    1
    36    44    36    1
    37    31    32    1
    38    31    33    1
    39    36    35    1
    40    35    33    1
    41    13    14    1
    42    13    22    1
    43    33    34    1
    44    21    22    2
    45    21    20    1
    46    14    15    1
    47    22    16    1
    48    20    19    1
    49    15    16    2
    50    16    17    1
    51    19    17    2
    52    17    18    1
