@<TRIPOS>MOLECULE
2jl4_GSH_A_1.pdb
 20 19 0 0 0
SMALL
GASTEIGER

@<TRIPOS>ATOM
      1  N1         5.4410    0.9120   41.4160 N.3   1213  GSH1213    -0.1208
      2  CA1        6.8560    1.1640   41.2340 C.3   1213  GSH1213     0.1948
      3  C1         7.6470    0.0640   41.8960 C.2   1213  GSH1213     0.3819
      4  O11        7.3140   -0.2630   43.0430 O.co2 1213  GSH1213    -0.2441
      5  O12        8.6010   -0.4760   41.2890 O.co2 1213  GSH1213    -0.2441
      6  CB1        7.2200    2.5230   41.8250 C.3   1213  GSH1213     0.0402
      7  CG1        8.6830    2.8570   41.5350 C.3   1213  GSH1213     0.0889
      8  CD1        9.0190    4.2780   41.9360 C.2   1213  GSH1213     0.2418
      9  OE1        8.1480    5.1380   41.9480 O.2   1213  GSH1213    -0.2733
     10  N2        10.2950    4.5020   42.2580 N.am  1213  GSH1213    -0.1968
     11  CA2       10.8120    5.8020   42.6600 C.3   1213  GSH1213     0.1843
     12  C2        11.5080    6.5200   41.5290 C.2   1213  GSH1213     0.2627
     13  O2        12.1750    5.9140   40.7100 O.2   1213  GSH1213    -0.2714
     14  CB2       11.7880    5.6290   43.8190 C.3   1213  GSH1213     0.0997
     15  SG2       10.9890    5.1460   45.3750 S.3   1213  GSH1213    -0.0797
     16  N3        11.3720    7.8330   41.4710 N.am  1213  GSH1213    -0.1917
     17  CA3       12.0030    8.6230   40.4330 C.3   1213  GSH1213     0.2285
     18  C3        11.1950    9.8520   40.1100 C.2   1213  GSH1213     0.3865
     19  O31       10.1580   10.0930   40.7670 O.co2 1213  GSH1213    -0.2437
     20  O32       11.6010   10.5900   39.1930 O.co2 1213  GSH1213    -0.2437
@<TRIPOS>BOND
     1    20    18   ar
     2    18    17    1
     3    18    19   ar
     4    17    16    1
     5    13    12    2
     6     2     1    1
     7     2     6    1
     8     2     3    1
     9     5     3   ar
    10    16    12   am
    11    12    11    1
    12     7     6    1
    13     7     8    1
    14     3     4   ar
    15     8     9    2
    16     8    10   am
    17    10    11    1
    18    11    14    1
    19    14    15    1
