@<TRIPOS>MOLECULE
2jla_TPP_A_1.pdb
 26 27 0 0 0
SMALL
GASTEIGER

@<TRIPOS>ATOM
      1  N1'       25.7190  -12.2750   -8.6740 N.2   1557  TPP1557    -0.1861
      2  C2'       26.4810  -13.0530   -7.8890 C.1   1557  TPP1557     0.0663
      3  CM2       27.9720  -12.7760   -7.7860 C.3   1557  TPP1557     0.1291
      4  N3'       25.9380  -14.0700   -7.2060 N.2   1557  TPP1557    -0.3368
      5  C4'       24.6180  -14.3210   -7.3040 C.2   1557  TPP1557     0.2292
      6  N4'       24.0900  -15.3370   -6.6210 N.pl3 1557  TPP1557    -0.0925
      7  C5'       23.8100  -13.5240   -8.1110 C.2   1557  TPP1557     0.0654
      8  C6'       24.4220  -12.4880   -8.7940 C.2   1557  TPP1557     0.1115
      9  C7'       22.3090  -13.6910   -8.3080 C.3   1557  TPP1557     0.1237
     10  N3        21.9850  -14.9630   -8.9980 N.pl3 1557  TPP1557    -0.2970
     11  C2        21.6360  -16.0470   -8.2820 C.3   1557  TPP1557     0.1543
     12  S1        21.2710  -17.3220   -9.3900 S.3   1557  TPP1557    -0.0951
     13  C5        21.5480  -16.3920  -10.7840 C.2   1557  TPP1557     0.0164
     14  C4        21.9300  -15.1120  -10.3530 C.2   1557  TPP1557     0.0279
     15  CM4       22.2450  -13.9960  -11.3510 C.3   1557  TPP1557     0.0473
     16  C6        21.3800  -16.9850  -12.1840 C.3   1557  TPP1557     0.0661
     17  C7        22.4140  -18.0810  -12.4250 C.3   1557  TPP1557     0.1544
     18  O7        22.3820  -18.4200  -13.7920 O.3   1557  TPP1557    -0.3134
     19  PA        22.9740  -19.8140  -14.3160 P.3   1557  TPP1557     0.2230
     20  O1A       22.6840  -19.8990  -15.9270 O.2   1557  TPP1557    -0.5169
     21  O2A       24.4210  -19.9630  -14.0230 O.3   1557  TPP1557    -0.4370
     22  O3A       22.0910  -20.9740  -13.5650 O.3   1557  TPP1557    -0.2261
     23  PB        20.4970  -21.2750  -13.7820 P.3   1557  TPP1557     0.5373
     24  O1B       20.3550  -22.5250  -12.7830 O.3   1557  TPP1557    -0.1143
     25  O2B       19.6470  -20.0630  -13.1810 O.3   1557  TPP1557    -0.1143
     26  O3B       19.9930  -21.5940  -15.1400 O.2   1557  TPP1557    -0.2221
@<TRIPOS>BOND
     1    20    19    2
     2    26    23    2
     3    19    21    1
     4    19    18    1
     5    19    22    1
     6    18    17    1
     7    23    22    1
     8    23    25    1
     9    23    24    1
    10    17    16    1
    11    16    13    1
    12    15    14    1
    13    13    14    2
    14    13    12    1
    15    14    10    1
    16    12    11    1
    17    10     9    1
    18    10    11    1
    19     8     1    1
    20     8     7    2
    21     1     2    2
    22     9     7    1
    23     7     5    1
    24     2     3    1
    25     2     4    2
    26     5     4    2
    27     5     6    1
