@<TRIPOS>MOLECULE
2jlb_UDM_A_1.pdb
 39 42 0 0 0
SMALL
GASTEIGER

@<TRIPOS>ATOM
      1  C1'       24.4580    9.5740   -5.6530 C.3   1569  UDM1569     0.1531
      2  C2'       24.3080   10.9480   -6.2540 C.3   1569  UDM1569     0.1717
      3  C3'       23.8870   11.8730   -5.1640 C.3   1569  UDM1569     0.1748
      4  C4'       22.5080   11.3870   -4.8420 C.3   1569  UDM1569     0.2104
      5  C5'       22.6290    9.9950   -4.2420 C.3   1569  UDM1569     0.1807
      6  C6'       21.2720    9.3420   -4.0350 C.3   1569  UDM1569     0.2141
      7  C7'       26.2380   12.4160   -6.7890 C.1   1569  UDM1569     0.1571
      8  C8'       25.6800   13.4500   -5.8030 C.3   1569  UDM1569     0.2639
      9  N2'       25.6070   11.2520   -6.8280 N.2   1569  UDM1569    -0.2011
     10  CB        25.4710    9.6370   -4.5190 C.3   1569  UDM1569     0.1499
     11  O3'       23.8460   13.2730   -5.5810 O.3   1569  UDM1569    -0.3352
     12  O4'       21.9080   12.2810   -3.9300 O.3   1569  UDM1569    -0.2177
     13  O5'       23.1650    9.1110   -5.1930 O.3   1569  UDM1569    -0.3506
     14  O6'       21.4270    7.9320   -4.2500 O.3   1569  UDM1569    -0.2176
     15  O7'       27.2130   12.6300   -7.5010 O.2   1569  UDM1569    -0.2245
     16  N1        30.1480    8.5190    3.5040 N.am  1569  UDM1569    -0.1766
     17  C2        30.4820    8.8100    4.7710 C.1   1569  UDM1569     0.2845
     18  N3        30.8100    7.7900    5.6690 N.2   1569  UDM1569    -0.2452
     19  C4        30.8140    6.4510    5.2470 C.1   1569  UDM1569     0.2182
     20  C5        30.4560    6.1440    3.9410 C.2   1569  UDM1569     0.1242
     21  C6        30.1130    7.1800    3.0700 C.2   1569  UDM1569     0.0929
     22  O2        30.5120    9.9780    5.1430 O.2   1569  UDM1569    -0.1918
     23  O4        31.1270    5.5680    6.0430 O.2   1569  UDM1569    -0.2085
     24  C1D       29.7560    9.6190    2.5960 C.3   1569  UDM1569     0.2401
     25  C2D       30.5980    9.7990    1.3470 C.3   1569  UDM1569     0.2319
     26  O2'       31.3160   11.0410    1.4430 O.3   1569  UDM1569    -0.2157
     27  C3D       29.6050   10.0830    0.2910 C.3   1569  UDM1569     0.2158
     28  C4D       28.2750    9.6120    0.8200 C.3   1569  UDM1569     0.1799
     29  O4D       28.5170    9.0960    2.1540 O.3   1569  UDM1569    -0.3320
     30  O3D       29.5370   11.4880    0.2640 O.3   1569  UDM1569    -0.2175
     31  C5D       27.7300    8.5410   -0.1260 C.3   1569  UDM1569     0.1813
     32  O5D       28.4990    8.5660   -1.3160 O.3   1569  UDM1569    -0.3111
     33  PA        28.0040    7.8860   -2.6920 P.3   1569  UDM1569     0.2208
     34  O1A       26.6760    7.2490   -2.5400 O.3   1569  UDM1569    -0.4371
     35  O2A       29.1340    7.0960   -3.2360 O.2   1569  UDM1569    -0.5170
     36  O3A       27.8460    9.2180   -3.5820 O.3   1569  UDM1569    -0.2485
     37  PB        27.1700    9.2810   -5.0370 P.3   1569  UDM1569     0.3768
     38  O1B       27.7420   10.4880   -5.6760 O.3   1569  UDM1569    -0.1395
     39  O2B       27.2240    7.9720   -5.7310 O.2   1569  UDM1569    -0.2551
@<TRIPOS>BOND
     1    15     7    2
     2     9     7    2
     3     9     2    1
     4     7     8    1
     5     2     1    1
     6     2     3    1
     7     8    11    1
     8    39    37    2
     9    38    37    1
    10     1    13    1
    11     1    10    1
    12    11     3    1
    13    13     5    1
    14     3     4    1
    15    37    10    1
    16    37    36    1
    17     4     5    1
    18     4    12    1
    19    14     6    1
    20     5     6    1
    21    36    33    1
    22    35    33    2
    23    33    34    1
    24    33    32    1
    25    32    31    1
    26    31    28    1
    27    30    27    1
    28    27    28    1
    29    27    25    1
    30    28    29    1
    31    25    26    1
    32    25    24    1
    33    29    24    1
    34    24    16    1
    35    21    16    1
    36    21    20    2
    37    16    17   am
    38    20    19    1
    39    17    22    2
    40    17    18    2
    41    19    18    2
    42    19    23    2
