@<TRIPOS>MOLECULE
2jlc_TPP_A_1.pdb
 26 27 0 0 0
SMALL
GASTEIGER

@<TRIPOS>ATOM
      1  N1'       23.0290  -13.7530  -18.6190 N.2   601  TPP601     -0.1861
      2  C2'       23.7320  -14.6500  -17.9010 C.1   601  TPP601      0.0663
      3  CM2       25.2520  -14.5570  -17.8110 C.3   601  TPP601      0.1291
      4  N3'       23.0980  -15.6300  -17.2470 N.2   601  TPP601     -0.3368
      5  C4'       21.7590  -15.7350  -17.2890 C.2   601  TPP601      0.2292
      6  N4'       21.1700  -16.7270  -16.6160 N.pl3 601  TPP601     -0.0925
      7  C5'       20.9960  -14.8280  -18.0410 C.2   601  TPP601      0.0654
      8  C6'       21.6980  -13.8240  -18.7090 C.2   601  TPP601      0.1115
      9  C7'       19.4510  -14.8630  -18.1890 C.3   601  TPP601      0.1237
     10  N3        18.9910  -16.1180  -18.8540 N.pl3 601  TPP601     -0.2970
     11  C2        18.5440  -17.1430  -18.1150 C.3   601  TPP601      0.1543
     12  S1        18.0770  -18.4620  -19.1920 S.3   601  TPP601     -0.0951
     13  C5        18.5070  -17.6150  -20.6300 C.2   601  TPP601      0.0164
     14  C4        18.9660  -16.3350  -20.2100 C.2   601  TPP601      0.0279
     15  CM4       19.4320  -15.2840  -21.2150 C.3   601  TPP601      0.0473
     16  C6        18.3150  -18.2610  -22.0370 C.3   601  TPP601      0.0661
     17  C7        19.4730  -19.1750  -22.4780 C.3   601  TPP601      0.1544
     18  O7        19.1320  -19.8870  -23.7150 O.3   601  TPP601     -0.3134
     19  PA        19.6450  -21.4260  -24.1420 P.3   601  TPP601      0.2230
     20  O1A       21.0780  -21.1180  -23.4100 O.3   601  TPP601     -0.4370
     21  O2A       19.4440  -21.0260  -25.5920 O.2   601  TPP601     -0.5169
     22  O3A       18.4690  -21.7320  -23.1290 O.3   601  TPP601     -0.2261
     23  PB        17.0070  -22.1450  -23.4630 P.3   601  TPP601      0.5373
     24  O1B       16.8350  -23.4230  -22.5760 O.3   601  TPP601     -0.1143
     25  O2B       16.0600  -21.0730  -22.7630 O.3   601  TPP601     -0.1143
     26  O3B       16.5650  -22.3010  -24.8820 O.2   601  TPP601     -0.2221
@<TRIPOS>BOND
     1    21    19    2
     2    26    23    2
     3    19    18    1
     4    19    20    1
     5    19    22    1
     6    18    17    1
     7    23    22    1
     8    23    25    1
     9    23    24    1
    10    17    16    1
    11    16    13    1
    12    15    14    1
    13    13    14    2
    14    13    12    1
    15    14    10    1
    16    12    11    1
    17    10     9    1
    18    10    11    1
    19     8     1    1
    20     8     7    2
    21     1     2    2
    22     9     7    1
    23     7     5    1
    24     2     3    1
    25     2     4    2
    26     5     4    2
    27     5     6    1
