@<TRIPOS>MOLECULE
2jld_AG1_A_1.pdb
 40 46 0 0 0
SMALL
GASTEIGER

@<TRIPOS>ATOM
      1  C26       42.0320   82.4190   36.2090 C.2   1385  AG11385     0.0000
      2  C25       42.3560   83.1060   34.9990 C.2   1385  AG11385     0.0000
      3  C24       43.1640   82.4910   33.9920 C.2   1385  AG11385     0.0000
      4  C23       43.6330   81.1820   34.1830 C.3   1385  AG11385     0.0000
      5  C28       43.2720   80.5220   35.3710 C.2   1385  AG11385     0.0000
      6  C27       42.4970   81.1080   36.3790 C.2   1385  AG11385     0.0000
      7  C22       44.4970   79.2900   34.0600 C.ar  1385  AG11385     0.0000
      8  C29       43.8690   79.2170   35.2780 C.ar  1385  AG11385     0.0000
      9  C40       45.2250   78.2780   33.5240 C.ar  1385  AG11385     0.0000
     10  C34       45.3720   77.0760   34.2430 C.ar  1385  AG11385     0.0000
     11  C33       44.7160   76.9750   35.4970 C.ar  1385  AG11385     0.0000
     12  C30       43.9720   78.0450   36.0250 C.ar  1385  AG11385     0.0000
     13  C31       43.4960   77.6590   37.2900 C.1   1385  AG11385     0.0000
     14  C38       46.5040   77.6010   31.7180 C.2   1385  AG11385     0.0000
     15  C37       46.6900   76.3590   32.3860 C.2   1385  AG11385     0.0000
     16  C36       46.1420   76.0740   33.6360 C.2   1385  AG11385     0.0000
     17  C32       44.6820   75.9750   36.4880 C.1   1385  AG11385     0.0000
     18  F5        47.4230   75.3820   31.7900 F     1385  AG11385     0.0000
     19  N21       45.7360   78.5520   32.2830 N.pl3 1385  AG11385     0.0000
     20  N19       44.3180   80.3850   33.4370 N.pl3 1385  AG11385     0.0000
     21  N20       43.9410   76.3970   37.5730 N.2   1385  AG11385     0.0000
     22  O2        41.2780   83.0010   37.1880 O.2   1385  AG11385     0.0000
     23  O1        45.2070   74.8840   36.4660 O.2   1385  AG11385     0.0000
     24  O41       42.7740   78.2640   38.0560 O.2   1385  AG11385     0.0000
     25  C12       43.7110   79.8890   30.5200 C.3   1385  AG11385     0.0000
     26  O13       42.8420   79.5670   29.9520 O.3   1385  AG11385     0.0000
     27  C18       46.6280   82.1460   31.8550 C.2   1385  AG11385     0.0000
     28  C14       45.7870   82.3580   30.7600 C.3   1385  AG11385     0.0000
     29  C15       46.0790   81.3830   29.7920 C.2   1385  AG11385     0.0000
     30  C16       47.0920   80.5730   30.2800 C.2   1385  AG11385     0.0000
     31  C17       47.4270   81.0460   31.5510 C.2   1385  AG11385     0.0000
     32  C3        44.7800   83.4260   30.6020 C.2   1385  AG11385     0.0000
     33  C10       41.6850   83.7640   28.2260 C.3   1385  AG11385     0.0000
     34  C6        43.0130   84.2670   28.8260 C.3   1385  AG11385     0.0000
     35  C7        42.8450   85.4310   29.8200 C.2   1385  AG11385     0.0000
     36  N4        44.0370   83.3640   29.4120 N.am  1385  AG11385     0.0000
     37  O9        44.6450   84.2040   31.5420 O.2   1385  AG11385     0.0000
     38  O8        42.1000   85.1550   30.9270 O.co2 1385  AG11385     0.0000
     39  O11       43.3870   86.5060   29.6340 O.co2 1385  AG11385     0.0000
     40 RU         45.2780   80.4370   31.6100 Ru    1385  AG11385     0.0000
@<TRIPOS>BOND
     1    33    34    1
     2    34    36    1
     3    34    35    1
     4    36    32   am
     5    39    35   ar
     6    29    30    2
     7    29    28    1
     8    35    38   ar
     9    26    25    1
    10    30    31    1
    11    25    40    1
    12    32    28    1
    13    32    37    2
    14    28    40    1
    15    28    27    1
    16    31    27    2
    17    40    19    1
    18    40    20    1
    19    14    19    1
    20    14    15    2
    21    18    15    1
    22    19     9    1
    23    15    16    1
    24    20     7    1
    25    20     4    1
    26     9     7   ar
    27     9    10   ar
    28    16    10    2
    29     3     4    1
    30     3     2    2
    31     7     8   ar
    32     4     5    1
    33    10    11   ar
    34     2     1    1
    35     8     5    2
    36     8    12   ar
    37     5     6    1
    38    11    12   ar
    39    11    17    1
    40    12    13    1
    41     1     6    2
    42     1    22    1
    43    23    17    2
    44    17    21    2
    45    13    21    2
    46    13    24    2
