@<TRIPOS>MOLECULE
2jld_III_E_1.pdb
 38 37 0 0 0
SMALL
GASTEIGER

@<TRIPOS>ATOM
      1  N         41.2600   55.4800   33.7940 N.3     1  ALA1       -0.1231
      2  CA        40.7330   56.5190   34.7510 C.3     1  ALA1        0.1694
      3  C         39.2890   57.0290   34.5080 C.2     1  ALA1        0.2593
      4  O         38.5100   57.0980   35.4670 O.2     1  ALA1       -0.2718
      5  CB        41.6740   57.6940   34.8050 C.3     1  ALA1        0.0304
      6  N         38.9330   57.3710   33.2580 N.am    2  GLY2       -0.1942
      7  CA        37.6860   58.1270   32.9590 C.3     2  GLY2        0.2014
      8  C         36.3730   57.4400   32.5500 C.2     2  GLY2        0.2639
      9  O         36.2460   56.2050   32.6110 O.2     2  GLY2       -0.2714
     10  N         35.3950   58.2720   32.1480 N.am    3  GLY3       -0.1939
     11  CA        34.0890   57.8280   31.5920 C.3     3  GLY3        0.2014
     12  C         32.9410   58.8070   31.8630 C.2     3  GLY3        0.2639
     13  O         32.5260   58.9430   33.0150 O.2     3  GLY3       -0.2714
     14  N         32.4090   59.4500   30.8090 N.am    4  ALA4       -0.1963
     15  CA        31.4780   60.6140   30.9410 C.3     4  ALA4        0.1728
     16  C         29.9730   60.2820   30.8810 C.2     4  ALA4        0.2616
     17  O         29.5730   59.3540   30.1830 O.2     4  ALA4       -0.2715
     18  CB        31.8170   61.6910   29.8800 C.3     4  ALA4        0.0334
     19  N         29.1580   61.0620   31.6080 N.am    5  ALA5       -0.1963
     20  CA        27.6790   60.9340   31.6190 C.3     5  ALA5        0.1728
     21  C         26.9830   62.2580   32.0490 C.2     5  ALA5        0.2616
     22  O         27.2370   62.7570   33.1430 O.2     5  ALA5       -0.2715
     23  CB        27.2500   59.7730   32.5350 C.3     5  ALA5        0.0334
     24  N         26.1120   62.8150   31.1910 N.am    6  ALA6       -0.1963
     25  CA        25.4640   64.1450   31.4110 C.3     6  ALA6        0.1728
     26  C         23.9960   64.0560   31.8970 C.2     6  ALA6        0.2616
     27  O         23.2790   63.1200   31.5690 O.2     6  ALA6       -0.2715
     28  CB        25.5520   65.0130   30.1330 C.3     6  ALA6        0.0334
     29  N         23.5630   65.0420   32.6790 N.am    7  ALA7       -0.1963
     30  CA        22.2280   65.0530   33.2860 C.3     7  ALA7        0.1728
     31  C         21.7220   66.5000   33.3770 C.2     7  ALA7        0.2616
     32  O         22.3820   67.4130   32.8790 O.2     7  ALA7       -0.2715
     33  CB        22.2690   64.4110   34.6690 C.3     7  ALA7        0.0334
     34  N         20.5590   66.7030   34.0030 N.am    8  ALA8       -0.1977
     35  CA        19.9340   68.0370   34.1140 C.3     8  ALA8        0.1597
     36  C         18.7450   68.0080   35.0720 C.2     8  ALA8        0.2287
     37  O         18.8380   68.4640   36.2120 O.2     8  ALA8       -0.2864
     38  CB        19.4840   68.5570   32.7280 C.3     8  ALA8        0.0319
@<TRIPOS>BOND
     1    18    15    1
     2    28    25    1
     3    17    16    2
     4    14    15    1
     5    14    12   am
     6    16    15    1
     7    16    19   am
     8    24    25    1
     9    24    21   am
    10    25    26    1
    11    27    26    2
    12    11    12    1
    13    11    10    1
    14    19    20    1
    15    20    21    1
    16    20    23    1
    17    12    13    2
    18    26    29   am
    19    21    22    2
    20    10     8   am
    21     8     9    2
    22     8     7    1
    23    29    30    1
    24    38    35    1
    25    32    31    2
    26     7     6    1
    27     6     3   am
    28    30    31    1
    29    30    33    1
    30    31    34   am
    31     1     2    1
    32    34    35    1
    33    35    36    1
    34     3     2    1
    35     3     4    2
    36     2     5    1
    37    36    37    2
