@<TRIPOS>MOLECULE
2jle_I15_A_1.pdb
 22 24 0 0 0
SMALL
GASTEIGER

@<TRIPOS>ATOM
      1  C1        -9.1510  -12.9180   15.6940 C.2   1546  I151546     0.0680
      2  C2        -8.6760  -12.3830   16.9040 C.2   1546  I151546     0.1620
      3  C3        -8.2530  -13.3660   14.7040 C.2   1546  I151546     0.1065
      4  C4       -10.5140  -13.1580   15.1920 C.2   1546  I151546     0.0851
      5  O5        -9.6080  -11.9700   17.8430 O.3   1546  I151546    -0.4546
      6  C6        -7.2950  -12.2340   17.1940 C.3   1546  I151546     0.2395
      7  N7        -9.1120  -13.8540   13.6780 N.2   1546  I151546    -0.1482
      8  C8        -6.9170  -13.2410   14.9470 C.2   1546  I151546     0.0196
      9  N9       -10.4600  -13.7180   13.9460 N.2   1546  I151546    -0.1522
     10  C10      -11.7130  -12.8660   15.9620 C.3   1546  I151546     0.0541
     11  C11       -9.7030  -12.5490   19.1130 C.ar  1546  I151546     0.1463
     12  C12       -6.3980  -12.6910   16.1630 C.2   1546  I151546     0.0178
     13  C13      -10.1260  -13.8710   19.2030 C.ar  1546  I151546     0.0478
     14  C14       -9.4440  -11.8010   20.2920 C.ar  1546  I151546     0.0478
     15  C15      -10.2850  -14.4900   20.3850 C.ar  1546  I151546     0.0722
     16  C16       -9.6220  -12.4960   21.4870 C.ar  1546  I151546     0.0722
     17  C17       -9.9900  -13.8290   21.5660 C.ar  1546  I151546     0.0208
     18  C18      -10.6340  -15.8570   20.3480 C.1   1546  I151546     0.1005
     19  C19       -9.4360  -11.7980   22.6850 C.1   1546  I151546     0.1005
     20  N23       -9.2840  -11.2300   23.6610 N.1   1546  I151546    -0.1908
     21  F1        -6.8700  -11.6620   18.4390 F     1546  I151546    -0.2242
     22  N1       -10.9080  -16.9370   20.3200 N.1   1546  I151546    -0.1908
@<TRIPOS>BOND
     1     7     9    1
     2     7     3    2
     3     9     4    2
     4     3     8    1
     5     3     1    1
     6     8    12    2
     7     4     1    1
     8     4    10    1
     9     1     2    2
    10    12     6    1
    11     2     6    1
    12     2     5    1
    13     6    21    1
    14     5    11    1
    15    11    13   ar
    16    11    14   ar
    17    13    15   ar
    18    14    16   ar
    19    22    18    3
    20    18    15    1
    21    15    17   ar
    22    16    17   ar
    23    16    19    1
    24    19    20    3
