@<TRIPOS>MOLECULE
2jlg_GTP_A_1.pdb
 32 34 0 0 0
SMALL
GASTEIGER

@<TRIPOS>ATOM
      1  PG        15.8750  -14.4620   85.8040 P.3   1665  GTP1665     0.5373
      2  O1G       16.6710  -15.6520   85.3200 O.3   1665  GTP1665    -0.1143
      3  O2G       15.4790  -13.5710   84.6450 O.2   1665  GTP1665    -0.2221
      4  O3G       16.6800  -13.6680   86.8050 O.3   1665  GTP1665    -0.1143
      5  O3B       14.5380  -15.0140   86.4920 O.3   1665  GTP1665    -0.2258
      6  PB        14.5460  -16.3690   87.3570 P.3   1665  GTP1665     0.2277
      7  O1B       13.6360  -17.4030   86.7320 O.2   1665  GTP1665    -0.5168
      8  O2B       15.9430  -16.9040   87.5480 O.3   1665  GTP1665    -0.4368
      9  O3A       13.8840  -15.8330   88.7200 O.3   1665  GTP1665    -0.2700
     10  PA        12.4830  -15.0250   88.6330 P.3   1665  GTP1665     0.2189
     11  O1A       12.3310  -14.3080   87.3110 O.2   1665  GTP1665    -0.5170
     12  O2A       12.3320  -14.0430   89.7590 O.3   1665  GTP1665    -0.4371
     13  O5'       11.3860  -16.1760   88.8210 O.3   1665  GTP1665    -0.3112
     14  C5'       11.7670  -17.4360   89.3210 C.3   1665  GTP1665     0.1813
     15  C4'       10.4500  -18.1680   89.4290 C.3   1665  GTP1665     0.1799
     16  O4'       10.5550  -19.3890   90.1170 O.3   1665  GTP1665    -0.3326
     17  C3'        9.5280  -17.3180   90.2720 C.3   1665  GTP1665     0.2158
     18  O3'        8.7580  -16.4500   89.4830 O.3   1665  GTP1665    -0.2175
     19  C2'        8.6630  -18.2960   91.0210 C.3   1665  GTP1665     0.2310
     20  O2'        7.3500  -18.1950   90.5220 O.3   1665  GTP1665    -0.2158
     21  C1'        9.3090  -19.6500   90.7360 C.3   1665  GTP1665     0.2293
     22  N9         9.5010  -20.4050   91.9890 N.pl3 1665  GTP1665    -0.2354
     23  C8        10.4790  -20.2730   92.9440 C.3   1665  GTP1665     0.2246
     24  N7        10.2660  -21.2020   93.9110 N.2   1665  GTP1665    -0.2322
     25  C5         9.1790  -21.9420   93.5730 C.2   1665  GTP1665     0.2182
     26  C6         8.5150  -23.0170   94.1710 C.1   1665  GTP1665     0.2372
     27  O6         8.8950  -23.5000   95.2450 O.2   1665  GTP1665    -0.2069
     28  N1         7.4080  -23.5470   93.5350 N.2   1665  GTP1665    -0.2485
     29  C2         6.9630  -23.0280   92.3330 C.1   1665  GTP1665     0.2531
     30  N2         5.9010  -23.5360   91.7150 N.pl3 1665  GTP1665    -0.0226
     31  N3         7.6200  -21.9740   91.7550 N.2   1665  GTP1665    -0.3074
     32  C4         8.7040  -21.4470   92.3620 C.2   1665  GTP1665     0.2300
@<TRIPOS>BOND
     1     3     1    2
     2     2     1    1
     3     1     5    1
     4     1     4    1
     5     5     6    1
     6     7     6    2
     7    11    10    2
     8     6     8    1
     9     6     9    1
    10    10     9    1
    11    10    13    1
    12    10    12    1
    13    13    14    1
    14    14    15    1
    15    15    16    1
    16    15    17    1
    17    18    17    1
    18    16    21    1
    19    17    19    1
    20    20    19    1
    21    21    19    1
    22    21    22    1
    23    30    29    1
    24    31    29    2
    25    31    32    2
    26    22    32    1
    27    22    23    1
    28    29    28    2
    29    32    25    1
    30    23    24    1
    31    28    26    2
    32    25    24    2
    33    25    26    1
    34    26    27    2
