@<TRIPOS>MOLECULE
2jlo_5FH_A_1.pdb
 14 15 0 0 0
SMALL
GASTEIGER

@<TRIPOS>ATOM
      1  N1         3.6050   12.8220  -27.2730 N.2   1471  5FH1471    -0.1592
      2  C1         3.1010   11.8660  -28.0360 C.1   1471  5FH1471     0.3073
      3  O1         2.2340   11.9350  -28.8770 O.2   1471  5FH1471    -0.1881
      4  N2         3.7410   10.6970  -27.7260 N.2   1471  5FH1471    -0.2449
      5  C2         4.6440   10.8830  -26.7830 C.1   1471  5FH1471     0.2157
      6  O2         5.3630   10.0080  -26.3220 O.2   1471  5FH1471    -0.2114
      7  C3         4.6290   12.3510  -26.3940 C.3   1471  5FH1471     0.2388
      8  C4         4.2940   12.6060  -24.8890 C.3   1471  5FH1471     0.0699
      9  C5         3.2820   11.6520  -24.3060 C.ar  1471  5FH1471    -0.0190
     10  C6         0.9800   10.9000  -23.9850 C.ar  1471  5FH1471    -0.0003
     11  C7         3.7070   10.5420  -23.5180 C.ar  1471  5FH1471    -0.0042
     12  C8         2.7570    9.6260  -22.9780 C.ar  1471  5FH1471    -0.0003
     13  C9         1.4130    9.8080  -23.2160 C.ar  1471  5FH1471    -0.0000
     14  C10        1.9120   11.8170  -24.5280 C.ar  1471  5FH1471    -0.0042
@<TRIPOS>BOND
     1     3     2    2
     2     2     4    2
     3     2     1    2
     4     4     5    2
     5     1     7    1
     6     5     7    1
     7     5     6    2
     8     7     8    1
     9     8     9    1
    10    14     9   ar
    11    14    10   ar
    12     9    11   ar
    13    10    13   ar
    14    11    12   ar
    15    13    12   ar
