@<TRIPOS>MOLECULE
2jlr_ANP_A_1.pdb
 31 33 0 0 0
SMALL
GASTEIGER

@<TRIPOS>ATOM
      1  PG        12.0730    9.0060   27.1110 P.3   1620  ANP1620     0.4884
      2  O1G       11.6040    7.9770   28.2560 O.3   1620  ANP1620    -0.1240
      3  O2G       10.9650    8.8930   25.9540 O.2   1620  ANP1620    -0.2331
      4  O3G       13.4380    8.7200   26.6080 O.3   1620  ANP1620    -0.1240
      5  PB        12.9050   11.0060   28.9560 P.3   1620  ANP1620     0.4669
      6  O1B       14.4190   10.7560   28.5060 O.2   1620  ANP1620    -0.2351
      7  O2B       12.5710   10.3700   30.2530 O.3   1620  ANP1620    -0.1253
      8  N3B       11.8880   10.5490   27.6970 N.3   1620  ANP1620    -0.0163
      9  PA        13.7530   13.6990   28.4820 P.3   1620  ANP1620     0.2220
     10  O1A       14.2720   13.2550   27.0260 O.2   1620  ANP1620    -0.5170
     11  O2A       14.8560   13.9080   29.4490 O.3   1620  ANP1620    -0.4370
     12  O3A       12.6920   12.6080   29.0170 O.3   1620  ANP1620    -0.2360
     13  O5'       12.8760   15.0370   28.2570 O.3   1620  ANP1620    -0.3111
     14  C5'       12.1800   15.5990   29.3740 C.3   1620  ANP1620     0.1813
     15  C4'       11.4290   16.8510   28.9450 C.3   1620  ANP1620     0.1821
     16  O4'       12.3200   17.7260   28.2100 O.3   1620  ANP1620    -0.3135
     17  C3'       10.3040   16.4700   27.9910 C.3   1620  ANP1620     0.2184
     18  O3'        9.1610   17.2930   28.2610 O.3   1620  ANP1620    -0.2174
     19  C2'       10.8590   16.8330   26.6420 C.3   1620  ANP1620     0.2570
     20  O2'        9.7740   17.1570   25.7630 O.3   1620  ANP1620    -0.2130
     21  C1'       11.6540   18.0780   26.9810 C.3   1620  ANP1620     0.3186
     22  N9        12.7010   18.3620   25.9700 N.pl3 1620  ANP1620    -0.1439
     23  C8        13.5060   17.4680   25.4020 C.3   1620  ANP1620     0.3377
     24  N7        14.3200   18.1170   24.5750 N.2   1620  ANP1620    -0.2095
     25  C5        14.0380   19.4160   24.6470 C.2   1620  ANP1620     0.2526
     26  C6        14.5700   20.4720   24.0310 C.2   1620  ANP1620     0.4393
     27  N6        15.5640   20.2240   23.1810 N.pl3 1620  ANP1620     0.2180
     28  N1        14.1310   21.7190   24.2530 N.2   1620  ANP1620     0.0021
     29  C2        13.0860   21.9130   25.1570 C.3   1620  ANP1620     0.5254
     30  N3        12.5500   20.7890   25.7920 N.2   1620  ANP1620    -0.0055
     31  C4        13.0420   19.5690   25.5230 C.2   1620  ANP1620     0.3518
@<TRIPOS>BOND
     1    27    26    1
     2    26    28    2
     3    26    25    1
     4    28    29    1
     5    24    25    2
     6    24    23    1
     7    25    31    1
     8    29    30    1
     9    23    22    1
    10    31    30    2
    11    31    22    1
    12    20    19    1
    13     3     1    2
    14    22    21    1
    15     4     1    1
    16    19    21    1
    17    19    17    1
    18    21    16    1
    19    10     9    2
    20     1     8    1
    21     1     2    1
    22     8     5    1
    23    17    18    1
    24    17    15    1
    25    16    15    1
    26    13     9    1
    27    13    14    1
    28     9    12    1
    29     9    11    1
    30     6     5    2
    31    15    14    1
    32     5    12    1
    33     5     7    1
