@<TRIPOS>MOLECULE
2jls_ADP_A_1.pdb
 27 29 0 0 0
SMALL
GASTEIGER

@<TRIPOS>ATOM
      1  PB         8.4420   11.6770   13.4860 P.3   1620  ADP1620     0.5373
      2  O1B        8.7610   13.1510   13.5360 O.3   1620  ADP1620    -0.1143
      3  O2B        9.3640   10.8870   12.5880 O.2   1620  ADP1620    -0.2221
      4  O3B        6.9770   11.3510   13.3050 O.3   1620  ADP1620    -0.1143
      5  PA         7.7260   10.5370   15.9880 P.3   1620  ADP1620     0.2231
      6  O1A        7.2570    9.2150   15.4270 O.2   1620  ADP1620    -0.5169
      7  O2A        6.7210   11.6080   16.3440 O.3   1620  ADP1620    -0.4370
      8  O3A        8.8120   11.1650   14.9710 O.3   1620  ADP1620    -0.2261
      9  O5'        8.6060   10.2090   17.2920 O.3   1620  ADP1620    -0.3111
     10  C5'        9.2240   11.2390   18.0630 C.3   1620  ADP1620     0.1813
     11  C4'       10.0020   10.6080   19.2150 C.3   1620  ADP1620     0.1821
     12  O4'        9.1290    9.7840   19.9960 O.3   1620  ADP1620    -0.3135
     13  C3'       11.1440    9.7220   18.7290 C.3   1620  ADP1620     0.2184
     14  O3'       12.3070   10.0020   19.5100 O.3   1620  ADP1620    -0.2174
     15  C2'       10.6760    8.3040   18.9970 C.3   1620  ADP1620     0.2570
     16  O2'       11.7590    7.4430   19.3550 O.3   1620  ADP1620    -0.2130
     17  C1'        9.6910    8.4750   20.1490 C.3   1620  ADP1620     0.3186
     18  N9         8.6240    7.4390   20.1750 N.pl3 1620  ADP1620    -0.1439
     19  C8         7.9680    6.9130   19.1200 C.3   1620  ADP1620     0.3377
     20  N7         7.0550    5.9890   19.5180 N.2   1620  ADP1620    -0.2095
     21  C5         7.1140    5.9170   20.8620 C.2   1620  ADP1620     0.2526
     22  C6         6.4270    5.1510   21.9340 C.2   1620  ADP1620     0.4393
     23  N6         5.4610    4.2470   21.6390 N.pl3 1620  ADP1620     0.2180
     24  N1         6.7960    5.3810   23.2190 N.2   1620  ADP1620     0.0021
     25  C2         7.7530    6.2760   23.5380 C.3   1620  ADP1620     0.5254
     26  N3         8.4150    7.0050   22.6180 N.2   1620  ADP1620    -0.0055
     27  C4         8.1490    6.8770   21.2900 C.2   1620  ADP1620     0.3518
@<TRIPOS>BOND
     1     3     1    2
     2     4     1    1
     3     1     2    1
     4     1     8    1
     5     8     5    1
     6     6     5    2
     7     5     7    1
     8     5     9    1
     9     9    10    1
    10    10    11    1
    11    13    15    1
    12    13    11    1
    13    13    14    1
    14    15    16    1
    15    15    17    1
    16    19    20    1
    17    19    18    1
    18    11    12    1
    19    20    21    2
    20    12    17    1
    21    17    18    1
    22    18    27    1
    23    21    27    1
    24    21    22    1
    25    27    26    2
    26    23    22    1
    27    22    24    2
    28    26    25    1
    29    24    25    1
