@<TRIPOS>MOLECULE
2jlv_ANP_A_1.pdb
 31 33 0 0 0
SMALL
GASTEIGER

@<TRIPOS>ATOM
      1  PG        19.1600   -9.1480   38.0440 P.3   1619  ANP1619     0.4884
      2  O1G       20.2430   -8.1330   38.2770 O.3   1619  ANP1619    -0.1240
      3  O2G       18.6850   -9.2310   36.6150 O.2   1619  ANP1619    -0.2331
      4  O3G       17.9740   -9.1350   38.9880 O.3   1619  ANP1619    -0.1240
      5  PB        19.5180  -12.2270   38.0830 P.3   1619  ANP1619     0.4669
      6  O1B       18.7130  -12.3300   36.8010 O.2   1619  ANP1619    -0.2351
      7  O2B       18.9090  -12.8270   39.3350 O.3   1619  ANP1619    -0.1253
      8  N3B       20.0270  -10.6040   38.3970 N.3   1619  ANP1619    -0.0163
      9  PA        21.5540  -13.6280   36.5700 P.3   1619  ANP1619     0.2220
     10  O1A       20.7690  -14.8620   36.2760 O.3   1619  ANP1619    -0.4370
     11  O2A       21.7300  -12.5630   35.5100 O.2   1619  ANP1619    -0.5170
     12  O3A       20.9300  -12.9880   37.9180 O.3   1619  ANP1619    -0.2360
     13  O5'       23.0210  -13.9640   37.1570 O.3   1619  ANP1619    -0.3111
     14  C5'       23.1990  -14.9000   38.2250 C.3   1619  ANP1619     0.1813
     15  C4'       24.6720  -14.9470   38.6300 C.3   1619  ANP1619     0.1821
     16  O4'       25.4440  -15.4440   37.5390 O.3   1619  ANP1619    -0.3135
     17  C3'       25.2350  -13.5710   38.9670 C.3   1619  ANP1619     0.2184
     18  O3'       26.1000  -13.7040   40.0940 O.3   1619  ANP1619    -0.2174
     19  C2'       26.0530  -13.1820   37.7620 C.3   1619  ANP1619     0.2570
     20  O2'       27.1720  -12.3540   38.1040 O.3   1619  ANP1619    -0.2130
     21  C1'       26.4970  -14.5360   37.2260 C.3   1619  ANP1619     0.3186
     22  N9        26.7500  -14.5310   35.7660 N.pl3 1619  ANP1619    -0.1439
     23  C8        25.8640  -14.2340   34.7940 C.3   1619  ANP1619     0.3377
     24  N7        26.4290  -14.3300   33.5670 N.2   1619  ANP1619    -0.2095
     25  C5        27.7120  -14.7040   33.7530 C.2   1619  ANP1619     0.2526
     26  C6        28.8810  -14.9950   32.8850 C.2   1619  ANP1619     0.4393
     27  N6        28.7710  -14.8970   31.5370 N.pl3 1619  ANP1619     0.2180
     28  N1        30.0500  -15.3620   33.4820 N.2   1619  ANP1619     0.0021
     29  C2        30.1600  -15.4690   34.8260 C.3   1619  ANP1619     0.5254
     30  N3        29.1360  -15.2170   35.6690 N.2   1619  ANP1619    -0.0055
     31  C4        27.9170  -14.8370   35.2040 C.2   1619  ANP1619     0.3518
@<TRIPOS>BOND
     1    27    26    1
     2    26    28    2
     3    26    25    1
     4    28    29    1
     5    24    25    2
     6    24    23    1
     7    25    31    1
     8    23    22    1
     9    29    30    1
    10    31    30    2
    11    31    22    1
    12    11     9    2
    13    22    21    1
    14    10     9    1
    15     9    13    1
    16     9    12    1
    17     3     1    2
    18     6     5    2
    19    13    14    1
    20    21    16    1
    21    21    19    1
    22    16    15    1
    23    19    20    1
    24    19    17    1
    25    12     5    1
    26     1     2    1
    27     1     8    1
    28     1     4    1
    29     5     8    1
    30     5     7    1
    31    14    15    1
    32    15    17    1
    33    17    18    1
