@<TRIPOS>MOLECULE
2jlx_ADP_A_1.pdb
 27 29 0 0 0
SMALL
GASTEIGER

@<TRIPOS>ATOM
      1  PB        29.7470  -12.6440   -5.7570 P.3   1619  ADP1619     0.5373
      2  O1B       30.3160  -12.7170   -4.3640 O.3   1619  ADP1619    -0.1143
      3  O2B       30.6130  -13.2770   -6.8140 O.2   1619  ADP1619    -0.2221
      4  O3B       29.2650  -11.2790   -6.1810 O.3   1619  ADP1619    -0.1143
      5  PA        27.7600  -14.0750   -4.2990 P.3   1619  ADP1619     0.2231
      6  O1A       27.6170  -13.0070   -3.2400 O.3   1619  ADP1619    -0.4370
      7  O2A       28.6010  -15.2970   -4.0390 O.2   1619  ADP1619    -0.5169
      8  O3A       28.3430  -13.4320   -5.6600 O.3   1619  ADP1619    -0.2261
      9  O5'       26.2660  -14.4850   -4.7120 O.3   1619  ADP1619    -0.3111
     10  C5'       26.0290  -15.5280   -5.6620 C.3   1619  ADP1619     0.1813
     11  C4'       24.5740  -15.4840   -6.1270 C.3   1619  ADP1619     0.1821
     12  O4'       23.7230  -16.0450   -5.1230 O.3   1619  ADP1619    -0.3135
     13  C3'       24.0960  -14.0600   -6.3770 C.3   1619  ADP1619     0.2184
     14  O3'       23.5870  -13.9850   -7.7060 O.3   1619  ADP1619    -0.2174
     15  C2'       23.0010  -13.7930   -5.3610 C.3   1619  ADP1619     0.2570
     16  O2'       21.8480  -13.1930   -5.9620 O.3   1619  ADP1619    -0.2130
     17  C1'       22.6510  -15.1580   -4.7820 C.3   1619  ADP1619     0.3186
     18  N9        22.4870  -15.1100   -3.3010 N.pl3 1619  ADP1619    -0.1439
     19  C8        23.3770  -14.5950   -2.4290 C.3   1619  ADP1619     0.3377
     20  N7        22.9450  -14.7050   -1.1480 N.2   1619  ADP1619    -0.2095
     21  C5        21.7470  -15.3140   -1.1800 C.2   1619  ADP1619     0.2526
     22  C6        20.7400  -15.7380   -0.1690 C.2   1619  ADP1619     0.4393
     23  N6        20.9570  -15.5210    1.1540 N.pl3 1619  ADP1619     0.2180
     24  N1        19.6080  -16.3480   -0.6190 N.2   1619  ADP1619     0.0021
     25  C2        19.3920  -16.5670   -1.9370 C.3   1619  ADP1619     0.5254
     26  N3        20.2670  -16.2070   -2.9070 N.2   1619  ADP1619    -0.0055
     27  C4        21.4450  -15.5870   -2.6010 C.2   1619  ADP1619     0.3518
@<TRIPOS>BOND
     1    14    13    1
     2     3     1    2
     3    13    11    1
     4    13    15    1
     5     4     1    1
     6    11    10    1
     7    11    12    1
     8    16    15    1
     9     1     8    1
    10     1     2    1
    11    10     9    1
    12     8     5    1
    13    15    17    1
    14    12    17    1
    15    17    18    1
    16     9     5    1
    17     5     7    2
    18     5     6    1
    19    18    27    1
    20    18    19    1
    21    26    27    2
    22    26    25    1
    23    27    21    1
    24    19    20    1
    25    25    24    1
    26    21    20    2
    27    21    22    1
    28    24    22    2
    29    22    23    1
