@<TRIPOS>MOLECULE
2jly_ADP_A_1.pdb
 27 29 0 0 0
SMALL
GASTEIGER

@<TRIPOS>ATOM
      1  PB       -29.4920  -12.3370    6.0300 P.3   1619  ADP1619     0.5373
      2  O1B      -30.1930  -12.5130    4.7040 O.2   1619  ADP1619    -0.2221
      3  O2B      -28.9270  -10.9560    6.2500 O.3   1619  ADP1619    -0.1143
      4  O3B      -30.2800  -12.8650    7.2030 O.3   1619  ADP1619    -0.1143
      5  PA       -27.5610  -13.9240    4.6050 P.3   1619  ADP1619     0.2231
      6  O1A      -28.3920  -15.1430    4.2930 O.3   1619  ADP1619    -0.4370
      7  O2A      -27.3740  -12.8860    3.5270 O.2   1619  ADP1619    -0.5169
      8  O3A      -28.1620  -13.2500    5.9450 O.3   1619  ADP1619    -0.2261
      9  O5'      -26.0990  -14.4140    5.0790 O.3   1619  ADP1619    -0.3111
     10  C5'      -25.8910  -15.1820    6.2670 C.3   1619  ADP1619     0.1813
     11  C4'      -24.4010  -15.2520    6.6210 C.3   1619  ADP1619     0.1821
     12  O4'      -23.6430  -15.7530    5.5160 O.3   1619  ADP1619    -0.3135
     13  C3'      -23.8000  -13.8970    6.9550 C.3   1619  ADP1619     0.2184
     14  O3'      -22.8890  -14.0510    8.0430 O.3   1619  ADP1619    -0.2174
     15  C2'      -23.0260  -13.5100    5.7170 C.3   1619  ADP1619     0.2570
     16  O2'      -21.9270  -12.6550    6.0220 O.3   1619  ADP1619    -0.2130
     17  C1'      -22.5780  -14.8580    5.1850 C.3   1619  ADP1619     0.3186
     18  N9       -22.3200  -14.8540    3.7200 N.pl3 1619  ADP1619    -0.1439
     19  C8       -23.1630  -14.4410    2.7550 C.3   1619  ADP1619     0.3377
     20  N7       -22.6110  -14.5810    1.5280 N.2   1619  ADP1619    -0.2095
     21  C5       -21.3870  -15.1080    1.6970 C.2   1619  ADP1619     0.2526
     22  C6       -20.2630  -15.5160    0.8130 C.2   1619  ADP1619     0.4393
     23  N6       -20.3580  -15.3790   -0.5360 N.pl3 1619  ADP1619     0.2180
     24  N1       -19.1490  -16.0290    1.3950 N.2   1619  ADP1619     0.0021
     25  C2       -19.0420  -16.1670    2.7350 C.3   1619  ADP1619     0.5254
     26  N3       -20.0210  -15.8170    3.5910 N.2   1619  ADP1619    -0.0055
     27  C4       -21.1960  -15.2880    3.1430 C.2   1619  ADP1619     0.3518
@<TRIPOS>BOND
     1    23    22    1
     2    22    24    2
     3    22    21    1
     4    24    25    1
     5    20    21    2
     6    20    19    1
     7    21    27    1
     8    25    26    1
     9    19    18    1
    10    27    26    2
    11    27    18    1
    12     7     5    2
    13    18    17    1
    14     6     5    1
    15     5     9    1
    16     5     8    1
    17     2     1    2
    18     9    10    1
    19    17    12    1
    20    17    15    1
    21    12    11    1
    22    15    16    1
    23    15    13    1
    24     8     1    1
    25     1     3    1
    26     1     4    1
    27    10    11    1
    28    11    13    1
    29    13    14    1
