@<TRIPOS>MOLECULE
2jlz_ADP_A_1.pdb
 27 29 0 0 0
SMALL
GASTEIGER

@<TRIPOS>ATOM
      1  PB        30.2100   -2.3900   -5.8390 P.3   1619  ADP1619     0.5373
      2  O1B       30.9970   -2.6300   -4.5840 O.3   1619  ADP1619    -0.1143
      3  O2B       30.8540   -2.9290   -7.0990 O.2   1619  ADP1619    -0.2221
      4  O3B       29.7470   -0.9590   -6.0050 O.3   1619  ADP1619    -0.1143
      5  PA        28.1970   -3.9370   -4.3660 P.3   1619  ADP1619     0.2231
      6  O1A       27.9000   -2.9700   -3.2530 O.3   1619  ADP1619    -0.4370
      7  O2A       29.0150   -5.1600   -4.0590 O.2   1619  ADP1619    -0.5169
      8  O3A       28.8070   -3.1910   -5.6800 O.3   1619  ADP1619    -0.2261
      9  O5'       26.7450   -4.3680   -4.9170 O.3   1619  ADP1619    -0.3111
     10  C5'       26.5500   -5.2320   -6.0390 C.3   1619  ADP1619     0.1813
     11  C4'       25.0580   -5.3130   -6.3500 C.3   1619  ADP1619     0.1821
     12  O4'       24.3640   -5.8300   -5.2020 O.3   1619  ADP1619    -0.3135
     13  C3'       24.4630   -3.9380   -6.6570 C.3   1619  ADP1619     0.2184
     14  O3'       23.5780   -3.9960   -7.7790 O.3   1619  ADP1619    -0.2174
     15  C2'       23.6750   -3.6150   -5.4160 C.3   1619  ADP1619     0.2570
     16  O2'       22.5790   -2.7320   -5.6530 O.3   1619  ADP1619    -0.2130
     17  C1'       23.2550   -4.9870   -4.9010 C.3   1619  ADP1619     0.3186
     18  N9        22.9730   -4.8660   -3.4530 N.pl3 1619  ADP1619    -0.1439
     19  C8        23.8200   -4.3830   -2.5290 C.3   1619  ADP1619     0.3377
     20  N7        23.2650   -4.3650   -1.2970 N.2   1619  ADP1619    -0.2095
     21  C5        22.0210   -4.8500   -1.4250 C.2   1619  ADP1619     0.2526
     22  C6        20.8900   -5.1070   -0.5070 C.2   1619  ADP1619     0.4393
     23  N6        21.0030   -4.8290    0.8140 N.pl3 1619  ADP1619     0.2180
     24  N1        19.7580   -5.6240   -1.0360 N.2   1619  ADP1619     0.0021
     25  C2        19.6440   -5.9100   -2.3530 C.3   1619  ADP1619     0.5254
     26  N3        20.6330   -5.7010   -3.2460 N.2   1619  ADP1619    -0.0055
     27  C4        21.8260   -5.1780   -2.8490 C.2   1619  ADP1619     0.3518
@<TRIPOS>BOND
     1    14    13    1
     2     3     1    2
     3    13    11    1
     4    13    15    1
     5    11    10    1
     6    11    12    1
     7    10     9    1
     8     4     1    1
     9     1     8    1
    10     1     2    1
    11     8     5    1
    12    16    15    1
    13    15    17    1
    14    12    17    1
    15     9     5    1
    16    17    18    1
    17     5     7    2
    18     5     6    1
    19    18    27    1
    20    18    19    1
    21    26    27    2
    22    26    25    1
    23    27    21    1
    24    19    20    1
    25    25    24    1
    26    21    20    2
    27    21    22    1
    28    24    22    2
    29    22    23    1
