@<TRIPOS>MOLECULE
2jnp_NGH_A_1.pdb
 40 40 0 0 0
SMALL
GASTEIGER

@<TRIPOS>ATOM
      1  C1         6.3150    1.5170    3.3910 C.ar  253  NGH253     -0.0319
      2  C2         6.6380    1.5560    2.0360 C.ar  253  NGH253     -0.0181
      3  C3         5.6600    1.8600    1.0930 C.ar  253  NGH253      0.1202
      4  C4         4.3500    2.0650    1.5100 C.ar  253  NGH253     -0.0181
      5  C5         4.0130    1.9840    2.8620 C.ar  253  NGH253     -0.0319
      6  C6         5.0000    1.7170    3.8110 C.ar  253  NGH253      0.1057
      7  O1         5.9480    1.9420   -0.2510 O.3   253  NGH253     -0.4951
      8  C7         7.1380    1.3270   -0.8150 C.3   253  NGH253      0.0788
      9  S1         4.6030    1.7130    5.5610 S.O2  253  NGH253      0.0612
     10  O2         3.2770    2.2920    5.7390 O.2   253  NGH253     -0.1528
     11  O3         5.6470    2.3390    6.3570 O.2   253  NGH253     -0.1528
     12  N          4.5010    0.1580    6.0890 N.3   253  NGH253     -0.1702
     13  C9         5.7190   -0.6690    6.3130 C.3   253  NGH253      0.0233
     14  C10        3.2130   -0.4450    6.5250 C.3   253  NGH253      0.0661
     15  C11        2.6170   -1.4380    5.5520 C.2   253  NGH253      0.0714
     16  N1         1.8000   -0.9330    4.6050 N.am  253  NGH253     -0.3100
     17  O4         1.1360   -1.6650    3.8020 O.3   253  NGH253     -0.4230
     18  O5         2.8760   -2.6280    5.6000 O.2   253  NGH253     -0.5408
     19  C12        6.5150   -0.3390    7.6070 C.3   253  NGH253     -0.0323
     20  C13        7.6800   -1.3390    7.7520 C.3   253  NGH253     -0.0615
     21  C14        5.6380   -0.3710    8.8790 C.3   253  NGH253     -0.0615
     22  H1         7.0980    1.3550    4.1240 H     253  NGH253      0.0638
     23  H2         7.6660    1.3850    1.7290 H     253  NGH253      0.0655
     24  H4         3.5900    2.3020    0.7750 H     253  NGH253      0.0655
     25  H5         2.9870    2.1650    3.1770 H     253  NGH253      0.0638
     26  H71        7.2220    0.2970   -0.4620 H     253  NGH253      0.0660
     27  H72        8.0240    1.8940   -0.5160 H     253  NGH253      0.0660
     28  H73        7.0560    1.3210   -1.9040 H     253  NGH253      0.0660
     29  H91        6.3930   -0.5250    5.4660 H     253  NGH253      0.0447
     30  H92        5.4340   -1.7240    6.3410 H     253  NGH253      0.0447
     31 H101        2.4560    0.3190    6.7170 H     253  NGH253      0.0512
     32 H102        3.3620   -0.9920    7.4580 H     253  NGH253      0.0512
     33  HN1        1.6440    0.0780    4.5830 H     253  NGH253      0.1546
     34  H12        6.9560    0.6560    7.5230 H     253  NGH253      0.0308
     35 H131        8.3300   -1.2970    6.8760 H     253  NGH253      0.0233
     36 H132        7.3040   -2.3600    7.8550 H     253  NGH253      0.0233
     37 H133        8.2820   -1.1020    8.6330 H     253  NGH253      0.0233
     38 H141        4.8540    0.3860    8.8320 H     253  NGH253      0.0233
     39 H142        6.2440   -0.1640    9.7660 H     253  NGH253      0.0233
     40 H143        5.1710   -1.3510    9.0040 H     253  NGH253      0.0233
@<TRIPOS>BOND
     1    28     8    1
     2     8    27    1
     3     8    26    1
     4     8     7    1
     5     7     3    1
     6    24     4    1
     7     3     4   ar
     8     3     2   ar
     9     4     5   ar
    10    23     2    1
    11     2     1   ar
    12     5    25    1
    13     5     6   ar
    14     1     6   ar
    15     1    22    1
    16    17    16    1
    17     6     9    1
    18    33    16    1
    19    16    15   am
    20    29    13    1
    21    15    18    2
    22    15    14    1
    23     9    10    2
    24     9    12    1
    25     9    11    2
    26    12    13    1
    27    12    14    1
    28    13    30    1
    29    13    19    1
    30    14    31    1
    31    14    32    1
    32    35    20    1
    33    34    19    1
    34    19    20    1
    35    19    21    1
    36    20    36    1
    37    20    37    1
    38    38    21    1
    39    21    40    1
    40    21    39    1
