@<TRIPOS>MOLECULE
2jpr_JPR_A_1.pdb
 50 51 0 0 0
SMALL
GASTEIGER

@<TRIPOS>ATOM
      1 CL1       -23.8780   12.3160   -5.7660 Cl    146  JPR146     -0.0832
      2  C1       -23.1900   13.1670   -2.8510 C.3   146  JPR146     -0.0383
      3  N1       -28.6900   12.2600   -4.1630 N.am  146  JPR146     -0.2694
      4  O1       -29.9500   12.5700   -2.3020 O.2   146  JPR146     -0.2525
      5  S1       -32.7010   10.5740   -6.3070 S.3   146  JPR146     -0.1514
      6  C2       -24.6520   13.0580   -3.2390 C.ar  146  JPR146     -0.0320
      7  N2       -30.8520   11.8770   -4.2330 N.am  146  JPR146     -0.2984
      8  O2       -35.9170    8.8560   -5.4040 O.2   146  JPR146     -0.4656
      9  C3       -25.6280   13.3260   -2.2830 C.ar  146  JPR146     -0.0557
     10  N3       -36.8090    7.8200   -2.4770 N.4   146  JPR146      0.3807
     11  C4       -25.0390   12.6410   -4.5170 C.ar  146  JPR146      0.0456
     12  C5       -26.9710   13.0910   -2.5600 C.ar  146  JPR146     -0.0401
     13  C6       -26.3860   12.4420   -4.8020 C.ar  146  JPR146     -0.0218
     14  C7       -27.3490   12.5960   -3.8070 C.ar  146  JPR146      0.0362
     15  C8       -29.8330   12.2830   -3.4720 C.2   146  JPR146      0.3039
     16  C9       -32.2460   11.7870   -3.7840 C.3   146  JPR146      0.0221
     17  C10      -33.0390   10.6860   -4.5110 C.3   146  JPR146      0.0097
     18  C11      -34.2980    9.9470   -6.9550 C.3   146  JPR146      0.0519
     19  C12      -34.7690    8.7660   -6.1560 C.ar  146  JPR146      0.1149
     20  C13      -34.1250    7.5620   -6.0760 C.ar  146  JPR146     -0.0197
     21  C14      -34.9140    6.7860   -5.1750 C.ar  146  JPR146     -0.0223
     22  C15      -35.9490    7.6110   -4.8200 C.ar  146  JPR146      0.0889
     23  C16      -37.0480    7.2390   -3.8580 C.3   146  JPR146     -0.0313
     24  C17      -37.0240    9.3210   -2.4610 C.3   146  JPR146     -0.1030
     25  C18      -37.6950    7.1500   -1.4480 C.3   146  JPR146     -0.1030
     26  H11      -22.6170   13.6770   -3.6250 H     146  JPR146      0.0278
     27  H12      -22.7740   12.1680   -2.7100 H     146  JPR146      0.0278
     28 H13A      -23.0640   13.7120   -1.9150 H     146  JPR146      0.0278
     29  HN1      -28.7880   12.0220   -5.1380 H     146  JPR146      0.1564
     30  HN2      -30.6550   11.6140   -5.1830 H     146  JPR146      0.1503
     31  H3       -25.3400   13.6940   -1.3060 H     146  JPR146      0.0621
     32  H5       -27.7150   13.2780   -1.7940 H     146  JPR146      0.0636
     33  H6       -26.6700   12.1070   -5.7970 H     146  JPR146      0.0651
     34  H91      -32.7230   12.7530   -3.9810 H     146  JPR146      0.0470
     35  H92      -32.2850   11.6050   -2.7040 H     146  JPR146      0.0470
     36 H101      -32.8020    9.7180   -4.0600 H     146  JPR146      0.0392
     37 H102      -34.1040   10.8790   -4.3560 H     146  JPR146      0.0392
     38 H111      -35.0360   10.7510   -6.9000 H     146  JPR146      0.0456
     39 H112      -34.1710    9.6730   -8.0060 H     146  JPR146      0.0456
     40  H13      -33.2040    7.2870   -6.5830 H     146  JPR146      0.0652
     41  H14      -34.7400    5.7700   -4.8260 H     146  JPR146      0.0651
     42 H161      -37.0660    6.1490   -3.7790 H     146  JPR146      0.0137
     43 H162      -38.0040    7.6000   -4.2440 H     146  JPR146      0.0137
     44 H171      -38.0630    9.5360   -2.7240 H     146  JPR146      0.0023
     45 H172      -36.3520    9.7830   -3.1880 H     146  JPR146      0.0023
     46 H173      -36.8040    9.7010   -1.4600 H     146  JPR146      0.0023
     47 H181      -38.7420    7.3260   -1.7070 H     146  JPR146      0.0023
     48 H182      -37.4770    7.5710   -0.4630 H     146  JPR146      0.0023
     49 H183      -37.4830    6.0780   -1.4450 H     146  JPR146      0.0023
     50  HN3      -35.7940    7.6170   -2.2260 H     146  JPR146     -0.0820
@<TRIPOS>BOND
     1    39    18    1
     2    18    38    1
     3    18     5    1
     4    18    19    1
     5    40    20    1
     6     5    17    1
     7    19    20   ar
     8    19     8   ar
     9    20    21   ar
    10    33    13    1
    11     1    11    1
    12     8    22   ar
    13    30     7    1
    14    21    41    1
    15    21    22   ar
    16    29     3    1
    17    22    23    1
    18    13    11   ar
    19    13    14   ar
    20    11     6   ar
    21    17    37    1
    22    17    36    1
    23    17    16    1
    24    43    23    1
    25     7    16    1
    26     7    15   am
    27     3    14    1
    28     3    15   am
    29    34    16    1
    30    23    42    1
    31    23    10    1
    32    14    12   ar
    33    16    35    1
    34    26     2    1
    35    15     4    2
    36     6     2    1
    37     6     9   ar
    38    45    24    1
    39     2    27    1
    40     2    28    1
    41    44    24    1
    42    12     9   ar
    43    12    32    1
    44    10    24    1
    45    10    50    1
    46    10    25    1
    47    24    46    1
    48     9    31    1
    49    47    25    1
    50    25    49    1
    51    25    48    1
