@<TRIPOS>MOLECULE
2jsd_NGH_A_1.pdb
 40 40 0 0 0
SMALL
GASTEIGER

@<TRIPOS>ATOM
      1  C1         7.0980   -5.6930    3.6030 C.ar  277  NGH277     -0.0319
      2  C2         6.6160   -6.1160    2.3650 C.ar  277  NGH277     -0.0181
      3  C3         6.0900   -5.1950    1.4600 C.ar  277  NGH277      0.1202
      4  C4         6.0900   -3.8570    1.7900 C.ar  277  NGH277     -0.0181
      5  C5         6.5660   -3.4290    3.0170 C.ar  277  NGH277     -0.0319
      6  C6         7.0430   -4.3450    3.9500 C.ar  277  NGH277      0.1057
      7  O1         5.5410   -5.5710    0.2580 O.3   277  NGH277     -0.4951
      8  C7         6.2410   -6.4310   -0.6560 C.3   277  NGH277      0.0788
      9  S1         7.5470   -3.7500    5.5520 S.O2  277  NGH277      0.0612
     10  O2         7.3280   -2.3080    5.5350 O.2   277  NGH277     -0.1528
     11  O3         8.9040   -4.1860    5.8440 O.2   277  NGH277     -0.1528
     12  N          6.5730   -4.3820    6.7360 N.3   277  NGH277     -0.1702
     13  C9         6.6020   -5.8470    7.1110 C.3   277  NGH277      0.0233
     14  C10        5.3850   -3.5940    7.1700 C.3   277  NGH277      0.0661
     15  C11        4.0980   -3.8260    6.4040 C.2   277  NGH277      0.0714
     16  N1         4.1690   -3.6450    5.0800 N.am  277  NGH277     -0.3100
     17  O4         3.4260   -4.2840    4.2810 O.3   277  NGH277     -0.4230
     18  O5         3.0920   -4.2270    6.9460 O.2   277  NGH277     -0.5408
     19  C12        7.9320   -6.1400    7.8790 C.3   277  NGH277     -0.0323
     20  C13        8.8960   -7.0090    7.0530 C.3   277  NGH277     -0.0615
     21  C14        7.6020   -6.8190    9.2240 C.3   277  NGH277     -0.0615
     22  H1         7.4710   -6.4230    4.3090 H     277  NGH277      0.0638
     23  H2         6.6260   -7.1670    2.1290 H     277  NGH277      0.0655
     24  H4         5.6730   -3.1350    1.1100 H     277  NGH277      0.0655
     25  H5         6.5010   -2.3750    3.2500 H     277  NGH277      0.0638
     26  H71        7.1240   -5.8970   -1.0060 H     277  NGH277      0.0660
     27  H72        5.5850   -6.6350   -1.5050 H     277  NGH277      0.0660
     28  H73        6.5210   -7.3680   -0.1600 H     277  NGH277      0.0660
     29  H91        6.4660   -6.5390    6.2750 H     277  NGH277      0.0447
     30  H92        5.7300   -6.1530    7.6890 H     277  NGH277      0.0447
     31 H101        5.5950   -2.5250    7.1310 H     277  NGH277      0.0512
     32 H102        5.1950   -3.8400    8.2090 H     277  NGH277      0.0512
     33  HN1        4.7310   -2.8620    4.7510 H     277  NGH277      0.1546
     34  H12        8.5010   -5.2180    8.0820 H     277  NGH277      0.0308
     35 H131        8.9300   -6.7080    6.0030 H     277  NGH277      0.0233
     36 H132        8.5760   -8.0380    7.0960 H     277  NGH277      0.0233
     37 H133        9.9060   -6.9530    7.4670 H     277  NGH277      0.0233
     38 H141        7.0010   -6.1530    9.8470 H     277  NGH277      0.0233
     39 H142        8.5190   -7.0340    9.7690 H     277  NGH277      0.0233
     40 H143        7.0590   -7.7590    9.0780 H     277  NGH277      0.0233
@<TRIPOS>BOND
     1    27     8    1
     2    26     8    1
     3     8    28    1
     4     8     7    1
     5     7     3    1
     6    24     4    1
     7     3     4   ar
     8     3     2   ar
     9     4     5   ar
    10    23     2    1
    11     2     1   ar
    12     5    25    1
    13     5     6   ar
    14     1     6   ar
    15     1    22    1
    16     6     9    1
    17    17    16    1
    18    33    16    1
    19    16    15   am
    20    10     9    2
    21     9    11    2
    22     9    12    1
    23    35    20    1
    24    29    13    1
    25    15    18    2
    26    15    14    1
    27    12    13    1
    28    12    14    1
    29    20    36    1
    30    20    37    1
    31    20    19    1
    32    13    30    1
    33    13    19    1
    34    31    14    1
    35    14    32    1
    36    19    34    1
    37    19    21    1
    38    40    21    1
    39    21    39    1
    40    21    38    1
