@<TRIPOS>MOLECULE
2jt5_JT5_A_1.pdb
 41 42 0 0 0
SMALL
GASTEIGER

@<TRIPOS>ATOM
      1  C3         4.8520   -2.1340    7.1630 C.2     1  JT51        0.0714
      2  C4         5.0980   -0.9580    8.1440 C.3     1  JT51        0.0662
      3  C8         6.9120   -1.8460    9.5530 C.3     1  JT51        0.0441
      4  N2         3.5400   -2.6610    7.1380 N.am    1  JT51       -0.3100
      5  O1         3.1530   -3.6060    6.4240 O.3     1  JT51       -0.4230
      6  O5         5.8200   -2.5440    6.4710 O.2     1  JT51       -0.5408
      7  N6         6.4230   -0.8040    8.6900 N.3     1  JT51       -0.1683
      8  S7         7.3380    0.4800    8.3570 S.O2    1  JT51        0.0613
      9  C9         7.7510   -2.9330    8.8600 C.3     1  JT51        0.0586
     10  O10        8.7340   -3.4200    9.7420 O.3     1  JT51       -0.3937
     11  O11        8.5590    0.4380    9.0860 O.2     1  JT51       -0.1528
     12  C12        7.6700    0.3980    6.6820 C.ar    1  JT51        0.1055
     13  O13        6.6120    1.6870    8.5240 O.2     1  JT51       -0.1528
     14  C14        8.4260   -0.6550    6.1610 C.ar    1  JT51       -0.0348
     15  C15        8.7090   -0.7280    4.8010 C.ar    1  JT51       -0.0522
     16  C16        8.2400    0.2630    3.9280 C.ar    1  JT51       -0.0178
     17  C17        7.4810    1.3220    4.4470 C.ar    1  JT51       -0.0522
     18  C18        7.2050    1.3820    5.8090 C.ar    1  JT51       -0.0348
     19  C19        8.5380    0.1920    2.5010 C.ar    1  JT51       -0.0179
     20  C20        7.8200    0.9710    1.5820 C.ar    1  JT51       -0.0540
     21  C21        8.1070    0.8970    0.2210 C.ar    1  JT51       -0.0612
     22  C22        9.1100    0.0440   -0.2390 C.ar    1  JT51       -0.0617
     23  C23        9.8270   -0.7360    0.6680 C.ar    1  JT51       -0.0612
     24  C24        9.5430   -0.6650    2.0300 C.ar    1  JT51       -0.0540
     25  H25        2.9100   -2.1660    7.7940 H       1  JT51        0.1546
     26  H26        4.4060   -1.0690    9.0380 H       1  JT51        0.0512
     27  H27        4.8110   -0.0270    7.5720 H       1  JT51        0.0512
     28  H28        6.0060   -2.3520   10.0110 H       1  JT51        0.0467
     29  H29        7.5300   -1.3930   10.3840 H       1  JT51        0.0467
     30  H30        8.2700   -2.4920    7.9580 H       1  JT51        0.0570
     31  H31        7.1200   -3.8130    8.5730 H       1  JT51        0.0570
     32  H32        9.5920   -3.1020    9.4040 H       1  JT51        0.2095
     33  H33        8.8010   -1.4400    6.8440 H       1  JT51        0.0637
     34  H34        9.3040   -1.5640    4.4070 H       1  JT51        0.0624
     35  H35        7.1030    2.1060    3.7730 H       1  JT51        0.0624
     36  H36        6.6090    2.2200    6.2110 H       1  JT51        0.0637
     37  H37        7.0270    1.6440    1.9430 H       1  JT51        0.0624
     38  H38        7.5390    1.5140   -0.4900 H       1  JT51        0.0618
     39  H39        9.3350   -0.0120   -1.3140 H       1  JT51        0.0618
     40  H40       10.6190   -1.4100    0.3080 H       1  JT51        0.0618
     41  H41       10.1190   -1.2720    2.7460 H       1  JT51        0.0624
@<TRIPOS>BOND
     1    39    22    1
     2    38    21    1
     3    22    21   ar
     4    22    23   ar
     5    21    20   ar
     6    40    23    1
     7    23    24   ar
     8    20    37    1
     9    20    19   ar
    10    24    19   ar
    11    24    41    1
    12    19    16    1
    13    35    17    1
    14    16    17   ar
    15    16    15   ar
    16    34    15    1
    17    17    18   ar
    18    15    14   ar
    19    18    36    1
    20    18    12   ar
    21    14    12   ar
    22    14    33    1
    23     5     4    1
    24     6     1    2
    25    12     8    1
    26     4     1   am
    27     4    25    1
    28     1     2    1
    29    27     2    1
    30    30     9    1
    31     2     7    1
    32     2    26    1
    33     8    13    2
    34     8     7    1
    35     8    11    2
    36    31     9    1
    37     7     3    1
    38     9     3    1
    39     9    10    1
    40    32    10    1
    41     3    28    1
    42     3    29    1
