@<TRIPOS>MOLECULE
2jt6_JT6_A_1.pdb
 34 35 0 0 0
SMALL
GASTEIGER

@<TRIPOS>ATOM
      1  C17       11.3940    0.0520   -1.5700 C.ar    1  JT61        0.0518
      2  C16       11.4410   -0.9730   -0.5830 C.ar    1  JT61       -0.0438
      3  C15       10.7990   -0.8480    0.6580 C.ar    1  JT61       -0.0528
      4  C14       10.1130    0.3370    1.0590 C.ar    1  JT61       -0.0178
      5  C13        8.1800   -0.6010    4.2810 C.ar    1  JT61       -0.0194
      6  C12        8.8550   -0.6810    3.0540 C.ar    1  JT61       -0.0506
      7  C10        9.1540    1.6970    3.0210 C.ar    1  JT61       -0.0506
      8  C9         8.4960    1.8230    4.2480 C.ar    1  JT61       -0.0194
      9  C18       10.7850    1.2690   -1.1540 C.ar    1  JT61       -0.0438
     10  C8         7.8510    0.6890    4.8380 C.ar    1  JT61        0.1206
     11  C19       10.1770    1.4090    0.1030 C.ar    1  JT61       -0.0528
     12  C1         5.4980   -2.0410    6.6150 C.2     1  JT61        0.0587
     13  C6         5.7720    0.5180    6.1630 C.3     1  JT61        0.0953
     14  C3         5.9300   -0.6420    7.1120 C.3     1  JT61        0.0273
     15  N2         4.2080   -2.2570    6.5280 N.am    1  JT61       -0.3110
     16  O4         6.4120   -2.8490    6.3150 O.2     1  JT61       -0.5421
     17  O5         3.4930   -3.2480    6.1500 O.3     1  JT61       -0.4230
     18  O7         7.0120    0.9740    5.8020 O.3     1  JT61       -0.4916
     19  C11        9.3810    0.4480    2.3670 C.ar    1  JT61       -0.0177
     20  C20       11.9330   -0.1310   -2.9080 C.1     1  JT61        0.0992
     21  N21       12.3630   -0.2780   -3.9770 N.1     1  JT61       -0.1909
     22  H31       10.8330   -1.7140    1.3460 H       1  JT61        0.0624
     23  H32       12.0050   -1.9030   -0.7940 H       1  JT61        0.0631
     24  H22        3.6520   -1.4050    6.8430 H       1  JT61        0.1545
     25  H23        6.9840   -0.6310    7.5060 H       1  JT61        0.0365
     26  H24        5.3550   -0.4050    8.0500 H       1  JT61        0.0365
     27  H25        5.1450    1.3570    6.5910 H       1  JT61        0.0700
     28  H26        5.1920    0.2450    5.2270 H       1  JT61        0.0700
     29  H27        8.4880    2.8130    4.7380 H       1  JT61        0.0654
     30  H28        9.5220    2.6250    2.5360 H       1  JT61        0.0625
     31  H29        8.9790   -1.6860    2.5990 H       1  JT61        0.0625
     32  H30        7.9360   -1.5450    4.8000 H       1  JT61        0.0654
     33  H33       10.7870    2.1390   -1.8370 H       1  JT61        0.0631
     34  H34        9.7420    2.3950    0.3580 H       1  JT61        0.0624
@<TRIPOS>BOND
     1    21    20    3
     2    20     1    1
     3    33     9    1
     4     1     9   ar
     5     1     2   ar
     6     9    11   ar
     7    23     2    1
     8     2     3   ar
     9    11    34    1
    10    11     4   ar
    11     3     4   ar
    12     3    22    1
    13     4    19    1
    14    19     7   ar
    15    19     6   ar
    16    30     7    1
    17    31     6    1
    18     7     8   ar
    19     6     5   ar
    20     8    29    1
    21     8    10   ar
    22     5    32    1
    23     5    10   ar
    24    10    18    1
    25    28    13    1
    26    18    13    1
    27    17    15    1
    28    13    27    1
    29    13    14    1
    30    16    12    2
    31    15    12   am
    32    15    24    1
    33    12    14    1
    34    14    25    1
    35    14    26    1
