@<TRIPOS>MOLECULE
2ju4_RCY_A_1.pdb
 19 20 0 0 0
SMALL
GASTEIGER

@<TRIPOS>ATOM
      1  C1C       59.3920    1.9980   -0.9600 C.3   110  RCY110      0.0198
      2  O1G       59.8240    4.1540   -3.1960 O.2   110  RCY110     -0.2745
      3  O1H       55.2660    3.0140   -2.7190 O.2   110  RCY110     -0.2748
      4  O1J       56.8200    1.1850    0.3780 O.3   110  RCY110     -0.1181
      5  C1L       57.7780    5.4810   -2.9930 C.3   110  RCY110      0.0905
      6  C1M       56.9800    0.6350   -3.4140 C.3   110  RCY110      0.0331
      7  C1P       58.5980    4.1890   -3.1020 C.2   110  RCY110      0.2312
      8  C1Q       56.3090    3.5660   -3.0670 C.2   110  RCY110      0.2270
      9  N1R       57.7030    2.9510   -3.0790 N.am  110  RCY110     -0.2357
     10  C1S       56.4430    4.9930   -3.5670 C.3   110  RCY110      0.0642
     11  C1U       58.0940    1.4720   -3.0700 C.3   110  RCY110      0.0642
     12  C1V       59.1720   -0.4010   -1.7500 C.3   110  RCY110      0.0198
     13  N1V       57.1510    0.8800   -1.0110 N.4   110  RCY110     -0.1371
     14  C1W       56.2100    0.3920   -2.1100 C.3   110  RCY110      0.0741
     15  C1X       58.5120    0.9780   -1.6860 C.3   110  RCY110      0.0849
     16  C1Y       55.9070   -1.0980   -1.9330 C.3   110  RCY110      0.0186
     17  C1Z       54.9200    1.2120   -2.0660 C.3   110  RCY110      0.0186
     18  H1S       56.0000    4.6080   -4.4730 H     110  RCY110      0.0413
     19  H1U       58.8990    1.3070   -3.7700 H     110  RCY110      0.0531
@<TRIPOS>BOND
     1    18    10    1
     2    19    11    1
     3    10     8    1
     4    10     5    1
     5     6    11    1
     6     6    14    1
     7     2     7    2
     8     7     9   am
     9     7     5    1
    10     9    11    1
    11     9     8   am
    12    11    15    1
    13     8     3    2
    14    14    17    1
    15    14    16    1
    16    14    13    1
    17    12    15    1
    18    15    13    1
    19    15     1    1
    20    13     4    1
