@<TRIPOS>MOLECULE
2jxa_RAM_A_1.pdb
 23 23 0 0 0
SMALL
GASTEIGER

@<TRIPOS>ATOM
      1  C1        -9.6690  -14.2590  -26.2450 C.3   136  RAM136      0.1853
      2  C2        -8.5400  -13.2020  -26.3050 C.3   136  RAM136      0.1339
      3  C3        -7.6230  -13.4170  -25.0830 C.3   136  RAM136      0.1140
      4  C4        -7.0560  -14.8470  -25.1240 C.3   136  RAM136      0.1095
      5  C5        -8.2380  -15.8450  -25.1050 C.3   136  RAM136      0.0873
      6  C6        -7.7010  -17.2760  -25.1600 C.3   136  RAM136     -0.0361
      7  O1       -10.4290  -14.0760  -25.0500 O.3   136  RAM136     -0.3649
      8  O2        -7.7830  -13.3730  -27.5040 O.3   136  RAM136     -0.3841
      9  O3        -6.5520  -12.4690  -25.1090 O.3   136  RAM136     -0.3864
     10  O4        -6.2130  -15.0730  -23.9910 O.3   136  RAM136     -0.3866
     11  O5        -9.1100  -15.6100  -26.2550 O.3   136  RAM136     -0.3433
     12  H1       -10.2980  -14.1580  -27.1150 H     136  RAM136      0.0935
     13  H2        -8.9690  -12.2130  -26.2650 H     136  RAM136      0.0671
     14  H3        -8.2040  -13.2970  -24.1810 H     136  RAM136      0.0648
     15  H4        -6.4980  -14.9800  -26.0370 H     136  RAM136      0.0646
     16  H5        -8.8160  -15.7100  -24.2040 H     136  RAM136      0.0621
     17  H61       -8.5140  -17.9790  -25.0480 H     136  RAM136      0.0255
     18  H62       -6.9910  -17.4320  -24.3620 H     136  RAM136      0.0255
     19  H63       -7.2120  -17.4490  -26.1060 H     136  RAM136      0.0255
     20  HO1      -10.3220  -14.8430  -24.4830 H     136  RAM136      0.2126
     21  HO2       -8.1090  -12.7710  -28.1770 H     136  RAM136      0.2101
     22  HO3       -5.7150  -12.9360  -25.0600 H     136  RAM136      0.2100
     23  HO4       -5.4630  -14.4740  -24.0300 H     136  RAM136      0.2100
@<TRIPOS>BOND
     1    21     8    1
     2     8     2    1
     3    12     1    1
     4     2    13    1
     5     2     1    1
     6     2     3    1
     7    11     1    1
     8    11     5    1
     9     1     7    1
    10    19     6    1
    11    15     4    1
    12     6     5    1
    13     6    17    1
    14     6    18    1
    15     4     5    1
    16     4     3    1
    17     4    10    1
    18     9     3    1
    19     9    22    1
    20     5    16    1
    21     3    14    1
    22     7    20    1
    23    23    10    1
