@<TRIPOS>MOLECULE
2jxn_MTN_A_1.pdb
 27 27 0 0 0
SMALL
GASTEIGER

@<TRIPOS>ATOM
      1  O1         2.9430    2.0350  -10.4010 O.3   128  MTN128     -0.1177
      2  N1         3.7760    2.8510  -10.8930 N.4   128  MTN128     -0.1352
      3  C1         5.2350    2.7330  -10.6950 C.3   128  MTN128      0.0636
      4  C2         5.6930    3.9140  -11.4670 C.2   128  MTN128     -0.0603
      5  C3         4.7110    4.6020  -12.0170 C.2   128  MTN128     -0.0392
      6  C4         4.8870    5.8310  -12.8440 C.3   128  MTN128      0.0268
      7  S1         6.4840    5.9370  -13.6860 S.3   128  MTN128     -0.0884
      8  C5         3.3530    4.0150  -11.7230 C.3   128  MTN128      0.0669
      9  C6         2.4100    4.9910  -11.0330 C.3   128  MTN128     -0.0407
     10  C7         2.7360    3.4900  -13.0140 C.3   128  MTN128     -0.0407
     11  C8         5.7430    1.4490  -11.3290 C.3   128  MTN128     -0.0410
     12  C9         5.6480    2.8240   -9.2270 C.3   128  MTN128     -0.0410
     13  H2         6.7350    4.1840  -11.5680 H     128  MTN128      0.0591
     14  H41        4.7870    6.6840  -12.1940 H     128  MTN128      0.0431
     15  H42        4.0900    5.8480  -13.5790 H     128  MTN128      0.0431
     16  H61        2.5760    4.9600   -9.9660 H     128  MTN128      0.0251
     17  H62        2.5980    5.9920  -11.3960 H     128  MTN128      0.0251
     18  H63        1.3880    4.7170  -11.2470 H     128  MTN128      0.0251
     19  H71        2.2110    4.2920  -13.5150 H     128  MTN128      0.0251
     20  H72        3.5160    3.1150  -13.6600 H     128  MTN128      0.0251
     21  H73        2.0450    2.6940  -12.7860 H     128  MTN128      0.0251
     22  H81        6.8100    1.5200  -11.4830 H     128  MTN128      0.0251
     23  H82        5.2530    1.2980  -12.2790 H     128  MTN128      0.0251
     24  H83        5.5290    0.6150  -10.6760 H     128  MTN128      0.0251
     25  H91        5.0650    2.1260   -8.6450 H     128  MTN128      0.0251
     26  H92        5.4750    3.8270   -8.8660 H     128  MTN128      0.0251
     27  H93        6.6970    2.5830   -9.1310 H     128  MTN128      0.0251
@<TRIPOS>BOND
     1     7     6    1
     2    20    10    1
     3    15     6    1
     4    19    10    1
     5    10    21    1
     6    10     8    1
     7     6    14    1
     8     6     5    1
     9    23    11    1
    10     5     8    1
    11     5     4    2
    12     8     9    1
    13     8     2    1
    14    13     4    1
    15    22    11    1
    16     4     3    1
    17    17     9    1
    18    11     3    1
    19    11    24    1
    20    18     9    1
    21     9    16    1
    22     2     3    1
    23     2     1    1
    24     3    12    1
    25    12    27    1
    26    12    26    1
    27    12    25    1
