@<TRIPOS>MOLECULE
2k0g_CMP_A_1.pdb
 33 36 0 0 0
SMALL
GASTEIGER

@<TRIPOS>ATOM
      1  P         34.1840   -0.6800   -5.9380 P.3   370  CMP370      0.2131
      2  O1P       35.5910   -0.6960   -6.3990 O.3   370  CMP370     -0.4373
      3  O2P       33.3440    0.3530   -6.8440 O.2   370  CMP370     -0.5172
      4  O5'       33.5600   -2.1500   -6.0980 O.3   370  CMP370     -0.3248
      5  C5'       34.2510   -3.0390   -5.2080 C.3   370  CMP370      0.0837
      6  C4'       34.0740   -2.5100   -3.7970 C.3   370  CMP370      0.1137
      7  O4'       34.6390   -3.3080   -2.7590 O.3   370  CMP370     -0.3474
      8  C3'       34.8580   -1.1780   -3.6770 C.3   370  CMP370      0.1239
      9  O3'       34.1370   -0.1970   -4.3980 O.3   370  CMP370     -0.3187
     10  C2'       34.8880   -0.9870   -2.1500 C.3   370  CMP370      0.1273
     11  O2'       33.7930   -0.1730   -1.7220 O.3   370  CMP370     -0.3848
     12  C1'       34.7560   -2.4330   -1.6130 C.3   370  CMP370      0.1618
     13  N9        35.9450   -2.7850   -0.8330 N.pl3 370  CMP370     -0.2234
     14  C8        37.1600   -3.1420   -1.3350 C.2   370  CMP370      0.1451
     15  N7        37.9880   -3.3900   -0.3610 N.2   370  CMP370     -0.3871
     16  C5        37.3580   -3.2020    0.8240 C.2   370  CMP370      0.2211
     17  C6        37.7340   -3.3240    2.1730 C.2   370  CMP370      0.2227
     18  N6        39.0190   -3.7030    2.5180 N.pl3 370  CMP370     -0.3300
     19  N1        36.8270   -3.0610    3.1070 N.2   370  CMP370     -0.3296
     20  C2        35.6010   -2.6970    2.7870 C.1   370  CMP370      0.0930
     21  N3        35.2020   -2.5750    1.5380 N.2   370  CMP370     -0.3287
     22  C4        36.0400   -2.8180    0.5340 C.2   370  CMP370      0.2354
     23 H5'1       35.3100   -3.0660   -5.4610 H     370  CMP370      0.0591
     24 H5'2       33.8260   -4.0410   -5.2840 H     370  CMP370      0.0591
     25  H4'       33.0160   -2.3380   -3.5970 H     370  CMP370      0.0647
     26  H3'       35.8240   -0.7790   -3.7900 H     370  CMP370      0.0655
     27  H2'       35.8360   -0.5510   -1.8360 H     370  CMP370      0.0663
     28 HO2'       33.8650   -0.0900   -0.7630 H     370  CMP370      0.2101
     29  H1'       33.8650   -2.5170   -0.9900 H     370  CMP370      0.0841
     30  H8        37.4020   -3.2100   -2.3850 H     370  CMP370      0.1149
     31 HN61       39.2660   -3.7810    3.4530 H     370  CMP370      0.1448
     32 HN62       39.6710   -3.8970    1.8260 H     370  CMP370      0.1448
     33  H2        34.8960   -2.4930    3.5790 H     370  CMP370      0.1751
@<TRIPOS>BOND
     1     3     1    2
     2     2     1    1
     3     4     1    1
     4     4     5    1
     5     1     9    1
     6    23     5    1
     7    24     5    1
     8     5     6    1
     9     9     8    1
    10     6     8    1
    11     6    25    1
    12     6     7    1
    13    26     8    1
    14     8    10    1
    15     7    12    1
    16    30    14    1
    17    10    27    1
    18    10    11    1
    19    10    12    1
    20    11    28    1
    21    12    29    1
    22    12    13    1
    23    14    13    1
    24    14    15    2
    25    13    22    1
    26    15    16    2
    27    22    16    1
    28    22    21    2
    29    16    17    1
    30    21    20    2
    31    32    18    1
    32    17    18    1
    33    17    19    2
    34    18    31    1
    35    20    19    2
    36    20    33    1
