@<TRIPOS>MOLECULE
2k0x_PNS_A_1.pdb
 42 41 0 0 0
SMALL
GASTEIGER

@<TRIPOS>ATOM
      1  O23       -7.6390  -10.4470   -0.8670 O.3    87  PNS87      -0.1425
      2  P24       -6.7120  -10.9360   -1.9980 P.3    87  PNS87       0.3935
      3  O26       -6.1560  -12.3910   -1.9300 O.3    87  PNS87      -0.1425
      4  O27       -7.4740  -10.7490   -3.3470 O.3    87  PNS87      -0.3080
      5  C28       -8.6010  -11.6720   -3.5940 C.3    87  PNS87       0.0644
      6  C29       -9.3860  -11.3090   -4.8540 C.3    87  PNS87       0.0234
      7  C30      -10.0420   -9.9750   -4.5770 C.3    87  PNS87      -0.0549
      8  C31       -8.4380  -11.2100   -6.0620 C.3    87  PNS87      -0.0549
      9  C32      -10.4970  -12.4210   -5.1090 C.3    87  PNS87       0.1380
     10  O33       -9.9290  -13.7440   -5.1530 O.3    87  PNS87      -0.3820
     11  C34      -11.3160  -12.2010   -6.3960 C.2    87  PNS87       0.2423
     12  O35      -11.6440  -11.0840   -6.8130 O.2    87  PNS87      -0.2730
     13  N36      -11.6550  -13.3000   -7.0030 N.am   87  PNS87      -0.3127
     14  C37      -12.4570  -13.3650   -8.2370 C.3    87  PNS87       0.0199
     15  C38      -12.4920  -14.7710   -8.8540 C.3    87  PNS87       0.0395
     16  C39      -11.2790  -15.1420   -9.7370 C.2    87  PNS87       0.2145
     17  O40      -11.1220  -16.2970  -10.1510 O.2    87  PNS87      -0.2758
     18  N41      -10.4470  -14.1520  -10.0310 N.am   87  PNS87      -0.3145
     19  C42       -9.2570  -14.2920  -10.8550 C.3    87  PNS87       0.0204
     20  C43       -8.2530  -13.1930  -10.5650 C.3    87  PNS87       0.0063
     21  S44       -6.8610  -13.1090  -11.7010 S.3    87  PNS87      -0.1767
     22 H282       -8.2110  -12.6740   -3.6900 H      87  PNS87       0.0571
     23 H281       -9.2720  -11.6260   -2.7500 H      87  PNS87       0.0571
     24 H303       -9.2870   -9.2290   -4.3800 H      87  PNS87       0.0237
     25 H302      -10.6940  -10.0750   -3.7230 H      87  PNS87       0.0237
     26 H301      -10.6200   -9.6930   -5.4440 H      87  PNS87       0.0237
     27 H313       -9.0040  -10.9480   -6.9420 H      87  PNS87       0.0237
     28 H312       -7.9560  -12.1630   -6.2180 H      87  PNS87       0.0237
     29 H311       -7.6900  -10.4530   -5.8730 H      87  PNS87       0.0237
     30  H32      -11.1900  -12.4070   -4.2800 H      87  PNS87       0.0696
     31  H33       -9.3390  -13.7850   -5.9260 H      87  PNS87       0.2105
     32  H36      -11.3510  -14.1220   -6.5600 H      87  PNS87       0.1488
     33 H372      -13.4710  -13.1250   -7.9540 H      87  PNS87       0.0467
     34 H371      -12.0850  -12.6400   -8.9450 H      87  PNS87       0.0467
     35 H382      -12.6760  -15.5120   -8.0910 H      87  PNS87       0.0374
     36 H381      -13.3670  -14.7800   -9.4890 H      87  PNS87       0.0374
     37  H41      -10.6310  -13.2460   -9.6950 H      87  PNS87       0.1487
     38 H422       -8.8030  -15.2580  -10.6890 H      87  PNS87       0.0470
     39 H421       -9.5470  -14.2140  -11.8930 H      87  PNS87       0.0470
     40 H431       -7.8830  -13.3050   -9.5580 H      87  PNS87       0.0389
     41 H432       -8.7800  -12.2520  -10.6380 H      87  PNS87       0.0389
     42  H44       -7.3900  -12.9040  -12.9060 H      87  PNS87       0.1017
@<TRIPOS>BOND
     1    42    21    1
     2    39    19    1
     3    21    20    1
     4    19    38    1
     5    19    20    1
     6    19    18    1
     7    41    20    1
     8    20    40    1
     9    17    16    2
    10    18    16   am
    11    18    37    1
    12    16    15    1
    13    36    15    1
    14    34    14    1
    15    15    14    1
    16    15    35    1
    17    14    33    1
    18    14    13    1
    19    13    32    1
    20    13    11   am
    21    27     8    1
    22    12    11    2
    23    11     9    1
    24    28     8    1
    25     8    29    1
    26     8     6    1
    27    31    10    1
    28    26     7    1
    29    10     9    1
    30     9     6    1
    31     9    30    1
    32     6     7    1
    33     6     5    1
    34     7    24    1
    35     7    25    1
    36    22     5    1
    37     5     4    1
    38     5    23    1
    39     4     2    1
    40     2     3    1
    41     2     1    1
