@<TRIPOS>MOLECULE
2k2g_DSV_A_1.pdb
 40 42 0 0 0
SMALL
GASTEIGER

@<TRIPOS>ATOM
      1  C1        69.3230   23.2640   16.7340 C.ar    1  DSV1        0.1064
      2  C2        68.4190   22.2460   16.3550 C.ar    1  DSV1       -0.0210
      3  C3        67.1160   22.6210   15.9560 C.ar    1  DSV1        0.0223
      4  C4        66.7200   23.9590   15.8970 C.ar    1  DSV1       -0.0030
      5  C5        67.6000   24.9650   16.3320 C.ar    1  DSV1       -0.0511
      6  C6        68.8840   24.6070   16.8170 C.ar    1  DSV1       -0.0347
      7  S10       65.8060   21.5250   15.4810 S.2     1  DSV1       -0.0882
      8  C11       64.7350   22.8870   15.0960 C.ar    1  DSV1        0.0205
      9  C12       65.3480   24.1150   15.3480 C.ar    1  DSV1       -0.0031
     10  CY1       63.4180   22.7990   14.5930 C.ar    1  DSV1       -0.0474
     11  CZ1       62.7070   23.9960   14.3380 C.ar    1  DSV1       -0.0607
     12  CZ2       63.3730   25.2400   14.4680 C.ar    1  DSV1       -0.0611
     13  CY2       64.6540   25.3060   15.0740 C.ar    1  DSV1       -0.0529
     14  S21       71.0060   22.8590   17.0960 S.O2    1  DSV1        0.0592
     15  O22       71.2880   21.5260   16.6560 O.2     1  DSV1       -0.1530
     16  O23       71.3020   23.2410   18.4450 O.2     1  DSV1       -0.1530
     17  N24       72.0020   23.8790   16.0980 N.3     1  DSV1       -0.1758
     18  C10       73.2690   24.3620   16.6330 C.3     1  DSV1        0.1320
     19  CBC       74.3090   23.2230   16.6930 C.3     1  DSV1       -0.0192
     20  CC1       75.5630   23.6110   17.4840 C.3     1  DSV1       -0.0607
     21  CC2       74.7100   22.7500   15.2820 C.3     1  DSV1       -0.0607
     22  C37       73.7870   25.5470   15.7930 C.2     1  DSV1        0.3745
     23  O39       74.9000   25.6340   15.3700 O.co2   1  DSV1       -0.2445
     24  O40       72.8260   26.4800   15.5940 O.co2   1  DSV1       -0.2445
     25  H2        68.7150   21.2100   16.3680 H       1  DSV1        0.0648
     26  H5        67.3140   26.0050   16.3010 H       1  DSV1        0.0625
     27  H6        69.5250   25.3630   17.2490 H       1  DSV1        0.0637
     28  HY1       62.9630   21.8370   14.4050 H       1  DSV1        0.0629
     29  HZ1       61.6670   23.9610   14.0510 H       1  DSV1        0.0618
     30  HZ2       62.9050   26.1430   14.0990 H       1  DSV1        0.0618
     31  HY2       65.0810   26.2680   15.3200 H       1  DSV1        0.0624
     32 HN24       72.1560   23.4250   15.2060 H       1  DSV1        0.1489
     33  HC1       76.3040   24.0780   16.8390 H       1  DSV1        0.0233
     34 HC1A       76.0320   22.7240   17.9190 H       1  DSV1        0.0233
     35 HC1B       75.3350   24.3070   18.2910 H       1  DSV1        0.0233
     36  HBC       73.8460   22.3810   17.2090 H       1  DSV1        0.0316
     37  HC2       75.7240   23.0610   15.0260 H       1  DSV1        0.0233
     38 HC2A       74.6560   21.6620   15.2060 H       1  DSV1        0.0233
     39 HC2B       74.0360   23.1530   14.5290 H       1  DSV1        0.0233
     40  H10       73.0640   24.7150   17.6430 H       1  DSV1        0.0597
@<TRIPOS>BOND
     1    29    11    1
     2    30    12    1
     3    11    12   ar
     4    11    10   ar
     5    28    10    1
     6    12    13   ar
     7    39    21    1
     8    10     8   ar
     9    37    21    1
    10    13    31    1
    11    13     9   ar
    12     8     9   ar
    13     8     7   ar
    14    38    21    1
    15    32    17    1
    16    21    19    1
    17     9     4   ar
    18    23    22   ar
    19     7     3   ar
    20    24    22   ar
    21    22    18    1
    22     4     3   ar
    23     4     5   ar
    24     3     2   ar
    25    17    18    1
    26    17    14    1
    27    26     5    1
    28     5     6   ar
    29     2    25    1
    30     2     1   ar
    31    18    19    1
    32    18    40    1
    33    15    14    2
    34    19    36    1
    35    19    20    1
    36     1     6   ar
    37     1    14    1
    38     6    27    1
    39    33    20    1
    40    14    16    2
    41    20    34    1
    42    20    35    1
