@<TRIPOS>MOLECULE
2k31_35G_A_1.pdb
 34 37 0 0 0
SMALL
GASTEIGER

@<TRIPOS>ATOM
      1  P          8.4850    1.8690    3.1570 P.3     1  35G1        0.2131
      2  O1P        9.4770    0.9340    3.7960 O.3     1  35G1       -0.4373
      3  O2P        7.9410    1.6180    1.7690 O.2     1  35G1       -0.5172
      4  O5'        8.9810    3.4700    3.1840 O.3     1  35G1       -0.3248
      5  C5'        7.9890    4.4570    2.6770 C.3     1  35G1        0.0837
      6  C4'        6.6940    4.3960    3.5760 C.3     1  35G1        0.1137
      7  O4'        5.6220    5.1880    3.3240 O.3     1  35G1       -0.3474
      8  C3'        6.1290    3.0210    3.6410 C.3     1  35G1        0.1239
      9  O3'        7.1830    2.0780    4.1460 O.3     1  35G1       -0.3187
     10  C2'        4.9340    3.2760    4.5210 C.3     1  35G1        0.1273
     11  O2'        5.1630    2.8610    5.8860 O.3     1  35G1       -0.3848
     12  C1'        4.6600    4.7780    4.2980 C.3     1  35G1        0.1617
     13  N9         3.3160    5.0870    3.7620 N.pl3   1  35G1       -0.2241
     14  C8         2.7840    4.9160    2.4930 C.2     1  35G1        0.1451
     15  N7         1.4850    5.3540    2.4750 N.2     1  35G1       -0.3865
     16  C5         1.1960    5.7980    3.7240 C.2     1  35G1        0.2296
     17  C6         0.0300    6.4220    4.5420 C.2     1  35G1        0.2859
     18  O6        -1.0780    6.6490    3.9900 O.2     1  35G1       -0.2668
     19  N1         0.1840    6.7860    6.0530 N.am    1  35G1       -0.2418
     20  C2         1.4280    6.5800    6.8450 C.2     1  35G1        0.2395
     21  N2         1.5650    6.8940    8.1570 N.pl3   1  35G1       -0.3206
     22  N3         2.5140    5.9850    6.0310 N.2     1  35G1       -0.3551
     23  C4         2.4080    5.6140    4.5530 C.2     1  35G1        0.2272
     24 H5'1        8.3210    5.3920    2.7100 H       1  35G1        0.0591
     25 H5'2        7.6920    4.1750    1.7670 H       1  35G1        0.0591
     26  H4'        7.1600    4.7120    4.4790 H       1  35G1        0.0647
     27  H3'        5.8690    2.6330    2.7660 H       1  35G1        0.0655
     28  H2'        4.1980    2.7670    4.2620 H       1  35G1        0.0663
     29 HO2'        5.9340    3.4170    6.2740 H       1  35G1        0.2101
     30  H1'        5.0570    5.2210    5.3240 H       1  35G1        0.0841
     31  H8         3.1610    4.6020    1.8280 H       1  35G1        0.1149
     32  HN1       -0.5690    7.1510    6.4460 H       1  35G1        0.1589
     33 HN21        0.7740    7.2380    8.4280 H       1  35G1        0.1459
     34 HN22        2.4100    6.6760    8.4140 H       1  35G1        0.1459
@<TRIPOS>BOND
     1    25     5    1
     2     3     1    2
     3    31    14    1
     4    15    14    2
     5    15    16    2
     6    14    13    1
     7     5    24    1
     8     5     4    1
     9     5     6    1
    10    27     8    1
    11     1     4    1
    12     1     2    1
    13     1     9    1
    14     7     6    1
    15     7    12    1
    16     6     8    1
    17     6    26    1
    18     8     9    1
    19     8    10    1
    20    16    17    1
    21    16    23    1
    22    13    12    1
    23    13    23    1
    24    18    17    2
    25    28    10    1
    26    12    10    1
    27    12    30    1
    28    10    11    1
    29    17    19   am
    30    23    22    2
    31    11    29    1
    32    22    20    2
    33    19    32    1
    34    19    20    1
    35    20    21    1
    36    21    34    1
    37    21    33    1
