@<TRIPOS>MOLECULE
2k33_B6D_A_1.pdb
 32 32 0 0 0
SMALL
GASTEIGER

@<TRIPOS>ATOM
      1  C1         8.8540   31.9230    3.1050 C.3   117  B6D117      0.1078
      2  N2         6.8140   32.7780    2.0290 N.am  117  B6D117     -0.3075
      3  C3         8.6570   34.3760    2.5670 C.3   117  B6D117      0.1350
      4  C4         9.7570   34.6760    3.6030 C.3   117  B6D117      0.0799
      5  C5        10.7010   33.4670    3.7710 C.3   117  B6D117      0.0773
      6  C6        11.7040   33.6190    4.9130 C.3   117  B6D117     -0.0368
      7  C7         7.0070   32.5600    0.6850 C.2   117  B6D117      0.2103
      8  C8         5.7730   32.0460   -0.0970 C.3   117  B6D117      0.0122
      9  C9        12.0720   37.7670    3.4350 C.3   117  B6D117      0.0122
     10  C2         7.8780   33.1090    2.9880 C.3   117  B6D117      0.0827
     11  O7         8.0710   32.7250    0.1170 O.2   117  B6D117     -0.2761
     12  N4        10.5290   35.8630    3.2100 N.am  117  B6D117     -0.3076
     13  C10       11.2320   36.6510    4.0860 C.2   117  B6D117      0.2103
     14  O10       11.2320   36.4910    5.2950 O.2   117  B6D117     -0.2761
     15  O5         9.9000   32.2610    4.0910 O.3   117  B6D117     -0.3672
     16  O3         7.7360   35.5260    2.5170 O.3   117  B6D117     -0.2271
     17  H2         7.4220   33.2880    3.9660 H     117  B6D117      0.0552
     18  H1         9.3280   31.7210    2.1260 H     117  B6D117      0.0642
     19  H3         9.1050   34.2090    1.5830 H     117  B6D117      0.0667
     20  HN2        5.8930   32.6930    2.4320 H     117  B6D117      0.1491
     21  H5        11.2430   33.2910    2.8380 H     117  B6D117      0.0613
     22  H8         4.8880   32.6640    0.0930 H     117  B6D117      0.0322
     23  H8A        5.5500   31.0160    0.2070 H     117  B6D117      0.0322
     24  H8B        5.9870   32.0610   -1.1720 H     117  B6D117      0.0322
     25  H4         9.2710   34.8740    4.5620 H     117  B6D117      0.0551
     26  HN4       10.5210   36.0740    2.2230 H     117  B6D117      0.1491
     27  H9        12.2950   38.5420    4.1760 H     117  B6D117      0.0322
     28  H9A       13.0160   37.3550    3.0560 H     117  B6D117      0.0322
     29  H9B       11.5240   38.2120    2.5970 H     117  B6D117      0.0322
     30  H6        12.0830   32.6410    5.2200 H     117  B6D117      0.0255
     31  H6A       12.5470   34.2370    4.5980 H     117  B6D117      0.0255
     32  H6B       11.2330   34.0950    5.7760 H     117  B6D117      0.0255
@<TRIPOS>BOND
     1    24     8    1
     2     8    22    1
     3     8    23    1
     4     8     7    1
     5    11     7    2
     6     7     2   am
     7    19     3    1
     8     2    20    1
     9     2    10    1
    10    18     1    1
    11    26    12    1
    12    16     3    1
    13     3    10    1
    14     3     4    1
    15    29     9    1
    16    21     5    1
    17    10     1    1
    18    10    17    1
    19    28     9    1
    20     1    15    1
    21    12     4    1
    22    12    13   am
    23     9    13    1
    24     9    27    1
    25     4     5    1
    26     4    25    1
    27     5    15    1
    28     5     6    1
    29    13    14    2
    30    31     6    1
    31     6    30    1
    32     6    32    1
