@<TRIPOS>MOLECULE
2k3m_MTN_A_1.pdb
 27 27 0 0 0
SMALL
GASTEIGER

@<TRIPOS>ATOM
      1  O1        66.1530    4.0740  -10.7170 O.3   128  MTN128     -0.1177
      2  N1        66.3080    4.1110   -9.4600 N.4   128  MTN128     -0.1352
      3  C1        66.5990    2.9130   -8.6410 C.3   128  MTN128      0.0636
      4  C2        66.6810    3.5300   -7.2940 C.2   128  MTN128     -0.0603
      5  C3        66.4760    4.8300   -7.2890 C.2   128  MTN128     -0.0392
      6  C4        66.4960    5.6880   -6.0630 C.3   128  MTN128      0.0268
      7  S1        66.1790    4.7820   -4.5220 S.3   128  MTN128     -0.0884
      8  C5        66.2090    5.3820   -8.6740 C.3   128  MTN128      0.0669
      9  C6        64.8700    6.1060   -8.7830 C.3   128  MTN128     -0.0407
     10  C7        67.3560    6.3010   -9.0870 C.3   128  MTN128     -0.0407
     11  C8        65.4870    1.8670   -8.7020 C.3   128  MTN128     -0.0410
     12  C9        67.9400    2.3190   -9.0350 C.3   128  MTN128     -0.0410
     13  H2        66.8890    2.9640   -6.4000 H     128  MTN128      0.0591
     14  H41       65.7370    6.4460   -6.1750 H     128  MTN128      0.0431
     15  H42       67.4690    6.1600   -6.0070 H     128  MTN128      0.0431
     16  H61       64.1030    5.5160   -8.3020 H     128  MTN128      0.0251
     17  H62       64.6180    6.2440   -9.8230 H     128  MTN128      0.0251
     18  H63       64.9370    7.0690   -8.2970 H     128  MTN128      0.0251
     19  H71       68.2800    5.7420   -9.1020 H     128  MTN128      0.0251
     20  H72       67.4400    7.1130   -8.3790 H     128  MTN128      0.0251
     21  H73       67.1620    6.7010  -10.0710 H     128  MTN128      0.0251
     22  H81       64.5490    2.3230   -8.4190 H     128  MTN128      0.0251
     23  H82       65.7130    1.0610   -8.0180 H     128  MTN128      0.0251
     24  H83       65.4100    1.4790   -9.7050 H     128  MTN128      0.0251
     25  H91       68.2270    1.5690   -8.3120 H     128  MTN128      0.0251
     26  H92       67.8600    1.8670  -10.0110 H     128  MTN128      0.0251
     27  H93       68.6860    3.0980   -9.0590 H     128  MTN128      0.0251
@<TRIPOS>BOND
     1     1     2    1
     2    21    10    1
     3    26    12    1
     4    17     9    1
     5    24    11    1
     6     2     8    1
     7     2     3    1
     8    19    10    1
     9    10     8    1
    10    10    20    1
    11    27    12    1
    12    12     3    1
    13    12    25    1
    14     9     8    1
    15     9    16    1
    16     9    18    1
    17    11     3    1
    18    11    22    1
    19    11    23    1
    20     8     5    1
    21     3     4    1
    22     4     5    2
    23     4    13    1
    24     5     6    1
    25    14     6    1
    26     6    15    1
    27     6     7    1
