@<TRIPOS>MOLECULE
2k3v_HEM_A_1.pdb
 43 50 0 0 0
SMALL
GASTEIGER

@<TRIPOS>ATOM
      1 FE          9.7620    5.9850    1.3120 Fe    218  HEM218      0.0000
      2  CHA        7.7870    7.9990    3.4320 C.2   218  HEM218      0.0000
      3  CHB       12.5770    7.3910    2.7890 C.2   218  HEM218      0.0000
      4  CHC       11.7180    4.1730   -0.7650 C.2   218  HEM218      0.0000
      5  CHD        6.8950    4.8260   -0.1540 C.2   218  HEM218      0.0000
      6  NA        10.1000    7.4420    2.7790 N.2   218  HEM218      0.0000
      7  C1A        9.1680    8.0800    3.5780 C.2   218  HEM218      0.0000
      8  C2A        9.8320    8.8540    4.6010 C.2   218  HEM218      0.0000
      9  C3A       11.1600    8.6880    4.4260 C.2   218  HEM218      0.0000
     10  C4A       11.3320    7.8090    3.2930 C.2   218  HEM218      0.0000
     11  CMA       12.2800    9.2810    5.2290 C.3   218  HEM218      0.0000
     12  CAA        9.1340    9.6760    5.6450 C.3   218  HEM218      0.0000
     13  CBA       10.0130   10.0440    6.8360 C.3   218  HEM218      0.0000
     14  CGA        9.1750   10.2790    8.0840 C.2   218  HEM218      0.0000
     15  O1A        9.1210   11.4500    8.5190 O.co2 218  HEM218      0.0000
     16  O2A        8.6030    9.2850    8.5800 O.co2 218  HEM218      0.0000
     17  NB        11.7340    5.8790    1.0310 N.ar  218  HEM218      0.0000
     18  C1B       12.7450    6.4220    1.8050 C.ar  218  HEM218      0.0000
     19  C2B       14.0170    5.8390    1.4490 C.ar  218  HEM218      0.0000
     20  C3B       13.7820    4.9460    0.4640 C.ar  218  HEM218      0.0000
     21  C4B       12.3630    4.9680    0.2010 C.ar  218  HEM218      0.0000
     22  CMB       15.3310    6.1910    2.0840 C.3   218  HEM218      0.0000
     23  CAB       14.7750    4.0760   -0.2500 C.3   218  HEM218      0.0000
     24  CBB       15.4900    3.0770    0.6560 C.3   218  HEM218      0.0000
     25  NC         9.3680    4.6780   -0.0930 N.2   218  HEM218      0.0000
     26  C1C       10.2960    4.0840   -0.9290 C.2   218  HEM218      0.0000
     27  C2C        9.6320    3.4390   -2.0370 C.2   218  HEM218      0.0000
     28  C3C        8.3070    3.6390   -1.8770 C.2   218  HEM218      0.0000
     29  C4C        8.1370    4.4100   -0.6680 C.2   218  HEM218      0.0000
     30  CMC       10.3270    2.6950   -3.1400 C.3   218  HEM218      0.0000
     31  CAC        7.1880    3.1700   -2.7600 C.3   218  HEM218      0.0000
     32  CBC        7.2550    1.6870   -3.1120 C.3   218  HEM218      0.0000
     33  ND         7.7570    6.3270    1.6040 N.ar  218  HEM218      0.0000
     34  C1D        6.7350    5.7710    0.8540 C.ar  218  HEM218      0.0000
     35  C2D        5.4610    6.3120    1.2640 C.ar  218  HEM218      0.0000
     36  C3D        5.7040    7.1920    2.2580 C.ar  218  HEM218      0.0000
     37  C4D        7.1320    7.2050    2.4730 C.ar  218  HEM218      0.0000
     38  CMD        4.1360    5.9360    0.6670 C.3   218  HEM218      0.0000
     39  CAD        4.7130    8.0210    3.0220 C.3   218  HEM218      0.0000
     40  CBD        3.4660    8.3890    2.2240 C.3   218  HEM218      0.0000
     41  CGD        2.2670    7.5650    2.6720 C.2   218  HEM218      0.0000
     42  O1D        1.5060    7.1370    1.7770 O.co2 218  HEM218      0.0000
     43  O2D        2.1330    7.3790    3.9010 O.co2 218  HEM218      0.0000
@<TRIPOS>BOND
     1    30    27    1
     2    32    31    1
     3    31    28    1
     4    27    28    2
     5    27    26    1
     6    28    29    1
     7    26     4    2
     8    26    25    1
     9     4    21    1
    10    29     5    1
    11    29    25    2
    12    23    20    1
    13    23    24    1
    14     5    34    2
    15    25     1    1
    16    21    20   ar
    17    21    17   ar
    18    20    19   ar
    19    38    35    1
    20    34    35   ar
    21    34    33   ar
    22    17     1    1
    23    17    18   ar
    24    35    36   ar
    25     1    33    1
    26     1     6    1
    27    19    18   ar
    28    19    22    1
    29    33    37   ar
    30    42    41   ar
    31    18     3    1
    32    40    41    1
    33    40    39    1
    34    36    37   ar
    35    36    39    1
    36    37     2    2
    37    41    43   ar
    38     6    10    1
    39     6     7    2
    40     3    10    2
    41    10     9    1
    42     2     7    1
    43     7     8    1
    44     9     8    2
    45     9    11    1
    46     8    12    1
    47    12    13    1
    48    13    14    1
    49    14    15   ar
    50    14    16   ar
