@<TRIPOS>MOLECULE
2k46_NGR_A_1.pdb
 45 46 0 0 0
SMALL
GASTEIGER

@<TRIPOS>ATOM
      1  O2       -16.1360   -6.4720   -3.2400 O.3   191  NGR191     -0.3841
      2  C1       -18.0500   -6.2190   -4.7560 C.3   191  NGR191      0.1884
      3  OA       -18.7610   -5.5860   -3.6750 O.3   191  NGR191     -0.3401
      4  C2       -16.4940   -6.0750   -4.5570 C.3   191  NGR191      0.1341
      5  C3       -16.0250   -4.5850   -4.8330 C.3   191  NGR191      0.1141
      6  O3       -14.6040   -4.5310   -4.7880 O.3   191  NGR191     -0.3864
      7  C4       -16.5120   -4.0560   -6.2360 C.3   191  NGR191      0.1119
      8  O4       -16.1710   -2.6790   -6.3640 O.3   191  NGR191     -0.3865
      9  C5       -18.0750   -4.2390   -6.3830 C.3   191  NGR191      0.1130
     10  O5       -18.4470   -5.6600   -6.0810 O.3   191  NGR191     -0.3405
     11  C6       -18.6000   -3.9220   -7.7920 C.3   191  NGR191      0.0730
     12  O6       -18.5180   -4.9100   -8.8080 O.3   191  NGR191     -0.3924
     13  C11      -22.4510   -5.4180   -2.5600 C.3   191  NGR191      0.1854
     14  O11      -23.2030   -5.9040   -3.6620 O.3   191  NGR191     -0.3649
     15  C12      -21.0760   -4.9020   -3.1260 C.3   191  NGR191      0.1343
     16  O12      -21.2240   -4.1290   -4.3120 O.3   191  NGR191     -0.3841
     17 HO11      -24.1360   -5.8990   -3.4380 H     191  NGR191      0.2126
     18  C13      -20.0680   -6.1210   -3.3000 C.3   191  NGR191      0.1206
     19  C14      -19.9310   -6.9870   -1.9810 C.3   191  NGR191      0.1123
     20 HO12      -22.0940   -4.2810   -4.6870 H     191  NGR191      0.2101
     21  O14      -19.0680   -8.0980   -2.2070 O.3   191  NGR191     -0.3865
     22  C15      -21.3690   -7.4490   -1.5280 C.3   191  NGR191      0.1130
     23  O15      -22.2940   -6.2930   -1.3670 O.3   191  NGR191     -0.3407
     24 HO14      -18.2200   -7.9330   -1.7900 H     191  NGR191      0.2100
     25  C16      -21.2640   -8.3230   -0.2720 C.3   191  NGR191      0.0730
     26  O16      -20.3580   -7.8160    0.7060 O.3   191  NGR191     -0.3924
     27 HO16      -20.5180   -8.2540    1.5450 H     191  NGR191      0.2095
     28  H1       -18.3220   -7.2900   -4.7870 H     191  NGR191      0.0938
     29  H2       -16.0060   -6.7240   -5.3060 H     191  NGR191      0.0671
     30  H3       -16.4570   -3.9210   -4.0660 H     191  NGR191      0.0648
     31  HO2      -15.2230   -6.2270   -3.0700 H     191  NGR191      0.2101
     32  HO3      -14.2650   -5.3170   -4.3510 H     191  NGR191      0.2100
     33  H4       -16.0070   -4.6510   -7.0180 H     191  NGR191      0.0647
     34  HO4      -15.4210   -2.5900   -6.9560 H     191  NGR191      0.2100
     35  H5       -18.5980   -3.6140   -5.6390 H     191  NGR191      0.0647
     36  H6       -17.8170   -3.2100   -8.0760 H     191  NGR191      0.0584
     37  H6A      -19.3120   -3.0820   -7.8770 H     191  NGR191      0.0584
     38  HO6      -19.0880   -4.6600   -9.5420 H     191  NGR191      0.2095
     39  H11      -23.0440   -4.5460   -2.2320 H     191  NGR191      0.0935
     40  H12      -20.6080   -4.3010   -2.3240 H     191  NGR191      0.0671
     41  H13      -20.4240   -6.7970   -4.0940 H     191  NGR191      0.0651
     42  H14      -19.5290   -6.3440   -1.1760 H     191  NGR191      0.0647
     43  H15      -21.5190   -8.0880   -2.4160 H     191  NGR191      0.0647
     44  H16      -20.6220   -9.1620   -0.6140 H     191  NGR191      0.0584
     45 H16A      -22.2000   -8.7660    0.0720 H     191  NGR191      0.0584
@<TRIPOS>BOND
     1    38    12    1
     2    12    11    1
     3    36    11    1
     4    37    11    1
     5    11     9    1
     6    33     7    1
     7    34     8    1
     8     9     7    1
     9     9    10    1
    10     9    35    1
    11     8     7    1
    12     7     5    1
    13    10     2    1
    14    29     4    1
    15     5     6    1
    16     5     4    1
    17     5    30    1
    18     6    32    1
    19    28     2    1
    20     2     4    1
    21     2     3    1
    22    20    16    1
    23     4     1    1
    24    16    15    1
    25    41    18    1
    26     3    18    1
    27    14    17    1
    28    14    13    1
    29    18    15    1
    30    18    19    1
    31     1    31    1
    32    15    13    1
    33    15    40    1
    34    13    39    1
    35    13    23    1
    36    43    22    1
    37    21    19    1
    38    21    24    1
    39    19    22    1
    40    19    42    1
    41    22    23    1
    42    22    25    1
    43    44    25    1
    44    25    45    1
    45    25    26    1
    46    26    27    1
