@<TRIPOS>MOLECULE
2k5u_GDP_A_1.pdb
 40 42 0 0 0
SMALL
GASTEIGER

@<TRIPOS>ATOM
      1  PB        -0.6440    3.5920   11.2400 P.3   182  GDP182      0.5373
      2  O1B       -0.3530    3.5430    9.6750 O.2   182  GDP182     -0.2221
      3  O2B       -1.5830    2.4000   11.7210 O.3   182  GDP182     -0.1143
      4  O3B        0.6900    3.7000   12.1050 O.3   182  GDP182     -0.1143
      5  O3A       -1.4570    4.9540   11.5020 O.3   182  GDP182     -0.2261
      6  PA        -2.6060    5.0030   12.6240 P.3   182  GDP182      0.2224
      7  O1A       -2.0550    4.3530   13.9700 O.3   182  GDP182     -0.4370
      8  O2A       -3.9270    4.3240   12.0480 O.2   182  GDP182     -0.5170
      9  O5'       -2.8790    6.5530   12.8710 O.3   182  GDP182     -0.3245
     10  C5'       -1.8010    7.4640   13.0620 C.3   182  GDP182      0.0836
     11  C4'       -2.2150    8.5710   14.0030 C.3   182  GDP182      0.1131
     12  O4'       -3.1080    9.4730   13.2930 O.3   182  GDP182     -0.3474
     13  C3'       -2.9940    8.1160   15.2310 C.3   182  GDP182      0.1133
     14  O3'       -2.7560    8.9690   16.3430 O.3   182  GDP182     -0.3864
     15  C2'       -4.4410    8.1780   14.7590 C.3   182  GDP182      0.1266
     16  O2'       -5.3220    8.4340   15.8350 O.3   182  GDP182     -0.3849
     17  C1'       -4.4040    9.4100   13.8570 C.3   182  GDP182      0.1617
     18  N9        -5.3770    9.3730   12.7710 N.pl3 182  GDP182     -0.2241
     19  C8        -5.7830    8.2710   12.0620 C.2   182  GDP182      0.1451
     20  N7        -6.6680    8.5460   11.1440 N.2   182  GDP182     -0.3865
     21  C5        -6.8610    9.9160   11.2540 C.2   182  GDP182      0.2296
     22  C6        -7.7070   10.7880   10.5200 C.2   182  GDP182      0.2859
     23  O6        -8.4830   10.5110    9.5970 O.2   182  GDP182     -0.2668
     24  N1        -7.5890   12.1030   10.9580 N.am  182  GDP182     -0.2418
     25  C2        -6.7670   12.5260   11.9720 C.2   182  GDP182      0.2395
     26  N2        -6.8000   13.8390   12.2480 N.pl3 182  GDP182     -0.3206
     27  N3        -5.9740   11.7250   12.6640 N.2   182  GDP182     -0.3551
     28  C4        -6.0700   10.4430   12.2540 C.2   182  GDP182      0.2272
     29  H5'       -1.5110    7.8980   12.1040 H     182  GDP182      0.0591
     30 H5''       -0.9450    6.9400   13.4860 H     182  GDP182      0.0591
     31  H4'       -1.3060    9.0520   14.3670 H     182  GDP182      0.0647
     32  H3'       -2.6990    7.1170   15.5490 H     182  GDP182      0.0647
     33 HO3'       -3.5130    9.5520   16.4220 H     182  GDP182      0.2100
     34  H2'       -4.7050    7.2770   14.2000 H     182  GDP182      0.0663
     35 HO2'       -6.1470    8.7430   15.4610 H     182  GDP182      0.2101
     36  H1'       -4.5550   10.3330   14.4170 H     182  GDP182      0.0841
     37  H8        -5.4070    7.2750   12.2440 H     182  GDP182      0.1149
     38  HN1       -8.1500   12.8020   10.4940 H     182  GDP182      0.1589
     39 HN21       -6.2190   14.2150   12.9840 H     182  GDP182      0.1459
     40 HN22       -7.4060   14.4500   11.7210 H     182  GDP182      0.1459
@<TRIPOS>BOND
     1    23    22    2
     2     2     1    2
     3    38    24    1
     4    22    24   am
     5    22    21    1
     6    24    25    1
     7    20    21    2
     8    20    19    2
     9     1     5    1
    10     1     3    1
    11     1     4    1
    12    21    28    1
    13     5     6    1
    14    40    26    1
    15    25    26    1
    16    25    27    2
    17     8     6    2
    18    19    37    1
    19    19    18    1
    20    29    10    1
    21    26    39    1
    22    28    27    2
    23    28    18    1
    24     6     9    1
    25     6     7    1
    26    18    17    1
    27     9    10    1
    28    10    30    1
    29    10    11    1
    30    12    17    1
    31    12    11    1
    32    17    36    1
    33    17    15    1
    34    11    31    1
    35    11    13    1
    36    34    15    1
    37    15    13    1
    38    15    16    1
    39    13    32    1
    40    13    14    1
    41    35    16    1
    42    14    33    1
