@<TRIPOS>MOLECULE
2k74_UQ2_A_1.pdb
 49 49 0 0 0
SMALL
GASTEIGER

@<TRIPOS>ATOM
      1  C1        -9.6730    4.0700    5.4120 C.2   201  UQ2201      0.2278
      2  C2        -9.9890    5.0210    6.4950 C.2   201  UQ2201      0.2128
      3  C3        -9.0180    5.7950    7.0150 C.2   201  UQ2201      0.2128
      4  C4        -7.6390    5.6930    6.5030 C.2   201  UQ2201      0.2273
      5  C5        -7.3200    4.7410    5.4200 C.2   201  UQ2201      0.0072
      6  C6        -8.2930    3.9650    4.8990 C.2   201  UQ2201      0.0135
      7  CM2      -11.5510    3.8910    7.6630 C.3   201  UQ2201      0.0791
      8  CM3       -9.7360    7.8960    7.3790 C.3   201  UQ2201      0.0791
      9  CM5       -5.9080    4.6410    4.9030 C.3   201  UQ2201     -0.0356
     10  C7        -7.9760    2.9910    3.7930 C.3   201  UQ2201     -0.0051
     11  C8        -7.3550    1.7520    4.3880 C.2   201  UQ2201     -0.0806
     12  C9        -6.4100    1.0970    3.7500 C.2   201  UQ2201     -0.0759
     13  C10       -5.9250    1.5730    2.4000 C.3   201  UQ2201     -0.0438
     14  C11       -5.8060   -0.1410    4.3710 C.3   201  UQ2201     -0.0286
     15  C12       -5.4520    0.1200    5.8410 C.3   201  UQ2201     -0.0308
     16  C13       -4.0570   -0.3800    6.1190 C.2   201  UQ2201     -0.0850
     17  C14       -3.0130    0.3400    5.7770 C.2   201  UQ2201     -0.0796
     18  C15       -1.6220   -0.1710    6.0600 C.3   201  UQ2201     -0.0440
     19  C16       -3.2010    1.6780    5.1040 C.3   201  UQ2201     -0.0440
     20  O1       -10.5500    3.3710    4.9430 O.2   201  UQ2201     -0.2836
     21  O2       -11.2610    5.1150    6.9700 O.2   201  UQ2201     -0.4883
     22  O3        -9.3100    6.6770    8.0080 O.2   201  UQ2201     -0.4883
     23  O4        -6.7630    6.3920    6.9730 O.2   201  UQ2201     -0.2836
     24 H2M1      -10.8340    3.7400    8.4550 H     201  UQ2201      0.0660
     25 H2M2      -11.5050    3.0620    6.9670 H     201  UQ2201      0.0660
     26 H2M3      -12.5400    3.9460    8.0900 H     201  UQ2201      0.0660
     27 H3M1       -8.9490    8.2740    6.7430 H     201  UQ2201      0.0660
     28 H3M2       -9.9670    8.6290    8.1400 H     201  UQ2201      0.0660
     29 H3M3      -10.6130    7.7100    6.7830 H     201  UQ2201      0.0660
     30 H5M1       -5.6190    3.6030    4.8390 H     201  UQ2201      0.0279
     31 H5M2       -5.2410    5.1590    5.5770 H     201  UQ2201      0.0279
     32 H5M3       -5.8490    5.0920    3.9240 H     201  UQ2201      0.0279
     33  H71       -7.2870    3.4480    3.1010 H     201  UQ2201      0.0357
     34  H72       -8.8870    2.7270    3.2760 H     201  UQ2201      0.0357
     35  H8        -7.6910    1.3990    5.3520 H     201  UQ2201      0.0575
     36 H101       -5.3880    0.7760    1.9080 H     201  UQ2201      0.0274
     37 H102       -5.2690    2.4200    2.5320 H     201  UQ2201      0.0274
     38 H103       -6.7710    1.8630    1.7940 H     201  UQ2201      0.0274
     39 H111       -4.9100   -0.4130    3.8340 H     201  UQ2201      0.0313
     40 H112       -6.5180   -0.9530    4.3130 H     201  UQ2201      0.0313
     41 H121       -6.1510   -0.4030    6.4770 H     201  UQ2201      0.0310
     42 H122       -5.5000    1.1800    6.0500 H     201  UQ2201      0.0310
     43  H13       -3.9160   -1.3360    6.6000 H     201  UQ2201      0.0572
     44 H151       -0.9600    0.6640    6.2320 H     201  UQ2201      0.0274
     45 H152       -1.2690   -0.7410    5.2130 H     201  UQ2201      0.0274
     46 H153       -1.6410   -0.8020    6.9370 H     201  UQ2201      0.0274
     47 H161       -3.8270    2.3060    5.7210 H     201  UQ2201      0.0274
     48 H162       -3.6700    1.5350    4.1420 H     201  UQ2201      0.0274
     49 H163       -2.2400    2.1510    4.9700 H     201  UQ2201      0.0274
@<TRIPOS>BOND
     1    38    13    1
     2    36    13    1
     3    13    37    1
     4    13    12    1
     5    33    10    1
     6    34    10    1
     7    12    14    1
     8    12    11    2
     9    10    11    1
    10    10     6    1
    11    39    14    1
    12    32     9    1
    13    48    19    1
    14    40    14    1
    15    14    15    1
    16    11    35    1
    17    30     9    1
    18     6     1    1
    19     6     5    2
    20     9     5    1
    21     9    31    1
    22    20     1    2
    23    49    19    1
    24    19    47    1
    25    19    17    1
    26    45    18    1
    27     1     2    1
    28     5     4    1
    29    17    18    1
    30    17    16    2
    31    15    42    1
    32    15    16    1
    33    15    41    1
    34    18    44    1
    35    18    46    1
    36    16    43    1
    37     2    21    1
    38     2     3    2
    39     4    23    2
    40     4     3    1
    41    27     8    1
    42    29     8    1
    43    25     7    1
    44    21     7    1
    45     3    22    1
    46     8    22    1
    47     8    28    1
    48     7    26    1
    49     7    24    1
