@<TRIPOS>MOLECULE
2k8r_IHP_A_1.pdb
 42 42 0 0 0
SMALL
GASTEIGER

@<TRIPOS>ATOM
      1  C1       -16.6030    4.3510    3.5260 C.3   134  IHP134      0.1284
      2  C2       -16.5420    3.9390    2.0520 C.3   134  IHP134      0.1284
      3  C3       -17.1870    5.0420    1.1720 C.3   134  IHP134      0.1284
      4  C4       -16.4070    6.3470    1.3610 C.3   134  IHP134      0.1284
      5  C5       -16.4380    6.7760    2.8350 C.3   134  IHP134      0.1284
      6  C6       -15.8400    5.6730    3.7150 C.3   134  IHP134      0.1284
      7  O11      -15.9990    3.3440    4.3530 O.3   134  IHP134     -0.2749
      8  P1       -16.8440    2.6310    5.5350 P.3   134  IHP134      0.5323
      9  O21      -18.1040    1.9990    5.0730 O.2   134  IHP134     -0.2224
     10  O31      -17.1330    3.7750    6.6210 O.3   134  IHP134     -0.1145
     11  O41      -15.8670    1.5690    6.2400 O.3   134  IHP134     -0.1145
     12  O12      -15.2060    3.7280    1.6310 O.3   134  IHP134     -0.2749
     13  P2       -14.7250    2.2910    1.0840 P.3   134  IHP134      0.5323
     14  O22      -13.7660    1.6900    2.0410 O.3   134  IHP134     -0.1145
     15  O32      -16.0420    1.3860    0.9240 O.3   134  IHP134     -0.1145
     16  O42      -14.0720    2.5630   -0.3440 O.2   134  IHP134     -0.2224
     17  O13      -17.1340    4.6670   -0.1990 O.3   134  IHP134     -0.2749
     18  P3       -18.4870    4.5480   -1.0630 P.3   134  IHP134      0.5323
     19  O23      -19.4010    5.6500   -0.6830 O.3   134  IHP134     -0.1145
     20  O33      -19.1040    3.1030   -0.7130 O.3   134  IHP134     -0.1145
     21  O43      -18.1040    4.6150   -2.6210 O.2   134  IHP134     -0.2224
     22  O14      -16.9940    7.3910    0.5760 O.3   134  IHP134     -0.2749
     23  P4       -16.1290    8.1510   -0.5530 P.3   134  IHP134      0.5323
     24  O24      -16.2530    7.4370   -1.8450 O.2   134  IHP134     -0.2224
     25  O34      -14.6220    8.1340    0.0100 O.3   134  IHP134     -0.1145
     26  O44      -16.6370    9.6690   -0.6510 O.3   134  IHP134     -0.1145
     27  O15      -15.6860    7.9720    3.0090 O.3   134  IHP134     -0.2749
     28  P5       -16.3740    9.3070    3.5870 P.3   134  IHP134      0.5323
     29  O25      -17.5090    9.7010    2.7220 O.2   134  IHP134     -0.2224
     30  O35      -16.8700    8.9640    5.0850 O.3   134  IHP134     -0.1145
     31  O45      -15.2450   10.4420    3.6430 O.3   134  IHP134     -0.1145
     32  O16      -15.8830    6.0880    5.0840 O.3   134  IHP134     -0.2749
     33  P6       -14.5320    6.2540    5.9420 P.3   134  IHP134      0.5323
     34  O26      -14.8090    6.6930    7.3360 O.3   134  IHP134     -0.1145
     35  O36      -13.6830    7.3490    5.1230 O.2   134  IHP134     -0.2224
     36  O46      -13.7520    4.8570    5.9140 O.3   134  IHP134     -0.1145
     37  H1       -17.5530    4.4990    3.8110 H     134  IHP134      0.0656
     38  H2       -17.0540    3.0850    1.9360 H     134  IHP134      0.0656
     39  H3       -18.1370    5.1980    1.4590 H     134  IHP134      0.0656
     40  H4       -15.4520    6.1960    1.0950 H     134  IHP134      0.0656
     41  H5       -17.3890    6.9180    3.1190 H     134  IHP134      0.0656
     42  H6       -14.8860    5.5140    3.4190 H     134  IHP134      0.0656
@<TRIPOS>BOND
     1    21    18    2
     2    24    23    2
     3    18    20    1
     4    18    19    1
     5    18    17    1
     6    26    23    1
     7    23    25    1
     8    23    22    1
     9    16    13    2
    10    17     3    1
    11    22     4    1
    12    15    13    1
    13    13    12    1
    14    13    14    1
    15    40     4    1
    16     3     4    1
    17     3    39    1
    18     3     2    1
    19     4     5    1
    20    12     2    1
    21    38     2    1
    22     2     1    1
    23    29    28    2
    24     5    27    1
    25     5    41    1
    26     5     6    1
    27    27    28    1
    28    42     6    1
    29     1     6    1
    30     1    37    1
    31     1     7    1
    32    28    31    1
    33    28    30    1
    34     6    32    1
    35     7     8    1
    36     9     8    2
    37    32    33    1
    38    35    33    2
    39     8    11    1
    40     8    10    1
    41    36    33    1
    42    33    34    1
