@<TRIPOS>MOLECULE
2kaw_SUZ_A_1.pdb
 41 43 0 0 0
SMALL
GASTEIGER

@<TRIPOS>ATOM
      1  C20        3.2420   -3.7530   -8.5550 C.ar   91  SUZ91      -0.0457
      2  C19        2.1680   -2.8740   -8.5960 C.ar   91  SUZ91      -0.0569
      3  C5         1.1080   -3.0720   -9.5400 C.ar   91  SUZ91      -0.0393
      4  C6        -0.2430   -2.4390   -9.2670 C.3    91  SUZ91       0.0175
      5  C7        -1.0920   -2.7980   -8.1220 C.2    91  SUZ91      -0.0425
      6  C18       -0.7090   -3.8660   -7.0680 C.3    91  SUZ91       0.0533
      7  C17        0.3390   -4.7990   -6.9020 C.2    91  SUZ91      -0.0654
      8  C16        0.3390   -5.5940   -5.8080 C.2    91  SUZ91      -0.0292
      9  C15       -0.6770   -5.5080   -4.8480 C.2    91  SUZ91       0.1234
     10  F         -0.6430   -6.3150   -3.7770 F      91  SUZ91      -0.2055
     11  C14       -1.7160   -4.6030   -4.9960 C.2    91  SUZ91      -0.0218
     12  C13       -1.7230   -3.7950   -6.0980 C.2    91  SUZ91      -0.0253
     13  C10       -2.7070   -2.7140   -6.5400 C.2    91  SUZ91      -0.0292
     14  C11       -3.8850   -2.3260   -5.5870 C.3    91  SUZ91       0.0748
     15  C12       -5.2500   -2.4510   -6.2570 C.2    91  SUZ91       0.3603
     16  O3        -5.5080   -1.7020   -7.3170 O.co2  91  SUZ91      -0.2460
     17  O2        -6.1260   -3.2140   -5.8220 O.co2  91  SUZ91      -0.2460
     18  C8        -2.3630   -2.1310   -7.7110 C.2    91  SUZ91      -0.0454
     19  C9        -3.1020   -1.0600   -8.4160 C.3    91  SUZ91      -0.0394
     20  C4         1.1700   -4.1550  -10.4010 C.ar   91  SUZ91      -0.0569
     21  C3         2.2690   -5.0560  -10.3590 C.ar   91  SUZ91      -0.0457
     22  C2         3.2980   -4.8570   -9.4500 C.ar   91  SUZ91       0.0386
     23  S          4.6610   -5.9370   -9.3700 S.O    91  SUZ91       0.0507
     24  O1         4.2990   -7.2510   -8.9250 O.2    91  SUZ91      -0.2524
     25  C1         5.6750   -5.1820   -8.1330 C.3    91  SUZ91       0.0163
     26  H20        4.0410   -3.5880   -7.8380 H      91  SUZ91       0.0629
     27  H19        2.1400   -2.0360   -7.9120 H      91  SUZ91       0.0621
     28  H6        -0.5660   -1.6880   -9.9760 H      91  SUZ91       0.0404
     29  H17        1.1420   -4.8870   -7.6240 H      91  SUZ91       0.0585
     30  H16        1.1390   -6.3090   -5.6710 H      91  SUZ91       0.0643
     31  H14       -2.4990   -4.5420   -4.2520 H      91  SUZ91       0.0649
     32  H11       -3.7520   -1.3000   -5.2130 H      91  SUZ91       0.0428
     33 H11A       -3.8430   -3.0010   -4.7150 H      91  SUZ91       0.0428
     34  H9        -4.1060   -1.4030   -8.6730 H      91  SUZ91       0.0278
     35  H9A       -3.1710   -0.1810   -7.7680 H      91  SUZ91       0.0278
     36  H9B       -2.6100   -0.7660   -9.3540 H      91  SUZ91       0.0278
     37  H4         0.3710   -4.3090  -11.1150 H      91  SUZ91       0.0621
     38  H3         2.3120   -5.9010  -11.0430 H      91  SUZ91       0.0629
     39  H1         5.9620   -4.1650   -8.4440 H      91  SUZ91       0.0368
     40  H1A        5.1370   -5.1590   -7.1680 H      91  SUZ91       0.0368
     41  H1B        6.5720   -5.7930   -7.9960 H      91  SUZ91       0.0368
@<TRIPOS>BOND
     1    37    20    1
     2    38    21    1
     3    20    21   ar
     4    20     3   ar
     5    21    22   ar
     6    28     4    1
     7     3     4    1
     8     3     2   ar
     9    22    23    1
    10    22     1   ar
    11    23    24    2
    12    23    25    1
    13    36    19    1
    14     4     5    1
    15    34    19    1
    16     2     1   ar
    17     2    27    1
    18     1    26    1
    19    39    25    1
    20    19    35    1
    21    19    18    1
    22    25    41    1
    23    25    40    1
    24     5    18    2
    25     5     6    1
    26    18    13    1
    27    29     7    1
    28    16    15   ar
    29     6     7    1
    30     6    12    1
    31     7     8    2
    32    13    12    2
    33    13    14    1
    34    15    17   ar
    35    15    14    1
    36    12    11    1
    37     8    30    1
    38     8     9    1
    39    14    32    1
    40    14    33    1
    41    11     9    2
    42    11    31    1
    43     9    10    1
