@<TRIPOS>MOLECULE
2kb2_FMN_A_1.pdb
 50 52 0 0 0
SMALL
GASTEIGER

@<TRIPOS>ATOM
      1  N1         3.8830   10.7090   -0.4940 N.2   149  FMN149     -0.3029
      2  C2         4.9520    9.8480   -0.5450 C.1   149  FMN149      0.2727
      3  O2         6.0880   10.2060   -0.6890 O.2   149  FMN149     -0.1927
      4  N3         4.7190    8.4290   -0.4230 N.am  149  FMN149     -0.1956
      5  C4         3.4920    7.8650   -0.2560 C.2   149  FMN149      0.2930
      6  O4         3.3840    6.6370   -0.1570 O.2   149  FMN149     -0.2661
      7  C4A        2.3460    8.7830   -0.2060 C.2   149  FMN149      0.2295
      8  N5         1.1090    8.3180   -0.0520 N.2   149  FMN149     -0.3962
      9  C5A        0.0600    9.2020   -0.0120 C.2   149  FMN149      0.1228
     10  C6        -1.3040    8.6920    0.1540 C.2   149  FMN149     -0.0228
     11  C7        -2.4020    9.5090    0.2040 C.2   149  FMN149     -0.0450
     12  C7M       -3.8300    8.9520    0.3790 C.3   149  FMN149     -0.0394
     13  C8        -2.2190   10.9850    0.0890 C.2   149  FMN149     -0.0489
     14  C8M       -3.3860   11.9330    0.1380 C.3   149  FMN149     -0.0397
     15  C9        -0.9180   11.4870   -0.0730 C.2   149  FMN149     -0.0478
     16  C9A        0.2210   10.6560   -0.1260 C.3   149  FMN149      0.1409
     17  N10        1.5680   11.1120   -0.2890 N.pl3 149  FMN149     -0.2812
     18  C10        2.6470   10.2420   -0.3380 C.2   149  FMN149      0.2319
     19  C1'        1.8570   12.5600   -0.4130 C.3   149  FMN149      0.0444
     20  C2'        1.7310   13.0350   -1.8610 C.3   149  FMN149      0.0992
     21  O2'        2.6620   12.3170   -2.6620 O.3   149  FMN149     -0.3876
     22  C3'        1.8320   14.5320   -2.0630 C.3   149  FMN149      0.1104
     23  O3'        2.8320   15.0360   -1.1840 O.3   149  FMN149     -0.3865
     24  C4'        0.5240   15.2970   -1.9630 C.3   149  FMN149      0.1073
     25  O4'       -0.3850   14.7570   -2.9150 O.3   149  FMN149     -0.3868
     26  C5'        0.6040   16.8130   -2.0510 C.3   149  FMN149      0.0876
     27  O5'        1.9640   17.2540   -2.2190 O.3   149  FMN149     -0.2809
     28  P          2.3510   18.7840   -2.2140 P.3   149  FMN149      0.5320
     29  O1P        1.9250   19.3560   -0.8840 O.3   149  FMN149     -0.1145
     30  O2P        1.7160   19.4410   -3.4040 O.2   149  FMN149     -0.2224
     31  O3P        3.9220   18.7600   -2.2940 O.3   149  FMN149     -0.1145
     32  HN3        5.4680    7.8260   -0.6090 H     149  FMN149      0.1693
     33  H6        -1.4600    7.6240    0.1280 H     149  FMN149      0.0649
     34 HM71       -3.7790    7.9650    0.8120 H     149  FMN149      0.0278
     35 HM72       -4.3170    8.8950   -0.5860 H     149  FMN149      0.0278
     36 HM73       -4.3970    9.6000    1.0310 H     149  FMN149      0.0278
     37 HM81       -3.0260   12.9370    0.3020 H     149  FMN149      0.0278
     38 HM82       -3.9260   11.8920   -0.7960 H     149  FMN149      0.0278
     39 HM83       -4.0460   11.6550    0.9480 H     149  FMN149      0.0278
     40  H9        -0.7820   12.5550   -0.1550 H     149  FMN149      0.0601
     41 H1'1        2.8650   12.7420   -0.0700 H     149  FMN149      0.0491
     42 H1'2        1.1600   13.1080    0.2010 H     149  FMN149      0.0491
     43  H2'        0.7470   12.7440   -2.1970 H     149  FMN149      0.0636
     44 HO2'        3.5540   12.6170   -2.4650 H     149  FMN149      0.2100
     45  H3'        2.1980   14.6820   -3.0690 H     149  FMN149      0.0646
     46 HO3'        2.5100   15.0040   -0.2800 H     149  FMN149      0.2100
     47  H4'        0.1150   15.0720   -0.9900 H     149  FMN149      0.0643
     48 HO4'        0.0170   14.0030   -3.3500 H     149  FMN149      0.2100
     49 H5'1        0.2060   17.2390   -1.1420 H     149  FMN149      0.0592
     50 H5'2        0.0200   17.1480   -2.8940 H     149  FMN149      0.0592
@<TRIPOS>BOND
     1    30    28    2
     2    48    25    1
     3    45    22    1
     4    25    24    1
     5    50    26    1
     6    21    44    1
     7    21    20    1
     8    31    28    1
     9    27    28    1
    10    27    26    1
    11    28    29    1
    12    43    20    1
    13    22    24    1
    14    22    20    1
    15    22    23    1
    16    26    24    1
    17    26    49    1
    18    24    47    1
    19    20    19    1
    20    23    46    1
    21    38    14    1
    22     3     2    2
    23    32     4    1
    24    35    12    1
    25     2     1    2
    26     2     4   am
    27     1    18    2
    28     4     5   am
    29    19    17    1
    30    19    41    1
    31    19    42    1
    32    18    17    1
    33    18     7    1
    34    17    16    1
    35     5     7    1
    36     5     6    2
    37     7     8    2
    38    40    15    1
    39    16    15    1
    40    16     9    1
    41    15    13    2
    42     8     9    2
    43     9    10    1
    44    13    14    1
    45    13    11    1
    46    33    10    1
    47    14    37    1
    48    14    39    1
    49    10    11    2
    50    11    12    1
    51    12    34    1
    52    12    36    1
