@<TRIPOS>MOLECULE
2kce_D16_A_1.pdb
 33 35 0 0 0
SMALL
GASTEIGER

@<TRIPOS>ATOM
      1  N1        13.0940   18.6020   30.5360 N.2   566  D16566     -0.3460
      2  C2        12.8010   19.4640   31.5350 C.1   566  D16566      0.1266
      3  CM2       11.8020   20.5190   31.3570 C.3   566  D16566      0.1438
      4  N3        13.4430   19.3860   32.7110 N.2   566  D16566     -0.2706
      5  C4        14.4030   18.4720   32.9150 C.1   566  D16566      0.2162
      6  O4        15.1670   18.5590   34.0480 O.2   566  D16566     -0.2085
      7  C4A       14.6480   17.4740   31.9680 C.2   566  D16566      0.1216
      8  C5        15.4940   16.3710   32.2210 C.2   566  D16566      0.0121
      9  C6        15.6880   15.3920   31.2150 C.2   566  D16566     -0.0054
     10  C7        15.0600   15.5570   29.9710 C.2   566  D16566     -0.0212
     11  C8        14.2170   16.6450   29.7290 C.3   566  D16566      0.0864
     12  C8A       13.9840   17.6030   30.7270 C.2   566  D16566      0.1373
     13  C9        16.4250   14.1130   31.4490 C.3   566  D16566      0.1178
     14  N10       16.9930   13.9020   32.8000 N.pl3 566  D16566     -0.2969
     15  C11       14.4710   13.3140   35.5600 C.ar  566  D16566      0.0839
     16  S13       14.5570   13.3290   33.8690 S.2   566  D16566     -0.0678
     17  C14       16.2460   13.6120   33.8800 C.ar  566  D16566      0.0787
     18  C15       16.7030   13.7110   35.1820 C.ar  566  D16566      0.0219
     19  C16       15.7100   13.5420   36.1210 C.ar  566  D16566      0.0129
     20  C         13.3290   12.8470   36.3170 C.2   566  D16566      0.2523
     21  O         12.2590   12.6450   35.7390 O.2   566  D16566     -0.2696
     22  N         13.4740   12.6490   37.6230 N.am  566  D16566     -0.2927
     23  CA        12.4520   12.0280   38.4830 C.3   566  D16566      0.1766
     24  CB        12.7210   10.5670   38.8180 C.3   566  D16566      0.0430
     25  CG        13.0200    9.5350   37.7700 C.3   566  D16566      0.1163
     26  CD        13.5120    8.2750   38.4730 C.2   566  D16566      0.3649
     27  OE1       12.6980    7.5150   38.9970 O.co2 566  D16566     -0.2457
     28  OE2       14.7220    8.0690   38.5800 O.co2 566  D16566     -0.2457
     29  CT        12.5840   12.7660   39.8120 C.2   566  D16566      0.3823
     30  O1        13.7130   13.0680   40.2230 O.co2 566  D16566     -0.2438
     31  O2        11.5650   13.0290   40.4470 O.co2 566  D16566     -0.2438
     32  CP1       18.4420   14.0000   32.9350 C.3   566  D16566      0.1129
     33  HN        14.1940   13.1140   38.1010 H     566  D16566      0.1502
@<TRIPOS>BOND
     1    11    10    1
     2    11    12    1
     3    10     9    2
     4     1    12    2
     5     1     2    2
     6    12     7    1
     7     9    13    1
     8     9     8    1
     9     3     2    1
    10    13    14    1
    11     2     4    2
    12     7     8    2
    13     7     5    1
    14     4     5    2
    15    14    32    1
    16    14    17    1
    17     5     6    2
    18    16    17   ar
    19    16    15   ar
    20    17    18   ar
    21    18    19   ar
    22    15    19   ar
    23    15    20    1
    24    21    20    2
    25    20    22   am
    26    22    33    1
    27    22    23    1
    28    25    26    1
    29    25    24    1
    30    26    28   ar
    31    26    27   ar
    32    23    24    1
    33    23    29    1
    34    29    30   ar
    35    29    31   ar
