@<TRIPOS>MOLECULE
2kce_UMP_A_1.pdb
 21 22 0 0 0
SMALL
GASTEIGER

@<TRIPOS>ATOM
      1  N1        17.4310   20.1300   31.1310 N.am  565  UMP565     -0.2411
      2  C2        18.1720   19.8770   32.2820 C.2   565  UMP565      0.3113
      3  N3        18.8730   18.6890   32.3270 N.am  565  UMP565     -0.2394
      4  C4        19.1350   17.8550   31.2490 C.2   565  UMP565      0.2310
      5  C5        18.3610   18.0840   29.9640 C.3   565  UMP565      0.1071
      6  C6        17.6920   19.4700   29.8170 C.3   565  UMP565      0.1067
      7  O2        18.1860   20.6400   33.2460 O.2   565  UMP565     -0.2521
      8  O4        19.9420   16.9290   31.3410 O.2   565  UMP565     -0.2746
      9  C1'       16.2610   21.0150   31.1700 C.3   565  UMP565      0.1980
     10  C2'       16.5550   22.4570   30.8010 C.3   565  UMP565      0.0865
     11  C3'       15.2100   23.0140   30.3460 C.3   565  UMP565      0.1857
     12  C4'       14.7170   21.8050   29.5370 C.3   565  UMP565      0.1774
     13  O3'       14.3370   23.2130   31.4770 O.3   565  UMP565     -0.2203
     14  O4'       15.2020   20.6340   30.2470 O.3   565  UMP565     -0.3347
     15  C5'       15.2810   21.7320   28.1470 C.3   565  UMP565      0.1858
     16  O5'       14.5550   22.7050   27.3470 O.3   565  UMP565     -0.2675
     17  P         15.1890   23.7860   26.3980 P.3   565  UMP565      0.5327
     18  OP1       14.1090   24.6490   25.9040 O.3   565  UMP565     -0.1145
     19  OP2       16.1030   24.6160   27.1920 O.3   565  UMP565     -0.1145
     20  OP3       15.8500   23.1280   25.2740 O.2   565  UMP565     -0.2224
     21  HN3       18.9990   18.2890   33.2100 H     565  UMP565      0.1591
@<TRIPOS>BOND
     1    20    17    2
     2    18    17    1
     3    17    19    1
     4    17    16    1
     5    16    15    1
     6    15    12    1
     7    12    14    1
     8    12    11    1
     9     6     5    1
    10     6     1    1
    11     5     4    1
    12    14     9    1
    13    11    10    1
    14    11    13    1
    15    10     9    1
    16     1     9    1
    17     1     2   am
    18     4     8    2
    19     4     3   am
    20     2     3   am
    21     2     7    2
    22     3    21    1
