@<TRIPOS>MOLECULE
2ke5_GNP_A_1.pdb
 45 47 0 0 0
SMALL
GASTEIGER

@<TRIPOS>ATOM
      1  PG        -7.7050   -2.3960   11.1340 P.3   500  GNP500      0.4710
      2  O1G       -8.9910   -2.4150   11.8750 O.3   500  GNP500     -0.1250
      3  O2G       -7.0030   -3.8320   11.1250 O.2   500  GNP500     -0.2347
      4  O3G       -6.7230   -1.2840   11.7180 O.3   500  GNP500     -0.1250
      5  N3B       -7.9080   -1.9670    9.5220 N.3   500  GNP500     -0.1200
      6  PB        -9.0820   -2.9020    8.7650 P.3   500  GNP500      0.4495
      7  O1B       -9.8200   -2.0430    7.8050 O.2   500  GNP500     -0.2367
      8  O2B       -8.4390   -4.1390    8.2660 O.3   500  GNP500     -0.1263
      9  O3A      -10.0680   -3.2870    9.9550 O.3   500  GNP500     -0.2370
     10  PA       -11.2410   -4.3360    9.7100 P.3   500  GNP500      0.2213
     11  O1A      -10.6480   -5.6930    9.5870 O.2   500  GNP500     -0.5170
     12  O2A      -12.3010   -4.1070   10.7260 O.3   500  GNP500     -0.4371
     13  O5'      -11.8000   -3.8950    8.2850 O.3   500  GNP500     -0.3245
     14  C5'      -11.8210   -4.8090    7.1910 C.3   500  GNP500      0.0836
     15  C4'      -13.2450   -5.0730    6.7610 C.3   500  GNP500      0.1131
     16  O4'      -13.4700   -4.4380    5.4720 O.3   500  GNP500     -0.3474
     17  C3'      -13.6000   -6.5400    6.5530 C.3   500  GNP500      0.1133
     18  O3'      -14.9650   -6.7870    6.8660 O.3   500  GNP500     -0.3864
     19  C2'      -13.3160   -6.7590    5.0720 C.3   500  GNP500      0.1266
     20  O2'      -14.1150   -7.7910    4.5250 O.3   500  GNP500     -0.3849
     21  C1'      -13.7560   -5.4200    4.4950 C.3   500  GNP500      0.1617
     22  N9       -13.0660   -5.0570    3.2610 N.pl3 500  GNP500     -0.2241
     23  C8       -11.7570   -4.6640    3.1290 C.2   500  GNP500      0.1451
     24  N7       -11.4200   -4.4000    1.8980 N.2   500  GNP500     -0.3865
     25  C5       -12.5780   -4.6340    1.1680 C.2   500  GNP500      0.2296
     26  C6       -12.8260   -4.5180   -0.2240 C.2   500  GNP500      0.2859
     27  O6       -12.0440   -4.1740   -1.1170 O.2   500  GNP500     -0.2668
     28  N1       -14.1380   -4.8510   -0.5480 N.am  500  GNP500     -0.2418
     29  C2       -15.0880   -5.2480    0.3640 C.2   500  GNP500      0.2395
     30  N2       -16.3000   -5.5300   -0.1350 N.pl3 500  GNP500     -0.3206
     31  N3       -14.8700   -5.3610    1.6650 N.2   500  GNP500     -0.3551
     32  C4       -13.6020   -5.0410    1.9950 C.2   500  GNP500      0.2272
     33 HNB3       -7.0560   -2.0660    9.0480 H     500  GNP500      0.1458
     34 H5'2      -11.3560   -5.7500    7.4890 H     500  GNP500      0.0591
     35 H5'1      -11.2700   -4.3910    6.3510 H     500  GNP500      0.0591
     36  H4'      -13.9010   -4.7000    7.5490 H     500  GNP500      0.0647
     37  H3'      -13.0160   -7.1960    7.1970 H     500  GNP500      0.0647
     38 HO3'      -15.4800   -6.5620    6.0920 H     500  GNP500      0.2100
     39  H2'      -12.2490   -6.9290    4.9120 H     500  GNP500      0.0663
     40 HO2'      -15.0280   -7.5700    4.7090 H     500  GNP500      0.2101
     41  H1'      -14.8290   -5.3840    4.3070 H     500  GNP500      0.0841
     42  H8       -11.0750   -4.5820    3.9620 H     500  GNP500      0.1149
     43  HN1      -14.4120   -4.7980   -1.5190 H     500  GNP500      0.1589
     44 HN21      -17.0430   -5.8260    0.4800 H     500  GNP500      0.1459
     45 HN22      -16.4680   -5.4460   -1.1280 H     500  GNP500      0.1459
@<TRIPOS>BOND
     1    43    28    1
     2    45    30    1
     3    27    26    2
     4    28    26   am
     5    28    29    1
     6    26    25    1
     7    30    29    1
     8    30    44    1
     9    29    31    2
    10    25    24    2
    11    25    32    1
    12    31    32    2
    13    24    23    2
    14    32    22    1
    15    23    22    1
    16    23    42    1
    17    22    21    1
    18    41    21    1
    19    21    19    1
    20    21    16    1
    21    20    40    1
    22    20    19    1
    23    39    19    1
    24    19    17    1
    25    16    15    1
    26    38    18    1
    27    35    14    1
    28    17    15    1
    29    17    18    1
    30    17    37    1
    31    15    14    1
    32    15    36    1
    33    14    34    1
    34    14    13    1
    35     7     6    2
    36     8     6    1
    37    13    10    1
    38     6     5    1
    39     6     9    1
    40    33     5    1
    41     5     1    1
    42    11    10    2
    43    10     9    1
    44    10    12    1
    45     3     1    2
    46     1     4    1
    47     1     2    1
