@<TRIPOS>MOLECULE
2kfx_WW7_T_1.pdb
 44 45 0 0 0
SMALL
GASTEIGER

@<TRIPOS>ATOM
      1  S1        80.5120    3.5460   -4.6840 S.O2   91  WW791       0.0590
      2  O1        81.1220    3.1440   -5.9080 O.2    91  WW791      -0.1530
      3  O2        80.0010    4.8940   -4.6240 O.2    91  WW791      -0.1530
      4  N1        79.1720    2.4680   -4.4240 N.3    91  WW791      -0.1899
      5  C4        83.5310    3.0740   -1.0900 C.ar   91  WW791      -0.0525
      6  C3        82.7070    4.2620   -1.2390 C.ar   91  WW791      -0.0593
      7  C2        81.7800    4.3970   -2.3630 C.ar   91  WW791      -0.0347
      8  C1        81.6580    3.3380   -3.3570 C.ar   91  WW791       0.1129
      9  C9        82.4730    2.1370   -3.2400 C.ar   91  WW791       0.0098
     10  C10       83.4330    2.0030   -2.0750 C.ar   91  WW791       0.0023
     11 CL1        85.3400    0.5440   -0.6480 Cl     91  WW791      -0.0829
     12  C5        84.2360    0.7930   -1.9530 C.ar   91  WW791       0.0487
     13  C6        84.1160   -0.2700   -2.9400 C.ar   91  WW791      -0.0428
     14  C7        83.1880   -0.1340   -4.0650 C.ar   91  WW791      -0.0597
     15  C8        82.3690    1.0600   -4.2180 C.ar   91  WW791      -0.0521
     16  C11       77.8860    3.0730   -4.0850 C.3    91  WW791       0.0174
     17  C12       77.4570    2.8470   -2.6360 C.3    91  WW791      -0.0388
     18  C14       79.2170    2.8360   -0.8560 C.3    91  WW791      -0.0547
     19  C13       78.2960    3.7170   -1.7000 C.3    91  WW791      -0.0519
     20  C15       79.2490    3.3530    0.5860 C.3    91  WW791      -0.0689
     21  C16       80.6500    3.1660    1.1770 C.3    91  WW791      -0.0963
     22  N2        81.2660    4.4210    1.5760 N.4    91  WW791       0.3781
     23  HN1       79.4200    1.8610   -3.6710 H      91  WW791       0.1480
     24  H4        84.1620    2.9920   -0.3180 H      91  WW791       0.0624
     25  H3        82.7730    4.9970   -0.5640 H      91  WW791       0.0618
     26  H2        81.2250    5.2240   -2.4510 H      91  WW791       0.0637
     27  H6        84.6710   -1.0970   -2.8510 H      91  WW791       0.0632
     28  H7        83.1160   -0.8710   -4.7360 H      91  WW791       0.0618
     29  H8        81.7380    1.1400   -4.9900 H      91  WW791       0.0624
     30 H111       77.1880    2.6910   -4.6870 H      91  WW791       0.0441
     31 H112       77.9540    4.0600   -4.2470 H      91  WW791       0.0441
     32 H121       77.5730    1.8860   -2.3990 H      91  WW791       0.0278
     33 H122       76.4860    3.0870   -2.5450 H      91  WW791       0.0278
     34 H141       80.1360    2.8460   -1.2410 H      91  WW791       0.0265
     35 H142       78.8700    1.8940   -0.8730 H      91  WW791       0.0265
     36 H131       77.6950    4.2460   -1.1060 H      91  WW791       0.0266
     37 H132       78.8440    4.3520   -2.2520 H      91  WW791       0.0266
     38 H151       78.5810    2.8560    1.1350 H      91  WW791       0.0247
     39 H152       79.0070    4.3270    0.5870 H      91  WW791       0.0247
     40 H161       81.2290    2.7230    0.4970 H      91  WW791       0.0049
     41 H162       80.5750    2.5690    1.9790 H      91  WW791       0.0049
     42 HN21       80.5660    5.1400    1.5800 H      91  WW791      -0.0901
     43 HN22       81.9770    4.6690    0.9220 H      91  WW791      -0.0901
     44 HN23       81.6620    4.3290    2.4900 H      91  WW791      -0.0901
@<TRIPOS>BOND
     1     2     1    2
     2    29    15    1
     3    28    14    1
     4    30    16    1
     5     1     3    2
     6     1     4    1
     7     1     8    1
     8     4    16    1
     9     4    23    1
    10    31    16    1
    11    15    14   ar
    12    15     9   ar
    13    16    17    1
    14    14    13   ar
    15     8     9   ar
    16     8     7   ar
    17     9    10   ar
    18    13    27    1
    19    13    12   ar
    20    17    33    1
    21    17    32    1
    22    17    19    1
    23    26     7    1
    24     7     6   ar
    25    37    19    1
    26    10    12   ar
    27    10     5   ar
    28    12    11    1
    29    19    36    1
    30    19    18    1
    31    34    18    1
    32     6     5   ar
    33     6    25    1
    34     5    24    1
    35    35    18    1
    36    18    20    1
    37    40    21    1
    38    20    39    1
    39    20    38    1
    40    20    21    1
    41    43    22    1
    42    21    22    1
    43    21    41    1
    44    22    42    1
    45    22    44    1
