@<TRIPOS>MOLECULE
2kg6_SXA_A_1.pdb
 47 46 0 0 0
SMALL
GASTEIGER

@<TRIPOS>ATOM
      1  P24       -7.9590   11.0520   -2.3960 P.3    87  SXA87       0.3935
      2  O26       -7.7910   10.4190   -3.8030 O.3    87  SXA87      -0.1425
      3  O23       -9.2890   11.7830   -2.1080 O.3    87  SXA87      -0.1425
      4  O27       -6.8090   12.0610   -2.2080 O.3    87  SXA87      -0.3080
      5  C28       -6.7140   12.7780   -0.9320 C.3    87  SXA87       0.0644
      6  C29       -5.6690   13.8990   -0.9980 C.3    87  SXA87       0.0234
      7  C30       -4.3150   13.2320   -1.1870 C.3    87  SXA87      -0.0549
      8  C31       -5.9770   14.8310   -2.1810 C.3    87  SXA87      -0.0549
      9  C32       -5.7110   14.7110    0.3690 C.3    87  SXA87       0.1380
     10  O33       -7.0670   14.9570    0.7630 O.3    87  SXA87      -0.3820
     11  C34       -4.9970   16.0770    0.2950 C.2    87  SXA87       0.2423
     12  O35       -5.6430   17.0970    0.5430 O.2    87  SXA87      -0.2730
     13  N36       -3.7140   16.1310   -0.0190 N.am   87  SXA87      -0.3127
     14  C37       -2.9810   17.4090   -0.0950 C.3    87  SXA87       0.0199
     15  C38       -1.6020   17.3880    0.5880 C.3    87  SXA87       0.0395
     16  C39       -1.6000   17.0850    2.1000 C.2    87  SXA87       0.2145
     17  O40       -0.5350   17.0510    2.7460 O.2    87  SXA87      -0.2758
     18  N41       -2.7830   16.8530    2.6480 N.am   87  SXA87      -0.3145
     19  C42       -2.9910   16.5360    4.0490 C.3    87  SXA87       0.0210
     20  C43       -4.2780   15.7530    4.2620 C.3    87  SXA87       0.0165
     21  S1        -4.4420   15.3150    5.9320 S.3    87  SXA87      -0.0869
     22  C1        -4.7000   16.8960    6.6320 C.2    87  SXA87       0.1864
     23  O1        -4.8220   17.9540    5.9750 O.2    87  SXA87      -0.2855
     24  C2        -4.7800   16.8990    8.1470 C.3    87  SXA87       0.0044
     25  H28       -7.6790   13.2050   -0.7040 H      87  SXA87       0.0571
     26 H28A       -6.4350   12.0790   -0.1560 H      87  SXA87       0.0571
     27  H30       -4.1130   12.5750   -0.3540 H      87  SXA87       0.0237
     28 H30A       -3.5450   13.9880   -1.2410 H      87  SXA87       0.0237
     29 H30B       -4.3240   12.6590   -2.1030 H      87  SXA87       0.0237
     30  H31       -5.9530   14.2630   -3.1000 H      87  SXA87       0.0237
     31 H31A       -5.2400   15.6190   -2.2240 H      87  SXA87       0.0237
     32 H31B       -6.9580   15.2630   -2.0500 H      87  SXA87       0.0237
     33  H32       -5.2360   14.1230    1.1420 H      87  SXA87       0.0696
     34 HO33       -7.3520   15.7260    0.2420 H      87  SXA87       0.2105
     35 HN36       -3.2110   15.3050   -0.2050 H      87  SXA87       0.1488
     36  H37       -2.8320   17.6610   -1.1360 H      87  SXA87       0.0467
     37 H37A       -3.5840   18.1740    0.3700 H      87  SXA87       0.0467
     38  H38       -0.9970   16.6380    0.1000 H      87  SXA87       0.0374
     39 H38A       -1.1390   18.3520    0.4300 H      87  SXA87       0.0374
     40 HN41       -3.5760   16.8900    2.0710 H      87  SXA87       0.1487
     41  H42       -2.1630   15.9330    4.3900 H      87  SXA87       0.0470
     42 H42A       -3.0310   17.4520    4.6180 H      87  SXA87       0.0470
     43  H43       -4.2440   14.8480    3.6730 H      87  SXA87       0.0396
     44 H43A       -5.1240   16.3570    3.9740 H      87  SXA87       0.0396
     45  H2        -5.5970   16.2660    8.4580 H      87  SXA87       0.0315
     46  H2A       -4.9480   17.9100    8.4890 H      87  SXA87       0.0315
     47  H2B       -3.8500   16.5240    8.5480 H      87  SXA87       0.0315
@<TRIPOS>BOND
     1     2     1    1
     2    30     8    1
     3     1     4    1
     4     1     3    1
     5    31     8    1
     6     4     5    1
     7     8    32    1
     8     8     6    1
     9    29     7    1
    10    28     7    1
    11     7     6    1
    12     7    27    1
    13    36    14    1
    14     6     5    1
    15     6     9    1
    16     5    25    1
    17     5    26    1
    18    35    13    1
    19    14    13    1
    20    14    37    1
    21    14    15    1
    22    13    11   am
    23    38    15    1
    24    34    10    1
    25    11     9    1
    26    11    12    2
    27     9    10    1
    28     9    33    1
    29    39    15    1
    30    15    16    1
    31    40    18    1
    32    16    18   am
    33    16    17    2
    34    18    19    1
    35    43    20    1
    36    44    20    1
    37    19    20    1
    38    19    41    1
    39    19    42    1
    40    20    21    1
    41    21    22    1
    42    23    22    2
    43    22    24    1
    44    24    45    1
    45    24    46    1
    46    24    47    1
