@<TRIPOS>MOLECULE
2kg8_SXM_A_1.pdb
 49 48 0 0 0
SMALL
GASTEIGER

@<TRIPOS>ATOM
      1  P24        8.9790    9.8640    0.0080 P.3    87  SXM87       0.3935
      2  O26        9.3430    9.5930   -1.3960 O.3    87  SXM87      -0.1425
      3  O23        9.9060   10.6670    0.8430 O.3    87  SXM87      -0.1425
      4  O27        7.5650   10.5130    0.0770 O.3    87  SXM87      -0.3080
      5  C28        7.3650   11.7910   -0.6090 C.3    87  SXM87       0.0644
      6  C29        5.9880   12.3930   -0.2670 C.3    87  SXM87       0.0234
      7  C30        4.9430   11.4220   -0.7630 C.3    87  SXM87      -0.0549
      8  C31        5.8410   12.5630    1.2390 C.3    87  SXM87      -0.0549
      9  C32        5.7640   13.7980   -0.9800 C.3    87  SXM87       0.1380
     10  O33        5.3840   13.6610   -2.3600 O.3    87  SXM87      -0.3820
     11  C34        6.9820   14.7200   -0.9040 C.2    87  SXM87       0.2423
     12  O35        7.7700   14.7450    0.0590 O.2    87  SXM87      -0.2730
     13  N36        7.1210   15.4590   -1.9560 N.am   87  SXM87      -0.3127
     14  C37        8.2020   16.4180   -2.1870 C.3    87  SXM87       0.0199
     15  C38        8.2360   16.9420   -3.6370 C.3    87  SXM87       0.0395
     16  C39        8.2050   15.8370   -4.7000 C.2    87  SXM87       0.2145
     17  O40        8.1880   14.6290   -4.4030 O.2    87  SXM87      -0.2758
     18  N41        8.1990   16.2540   -5.9430 N.am   87  SXM87      -0.3145
     19  C42        8.1510   15.3460   -7.0700 C.3    87  SXM87       0.0210
     20  C43        9.2450   15.5900   -8.0810 C.3    87  SXM87       0.0165
     21  S1         9.1790   14.3170   -9.2470 S.3    87  SXM87      -0.0860
     22  C1         9.5720   12.9620   -8.2000 C.2    87  SXM87       0.2002
     23  O1        10.2250   13.0550   -7.1260 O.2    87  SXM87      -0.2846
     24  C2         9.0710   11.6130   -8.6920 C.3    87  SXM87       0.1177
     25  C3         7.5530   11.3740   -8.6510 C.2    87  SXM87       0.3639
     26  O3A        7.1020   10.3390   -9.2030 O.co2  87  SXM87      -0.2459
     27  O3B        6.7820   12.1850   -8.0630 O.co2  87  SXM87      -0.2459
     28  H28        8.1450   12.4550   -0.2700 H      87  SXM87       0.0571
     29 H28A        7.4550   11.6330   -1.6730 H      87  SXM87       0.0571
     30  H30        3.9580   11.8090   -0.5440 H      87  SXM87       0.0237
     31 H30A        5.0730   10.4700   -0.2710 H      87  SXM87       0.0237
     32 H30B        5.0480   11.2930   -1.8300 H      87  SXM87       0.0237
     33  H31        6.6170   13.2210    1.6030 H      87  SXM87       0.0237
     34 H31A        5.9310   11.6010    1.7210 H      87  SXM87       0.0237
     35 H31B        4.8740   12.9890    1.4630 H      87  SXM87       0.0237
     36  H32        4.9490   14.3070   -0.4830 H      87  SXM87       0.0696
     37 HO33        5.9400   12.9890   -2.7800 H      87  SXM87       0.2105
     38 HN36        6.4310   15.3190   -2.6440 H      87  SXM87       0.1488
     39  H37        9.1410   15.9190   -2.0000 H      87  SXM87       0.0467
     40 H37A        8.1120   17.2520   -1.5070 H      87  SXM87       0.0467
     41  H38        7.3480   17.5390   -3.7890 H      87  SXM87       0.0374
     42 H38A        9.1170   17.5480   -3.7820 H      87  SXM87       0.0374
     43 HN41        8.2220   17.2200   -6.1330 H      87  SXM87       0.1487
     44  H42        8.2690   14.3400   -6.6950 H      87  SXM87       0.0470
     45 H42A        7.1900   15.4390   -7.5520 H      87  SXM87       0.0470
     46  H43       10.2060   15.5380   -7.5890 H      87  SXM87       0.0396
     47 H43A        9.1060   16.5410   -8.5740 H      87  SXM87       0.0396
     48  H2         9.5290   10.8640   -8.0620 H      87  SXM87       0.0466
     49  H2A        9.4040   11.4620   -9.7070 H      87  SXM87       0.0466
@<TRIPOS>BOND
     1    49    24    1
     2    21    22    1
     3    21    20    1
     4    26    25   ar
     5    24    25    1
     6    24    22    1
     7    24    48    1
     8    25    27   ar
     9    47    20    1
    10    22    23    2
    11    20    46    1
    12    20    19    1
    13    45    19    1
    14    19    44    1
    15    19    18    1
    16    43    18    1
    17    18    16   am
    18    16    17    2
    19    16    15    1
    20    41    15    1
    21    42    15    1
    22    15    14    1
    23    37    10    1
    24    38    13    1
    25    10     9    1
    26    14    39    1
    27    14    13    1
    28    14    40    1
    29    13    11   am
    30    32     7    1
    31    29     5    1
    32     2     1    1
    33     9    11    1
    34     9    36    1
    35     9     6    1
    36    11    12    2
    37     7    30    1
    38     7    31    1
    39     7     6    1
    40     5    28    1
    41     5     6    1
    42     5     4    1
    43     6     8    1
    44     1     4    1
    45     1     3    1
    46     8    35    1
    47     8    33    1
    48     8    34    1
