@<TRIPOS>MOLECULE
2kgk_N22_A_1.pdb
 27 28 0 0 0
SMALL
GASTEIGER

@<TRIPOS>ATOM
      1  C8        23.5430    2.3390  -12.3540 C.3   174  N22174      0.0076
      2  C7        22.8510    3.7040  -12.3920 C.3   174  N22174      0.0569
      3  C5        21.3850    3.5880  -11.9710 C.2   174  N22174      0.1200
      4  N4        20.7530    2.4310  -12.2130 N.2   174  N22174     -0.3359
      5  C3        19.4680    2.2490  -11.8750 C.1   174  N22174      0.1965
      6  N8        18.8810    1.0840  -12.1350 N.pl3 174  N22174     -0.2835
      7  N2        18.7700    3.2250  -11.2790 N.2   174  N22174     -0.3168
      8  C1        19.3450    4.4050  -11.0100 C.2   174  N22174      0.1858
      9  N7        18.6490    5.3710  -10.4190 N.pl3 174  N22174     -0.3345
     10  C6        20.6750    4.6110  -11.3530 C.3   174  N22174      0.1794
     11  C9        21.3080    5.8640  -11.0760 C.1   174  N22174     -0.0762
     12  C10       21.8490    6.9360  -10.8380 C.1   174  N22174     -0.0853
     13  C11       22.4980    8.2210  -10.5500 C.3   174  N22174      0.1054
     14  C13       22.9360    8.9190  -11.8400 C.ar  174  N22174      0.0278
     15  C18       22.0020    9.0270  -12.8630 C.ar  174  N22174      0.0366
     16  C17       22.3280    9.6540  -14.0600 C.ar  174  N22174      0.1386
     17  O2        21.4010    9.7550  -15.0500 O.3   174  N22174     -0.4714
     18  C4        20.8470    8.4640  -15.3200 C.3   174  N22174      0.2525
     19  C16       23.6000   10.1810  -14.2440 C.ar  174  N22174      0.0400
     20  C15       24.5410   10.0770  -13.2260 C.ar  174  N22174      0.0397
     21  C14       24.2080    9.4480  -12.0320 C.ar  174  N22174      0.1358
     22  O10       25.1350    9.3510  -11.0410 O.3   174  N22174     -0.4717
     23  C2        26.0760    8.3250  -11.3680 C.3   174  N22174      0.2525
     24  HN8       19.3940    0.3550  -12.5870 H     174  N22174      0.1555
     25 HN8A       17.9250    0.9390  -11.8780 H     174  N22174      0.1555
     26  HN7       17.6520    5.3920  -10.5020 H     174  N22174      0.1444
     27 HN7A       19.1210    6.0760   -9.8910 H     174  N22174      0.1444
@<TRIPOS>BOND
     1    18    17    1
     2    17    16    1
     3    19    16   ar
     4    19    20   ar
     5    16    15   ar
     6    20    21   ar
     7    15    14   ar
     8    24     6    1
     9     2     1    1
    10     2     3    1
    11     4     3    2
    12     4     5    2
    13     6    25    1
    14     6     5    1
    15    21    14   ar
    16    21    22    1
    17     3    10    1
    18     5     7    2
    19    14    13    1
    20    23    22    1
    21    10    11    1
    22    10     8    1
    23     7     8    2
    24    11    12    3
    25     8     9    1
    26    12    13    1
    27    26     9    1
    28     9    27    1
