@<TRIPOS>MOLECULE
2ki5_AC2_A_1.pdb
 16 17 0 0 0
SMALL
GASTEIGER

@<TRIPOS>ATOM
      1  C3'       50.9250   84.4330   55.5060 C.3     1  AC21        0.2141
      2  O3'       50.5350   85.3260   56.5600 O.3     1  AC21       -0.2176
      3  C2'       49.9540   84.4700   54.3080 C.3     1  AC21        0.1796
      4  O1'       48.6080   84.0160   54.5150 O.3     1  AC21       -0.3314
      5  C1'       48.3260   83.9580   55.8490 C.3     1  AC21        0.2438
      6  N9        47.1480   84.7490   56.1390 N.pl3   1  AC21       -0.2341
      7  C8        47.0480   85.5420   57.2270 C.3     1  AC21        0.2246
      8  N7        45.9510   86.1650   57.3840 N.2     1  AC21       -0.2322
      9  C5        45.2100   85.7320   56.2860 C.2     1  AC21        0.2182
     10  C6        43.8700   86.0780   56.0060 C.1     1  AC21        0.2372
     11  O6        43.1530   86.8500   56.6570 O.2     1  AC21       -0.2069
     12  N1        43.4700   85.4280   54.8480 N.2     1  AC21       -0.2485
     13  C2        44.2880   84.5730   54.0840 C.1     1  AC21        0.2531
     14  N2        43.7140   84.0500   53.0010 N.pl3   1  AC21       -0.0226
     15  N3        45.5700   84.2570   54.3280 N.2     1  AC21       -0.3074
     16  C4        45.9370   84.8800   55.4740 C.2     1  AC21        0.2300
@<TRIPOS>BOND
     1    14    13    1
     2    13    15    2
     3    13    12    2
     4     3     4    1
     5     3     1    1
     6    15    16    2
     7     4     5    1
     8    12    10    2
     9    16     6    1
    10    16     9    1
    11     1     2    1
    12     5     6    1
    13    10     9    1
    14    10    11    2
    15     6     7    1
    16     9     8    2
    17     7     8    1
