@<TRIPOS>MOLECULE
2kin_ADP_A_1.pdb
 27 29 0 0 0
SMALL
GASTEIGER

@<TRIPOS>ATOM
      1  PB        17.7860   16.0580   18.8930 P.3   400  ADP400      0.5373
      2  O1B       17.6850   15.5600   20.2950 O.3   400  ADP400     -0.1143
      3  O2B       19.1750   15.9370   18.3860 O.2   400  ADP400     -0.2221
      4  O3B       17.1480   17.3770   18.6580 O.3   400  ADP400     -0.1143
      5  PA        17.3210   14.0790   16.8000 P.3   400  ADP400      0.2231
      6  O1A       18.2080   13.0960   17.5570 O.3   400  ADP400     -0.4370
      7  O2A       17.9860   14.4100   15.6080 O.2   400  ADP400     -0.5169
      8  O3A       16.8010   15.1030   17.9690 O.3   400  ADP400     -0.2261
      9  O5'       15.9890   13.1600   16.6310 O.3   400  ADP400     -0.3111
     10  C5'       15.5030   12.2200   17.5870 C.3   400  ADP400      0.1813
     11  C4'       14.8180   11.1720   16.6630 C.3   400  ADP400      0.1821
     12  O4'       13.7800   11.7300   15.8420 O.3   400  ADP400     -0.3135
     13  C3'       15.8950   10.6640   15.6750 C.3   400  ADP400      0.2184
     14  O3'       16.4390    9.4330   16.2200 O.3   400  ADP400     -0.2174
     15  C2'       14.8710   10.0610   14.5460 C.3   400  ADP400      0.2570
     16  O2'       14.2210    8.8090   14.9000 O.3   400  ADP400     -0.2130
     17  C1'       13.8320   11.2080   14.5060 C.3   400  ADP400      0.3186
     18  N9        13.9060   12.2980   13.5130 N.pl3 400  ADP400     -0.1439
     19  C8        14.2010   13.6280   13.7280 C.3   400  ADP400      0.3377
     20  N7        14.1630   14.4120   12.6910 N.2   400  ADP400     -0.2095
     21  C5        13.7880   13.4860   11.7000 C.2   400  ADP400      0.2526
     22  C6        13.5480   13.6860   10.2840 C.2   400  ADP400      0.4393
     23  N6        13.6510   14.9280    9.7910 N.pl3 400  ADP400      0.2180
     24  N1        13.2150   12.5780    9.6030 N.2   400  ADP400      0.0021
     25  C2        13.1410   11.3310   10.1380 C.3   400  ADP400      0.5254
     26  N3        13.3360   11.0790   11.4350 N.2   400  ADP400     -0.0055
     27  C4        13.6380   12.2150   12.1540 C.2   400  ADP400      0.3518
@<TRIPOS>BOND
     1    24    25    1
     2    24    22    2
     3    23    22    1
     4    25    26    1
     5    22    21    1
     6    26    27    2
     7    21    27    1
     8    21    20    2
     9    27    18    1
    10    20    19    1
    11    18    19    1
    12    18    17    1
    13    17    15    1
    14    17    12    1
    15    15    16    1
    16    15    13    1
    17     7     5    2
    18    13    14    1
    19    13    11    1
    20    12    11    1
    21     9     5    1
    22     9    10    1
    23    11    10    1
    24     5     6    1
    25     5     8    1
    26     8     1    1
    27     3     1    2
    28     4     1    1
    29     1     2    1
