@<TRIPOS>MOLECULE
2klh_5GP_A_1.pdb
 37 39 0 0 0
SMALL
GASTEIGER

@<TRIPOS>ATOM
      1  P         10.1620   -4.5420    1.6310 P.3   187  5GP187      0.2100
      2  O1P        9.3470   -3.5870    2.4230 O.3   187  5GP187     -0.4374
      3  O2P       11.4070   -4.0730    0.9710 O.2   187  5GP187     -0.5173
      4  O3P       10.5350   -5.7750    2.5680 O.3   187  5GP187     -0.3436
      5  O5'        9.2210   -5.1890    0.5190 O.3   187  5GP187     -0.3249
      6  C5'        9.3150   -6.5720    0.1930 C.3   187  5GP187      0.0836
      7  C4'        8.1600   -6.9780   -0.6840 C.3   187  5GP187      0.1131
      8  O4'        8.4510   -6.5410   -2.0400 O.3   187  5GP187     -0.3474
      9  C3'        7.9020   -8.4830   -0.7640 C.3   187  5GP187      0.1133
     10  O3'        6.5080   -8.7920   -0.8060 O.3   187  5GP187     -0.3864
     11  C2'        8.6250   -8.9010   -2.0360 C.3   187  5GP187      0.1266
     12  O2'        7.9580   -9.9730   -2.6700 O.3   187  5GP187     -0.3849
     13  C1'        8.4770   -7.6550   -2.9020 C.3   187  5GP187      0.1617
     14  N9         9.5800   -7.4960   -3.8440 N.pl3 187  5GP187     -0.2241
     15  C8        10.8350   -7.0070   -3.5790 C.2   187  5GP187      0.1451
     16  N7        11.6240   -7.0230   -4.6180 N.2   187  5GP187     -0.3865
     17  C5        10.8360   -7.5450   -5.6360 C.2   187  5GP187      0.2296
     18  C6        11.1420   -7.8050   -6.9970 C.2   187  5GP187      0.2859
     19  O6        12.2110   -7.6300   -7.5940 O.2   187  5GP187     -0.2668
     20  N1        10.0480   -8.3300   -7.6760 N.am  187  5GP187     -0.2418
     21  C2         8.8170   -8.5740   -7.1190 C.2   187  5GP187      0.2395
     22  N2         7.8860   -9.0760   -7.9380 N.pl3 187  5GP187     -0.3206
     23  N3         8.5200   -8.3430   -5.8530 N.2   187  5GP187     -0.3551
     24  C4         9.5680   -7.8310   -5.1760 C.2   187  5GP187      0.2272
     25 HOP3       10.9860   -5.4260    3.3410 H     187  5GP187      0.2176
     26 H5'1        9.2960   -7.1660    1.1050 H     187  5GP187      0.0591
     27 H5'2       10.2470   -6.7650   -0.3390 H     187  5GP187      0.0591
     28  H4'        7.2580   -6.5270   -0.2660 H     187  5GP187      0.0647
     29  H3'        8.2940   -9.0050    0.1090 H     187  5GP187      0.0647
     30 HO3'        6.4300   -9.7300   -0.9970 H     187  5GP187      0.2100
     31  H2'        9.6730   -9.1220   -1.8240 H     187  5GP187      0.0663
     32 HO2'        8.5240  -10.7420   -2.5990 H     187  5GP187      0.2101
     33  H1'        7.5440   -7.6490   -3.4670 H     187  5GP187      0.0841
     34  H8        11.1400   -6.6450   -2.6080 H     187  5GP187      0.1149
     35  HN1       10.1730   -8.5460   -8.6540 H     187  5GP187      0.1589
     36 HN21        6.9620   -9.2740   -7.5830 H     187  5GP187      0.1459
     37 HN22        8.1060   -9.2580   -8.9070 H     187  5GP187      0.1459
@<TRIPOS>BOND
     1    37    22    1
     2    35    20    1
     3    22    36    1
     4    22    21    1
     5    20    21    1
     6    20    18   am
     7    19    18    2
     8    21    23    2
     9    18    17    1
    10    23    24    2
    11    17    24    1
    12    17    16    2
    13    24    14    1
    14    16    15    2
    15    14    15    1
    16    14    13    1
    17    15    34    1
    18    33    13    1
    19    13     8    1
    20    13    11    1
    21    12    32    1
    22    12    11    1
    23     8     7    1
    24    11    31    1
    25    11     9    1
    26    30    10    1
    27    10     9    1
    28     9     7    1
    29     9    29    1
    30     7    28    1
    31     7     6    1
    32    27     6    1
    33     6     5    1
    34     6    26    1
    35     5     1    1
    36     3     1    2
    37     1     2    1
    38     1     4    1
    39     4    25    1
