@<TRIPOS>MOLECULE
2kmb_GAL_1_1.pdb
 11 11 0 0 0
SMALL
GASTEIGER

@<TRIPOS>ATOM
      1  C1        48.9640   -4.3590   25.6930 C.3   223  GAL223      0.1777
      2  C2        49.3930   -2.9400   26.0610 C.3   223  GAL223      0.2141
      3  C3        49.0810   -2.6410   27.5210 C.3   223  GAL223      0.2173
      4  C4        47.6060   -2.9480   27.8130 C.3   223  GAL223      0.2142
      5  C5        47.3010   -4.3880   27.4130 C.3   223  GAL223      0.1810
      6  C6        45.8370   -4.7430   27.6050 C.3   223  GAL223      0.2141
      7  O2        50.7880   -2.7840   25.8440 O.3   223  GAL223     -0.2176
      8  O3        49.3630   -1.2500   27.7820 O.3   223  GAL223     -0.2175
      9  O4        46.7690   -2.0660   27.0740 O.3   223  GAL223     -0.2176
     10  O5        47.5890   -4.5780   26.0180 O.3   223  GAL223     -0.3481
     11  O6        45.5140   -4.8410   28.9810 O.3   223  GAL223     -0.2176
@<TRIPOS>BOND
     1     1    10    1
     2     1     2    1
     3     7     2    1
     4    10     5    1
     5     2     3    1
     6     9     4    1
     7     5     6    1
     8     5     4    1
     9     3     8    1
    10     3     4    1
    11     6    11    1
