@<TRIPOS>MOLECULE
2kmb_FUC_1_1.pdb
 10 10 0 0 0
SMALL
GASTEIGER

@<TRIPOS>ATOM
      1  C1        46.0550   -4.9910   22.1140 C.3   225  FUC225      0.1776
      2  C2        44.5910   -5.0170   22.5030 C.3   225  FUC225      0.2141
      3  C3        44.4330   -4.3920   23.8760 C.3   225  FUC225      0.2172
      4  C4        44.9850   -2.9610   23.8290 C.3   225  FUC225      0.2116
      5  C5        46.4350   -2.9540   23.3250 C.3   225  FUC225      0.1483
      6  C6        46.9860   -1.5490   23.1080 C.3   225  FUC225      0.0349
      7  O2        44.1130   -6.3500   22.5130 O.3   225  FUC225     -0.2176
      8  O3        43.0580   -4.3780   24.2210 O.3   225  FUC225     -0.2175
      9  O4        44.1950   -2.1720   22.9490 O.3   225  FUC225     -0.2177
     10  O5        46.5210   -3.6470   22.0650 O.3   225  FUC225     -0.3508
@<TRIPOS>BOND
     1    10     1    1
     2    10     5    1
     3     1     2    1
     4     2     7    1
     5     2     3    1
     6     9     4    1
     7     6     5    1
     8     5     4    1
     9     4     3    1
    10     3     8    1
