@<TRIPOS>MOLECULE
2kmb_MAG_1_1.pdb
 16 16 0 0 0
SMALL
GASTEIGER

@<TRIPOS>ATOM
      1  C1        49.6900   -7.8280   21.7880 C.3   224  MAG224      0.2586
      2  C2        48.2270   -7.4320   22.0270 C.3   224  MAG224      0.1842
      3  C3        48.1470   -6.0260   22.6370 C.3   224  MAG224      0.2094
      4  C4        49.0620   -5.9060   23.8560 C.3   224  MAG224      0.2136
      5  C5        50.4770   -6.3530   23.5020 C.3   224  MAG224      0.1834
      6  C6        51.4300   -6.3360   24.6930 C.3   224  MAG224      0.2142
      7  C7        46.9470   -8.5610   20.2700 C.2   224  MAG224      0.2420
      8  C8        46.2610   -8.3620   18.9310 C.3   224  MAG224      0.0964
      9  N2        47.5090   -7.4630   20.7640 N.am  224  MAG224     -0.1992
     10  O1        49.7470   -9.1310   21.2730 O.3   224  MAG224     -0.3265
     11  O3        46.7860   -5.7510   23.0310 O.3   224  MAG224     -0.2183
     12  O4        49.0940   -4.5430   24.3240 O.3   224  MAG224     -0.2176
     13  O5        50.4360   -7.6980   22.9910 O.3   224  MAG224     -0.3262
     14  O6        50.8930   -7.0450   25.8050 O.3   224  MAG224     -0.2176
     15  O7        46.9690   -9.6390   20.8540 O.2   224  MAG224     -0.2733
     16  CM        51.0270   -9.5020   20.7150 C.3   224  MAG224      0.1769
@<TRIPOS>BOND
     1     8     7    1
     2     7     9   am
     3     7    15    2
     4    16    10    1
     5     9     2    1
     6    10     1    1
     7     1     2    1
     8     1    13    1
     9     2     3    1
    10     3    11    1
    11     3     4    1
    12    13     5    1
    13     5     4    1
    14     5     6    1
    15     4    12    1
    16     6    14    1
