@<TRIPOS>MOLECULE
2kmx_ATP_A_1.pdb
 43 45 0 0 0
SMALL
GASTEIGER

@<TRIPOS>ATOM
      1  PG       -14.1720   -4.4680  -10.8710 P.3   1232  ATP1232     0.5373
      2  O1G      -13.4770   -4.8410  -12.1150 O.2   1232  ATP1232    -0.2221
      3  O2G      -14.6850   -5.6020  -10.1120 O.3   1232  ATP1232    -0.1143
      4  O3G      -15.0960   -3.3420  -11.0080 O.3   1232  ATP1232    -0.1143
      5  PB       -12.6800   -4.0890   -8.5670 P.3   1232  ATP1232     0.2277
      6  O1B      -11.7020   -5.2020   -8.5790 O.2   1232  ATP1232    -0.5168
      7  O2B      -13.8710   -4.2270   -7.6880 O.3   1232  ATP1232    -0.4368
      8  O3B      -13.0870   -3.8630  -10.0230 O.3   1232  ATP1232    -0.2258
      9  PA       -12.5450   -1.4120   -8.2630 P.3   1232  ATP1232     0.2182
     10  O1A      -14.0220   -1.4380   -8.2620 O.3   1232  ATP1232    -0.4371
     11  O2A      -11.8490   -0.7180   -9.3620 O.2   1232  ATP1232    -0.5170
     12  O3A      -11.9390   -2.8150   -8.1570 O.3   1232  ATP1232    -0.2700
     13  O5'      -12.1100   -0.7310   -6.9000 O.3   1232  ATP1232    -0.3246
     14  C5'      -10.8070   -0.1870   -6.7460 C.3   1232  ATP1232     0.0836
     15  C4'      -10.3970   -0.1110   -5.2740 C.3   1232  ATP1232     0.1131
     16  O4'      -10.1840   -1.4260   -4.7790 O.3   1232  ATP1232    -0.3474
     17  C3'       -9.0550    0.6160   -5.1070 C.3   1232  ATP1232     0.1133
     18  O3'       -9.1990    2.0140   -4.8800 O.3   1232  ATP1232    -0.3864
     19  C2'       -8.3860   -0.1600   -3.9560 C.3   1232  ATP1232     0.1266
     20  O2'       -8.1530    0.5410   -2.7490 O.3   1232  ATP1232    -0.3849
     21  C1'       -9.3440   -1.3230   -3.6480 C.3   1232  ATP1232     0.1617
     22  N9        -8.6220   -2.5960   -3.3680 N.pl3 1232  ATP1232    -0.2234
     23  C8        -8.7960   -3.8460   -3.9240 C.2   1232  ATP1232     0.1451
     24  N7        -8.0230   -4.7780   -3.4180 N.2   1232  ATP1232    -0.3871
     25  C5        -7.2530   -4.0760   -2.4720 C.2   1232  ATP1232     0.2211
     26  C6        -6.1850   -4.4010   -1.5920 C.2   1232  ATP1232     0.2227
     27  N6        -5.6320   -5.5870   -1.4580 N.pl3 1232  ATP1232    -0.3300
     28  N1        -5.6080   -3.4680   -0.8460 N.2   1232  ATP1232    -0.3296
     29  C2        -6.0680   -2.2360   -0.9220 C.1   1232  ATP1232     0.0930
     30  N3        -7.0520   -1.7700   -1.6810 N.2   1232  ATP1232    -0.3287
     31  C4        -7.6130   -2.7530   -2.4420 C.2   1232  ATP1232     0.2354
     32 H5'1      -10.7960    0.8180   -7.1710 H     1232  ATP1232     0.0591
     33 H5'2      -10.0780   -0.7980   -7.2810 H     1232  ATP1232     0.0591
     34  H4'      -11.1620    0.4080   -4.6880 H     1232  ATP1232     0.0647
     35  H3'       -8.4580    0.4640   -6.0080 H     1232  ATP1232     0.0647
     36 HO3'       -8.6760    2.4810   -5.5660 H     1232  ATP1232     0.2100
     37  H2'       -7.4330   -0.5450   -4.3170 H     1232  ATP1232     0.0663
     38 HO2'       -7.7750   -0.1350   -2.1520 H     1232  ATP1232     0.2101
     39  H1'       -9.9520   -1.0540   -2.7770 H     1232  ATP1232     0.0841
     40  H8        -9.4940   -4.0390   -4.7320 H     1232  ATP1232     0.1149
     41 HN61       -5.9760   -6.3930   -1.9350 H     1232  ATP1232     0.1448
     42 HN62       -4.8920   -5.7310   -0.7670 H     1232  ATP1232     0.1448
     43  H2        -5.5620   -1.5090   -0.3150 H     1232  ATP1232     0.1751
@<TRIPOS>BOND
     1     2     1    2
     2     4     1    1
     3     1     3    1
     4     1     8    1
     5     8     5    1
     6    11     9    2
     7     6     5    2
     8     5    12    1
     9     5     7    1
    10     9    10    1
    11     9    12    1
    12     9    13    1
    13    33    14    1
    14    32    14    1
    15    13    14    1
    16    14    15    1
    17    35    17    1
    18    36    18    1
    19    15    17    1
    20    15    16    1
    21    15    34    1
    22    17    18    1
    23    17    19    1
    24    16    21    1
    25    40    23    1
    26    37    19    1
    27    19    21    1
    28    19    20    1
    29    23    24    2
    30    23    22    1
    31    21    22    1
    32    21    39    1
    33    24    25    2
    34    22    31    1
    35    20    38    1
    36    25    31    1
    37    25    26    1
    38    31    30    2
    39    41    27    1
    40    30    29    2
    41    26    27    1
    42    26    28    2
    43    27    42    1
    44    29    28    2
    45    29    43    1
