@<TRIPOS>MOLECULE
2kmy_HEM_A_1.pdb
 43 50 0 0 0
SMALL
GASTEIGER

@<TRIPOS>ATOM
      1  CHA       -9.4270    2.0700   -0.1840 C.2   233  HEM233      0.0000
      2  CHB      -12.0210    1.3440    3.8730 C.2   233  HEM233      0.0000
      3  CHC       -8.3640   -1.2670    5.7530 C.2   233  HEM233      0.0000
      4  CHD       -5.5830   -0.0900    1.8860 C.2   233  HEM233      0.0000
      5  C1A      -10.4570    2.0620    0.7500 C.2   233  HEM233      0.0000
      6  C2A      -11.7630    2.6350    0.5230 C.2   233  HEM233      0.0000
      7  C3A      -12.4850    2.4350    1.6460 C.2   233  HEM233      0.0000
      8  C4A      -11.6330    1.7370    2.5790 C.2   233  HEM233      0.0000
      9  CMA      -13.9030    2.8440    1.9170 C.3   233  HEM233      0.0000
     10  CAA      -12.1930    3.3160   -0.7430 C.3   233  HEM233      0.0000
     11  CBA      -12.0700    4.8370   -0.7030 C.3   233  HEM233      0.0000
     12  CGA      -12.9220    5.4850   -1.7840 C.2   233  HEM233      0.0000
     13  O1A      -12.3200    5.9830   -2.7590 O.co2 233  HEM233      0.0000
     14  O2A      -14.1610    5.4690   -1.6160 O.co2 233  HEM233      0.0000
     15  C1B      -11.2450    0.5690    4.7290 C.ar  233  HEM233      0.0000
     16  C2B      -11.6680    0.1340    6.0390 C.ar  233  HEM233      0.0000
     17  C3B      -10.6560   -0.5900    6.5620 C.ar  233  HEM233      0.0000
     18  C4B       -9.5970   -0.6100    5.5820 C.ar  233  HEM233      0.0000
     19  CMB      -12.9960    0.4510    6.6620 C.3   233  HEM233      0.0000
     20  CAB      -10.5990   -1.2640    7.9030 C.3   233  HEM233      0.0000
     21  CBB      -11.8750   -2.0150    8.2740 C.3   233  HEM233      0.0000
     22  C1C       -7.2320   -1.0870    4.8870 C.2   233  HEM233      0.0000
     23  C2C       -5.8940   -1.5580    5.1580 C.2   233  HEM233      0.0000
     24  C3C       -5.1380   -1.2450    4.0850 C.2   233  HEM233      0.0000
     25  C4C       -6.0000   -0.5760    3.1390 C.2   233  HEM233      0.0000
     26  CMC       -5.4700   -2.2610    6.4150 C.3   233  HEM233      0.0000
     27  CAC       -3.6770   -1.5180    3.8730 C.3   233  HEM233      0.0000
     28  CBC       -3.2790   -2.9740    4.0980 C.3   233  HEM233      0.0000
     29  C1D       -6.4120    0.5610    0.9780 C.ar  233  HEM233      0.0000
     30  C2D       -6.0080    0.9560   -0.3510 C.ar  233  HEM233      0.0000
     31  C3D       -7.0710    1.5550   -0.9270 C.ar  233  HEM233      0.0000
     32  C4D       -8.1440    1.5370    0.0390 C.ar  233  HEM233      0.0000
     33  CMD       -4.6470    0.7220   -0.9390 C.3   233  HEM233      0.0000
     34  CAD       -7.1660    2.1410   -2.3060 C.3   233  HEM233      0.0000
     35  CBD       -6.5780    3.5450   -2.4250 C.3   233  HEM233      0.0000
     36  CGD       -6.4640    3.9690   -3.8820 C.2   233  HEM233      0.0000
     37  O1D       -6.9180    5.0950   -4.1820 O.co2 233  HEM233      0.0000
     38  O2D       -5.9270    3.1600   -4.6680 O.co2 233  HEM233      0.0000
     39  NA       -10.3880    1.5120    2.0180 N.2   233  HEM233      0.0000
     40  NB        -9.9690    0.1060    4.4580 N.ar  233  HEM233      0.0000
     41  NC        -7.2860   -0.4850    3.6420 N.2   233  HEM233      0.0000
     42  ND        -7.7280    0.9240    1.2070 N.ar  233  HEM233      0.0000
     43 FE         -8.8510    0.4920    2.9680 Fe    233  HEM233      0.0000
@<TRIPOS>BOND
     1    38    36   ar
     2    37    36   ar
     3    36    35    1
     4    13    12   ar
     5    35    34    1
     6    34    31    1
     7    12    14   ar
     8    12    11    1
     9    33    30    1
    10    31    30   ar
    11    31    32   ar
    12    10    11    1
    13    10     6    1
    14    30    29   ar
    15     1    32    2
    16     1     5    1
    17    32    42   ar
    18     6     5    1
    19     6     7    2
    20     5    39    2
    21    29    42   ar
    22    29     4    2
    23    42    43    1
    24     7     9    1
    25     7     8    1
    26     4    25    1
    27    39     8    1
    28    39    43    1
    29     8     2    2
    30    43    41    1
    31    43    40    1
    32    25    41    2
    33    25    24    1
    34    41    22    1
    35     2    15    1
    36    27    24    1
    37    27    28    1
    38    24    23    2
    39    40    15   ar
    40    40    18   ar
    41    15    16   ar
    42    22    23    1
    43    22     3    2
    44    23    26    1
    45    18     3    1
    46    18    17   ar
    47    16    17   ar
    48    16    19    1
    49    17    20    1
    50    20    21    1
