@<TRIPOS>MOLECULE
2kot_ANW_A_1.pdb
 35 37 0 0 0
SMALL
GASTEIGER

@<TRIPOS>ATOM
      1  NAA       14.0540   16.1500    9.9200 N.2    99  ANW99      -0.3562
      2  NAB       15.7610   17.7280    9.9780 N.pl3  99  ANW99      -0.3356
      3  CAC       10.8360    8.5890   11.4130 C.3    99  ANW99      -0.0586
      4  CAD       10.1000    9.8870   11.7480 C.3    99  ANW99      -0.0215
      5  CAE        8.6710    9.8160   11.2030 C.3    99  ANW99      -0.0586
      6  CAF       10.7820   10.9670   11.1950 C.ar   99  ANW99      -0.0439
      7  CAG       11.5470   11.7870   12.0170 C.ar   99  ANW99      -0.0439
      8  CAH       12.2730   12.8390   11.4740 C.ar   99  ANW99       0.0650
      9  CAI       12.2190   13.0890   10.1070 C.ar   99  ANW99       0.1422
     10  CAJ       11.4570   12.2670    9.2810 C.ar   99  ANW99      -0.0183
     11  CAK       10.7460   11.2040    9.8260 C.ar   99  ANW99      -0.0548
     12  CAL       13.4930   15.0420   10.4270 C.ar   99  ANW99       0.2851
     13  CAM       15.0160   16.8080   10.5850 C.2    99  ANW99       0.1713
     14  CAN       15.4630   16.3670   11.8260 C.3    99  ANW99       0.1842
     15  CAO       14.9040   15.2140   12.3670 C.2    99  ANW99      -0.0402
     16  CAP       13.9070   14.5500   11.6610 C.ar   99  ANW99       0.0947
     17  CAQ       13.1720   13.5430   12.2680 C.ar   99  ANW99       0.2026
     18  CAR       16.3370   17.1380   12.5860 C.2    99  ANW99       0.3758
     19  OAS       12.8290   14.1920    9.5920 O.2    99  ANW99      -0.4278
     20  OAT       13.3010   13.2910   13.4650 O.2    99  ANW99      -0.2863
     21  OAU       16.7920   16.6860   13.6590 O.co2  99  ANW99      -0.2448
     22  OAV       16.6490   18.2890   12.2110 O.co2  99  ANW99      -0.2448
     23 HNAB       15.4880   18.0810    9.0830 H      99  ANW99       0.1444
     24 HNAA       16.6090   18.0450   10.4030 H      99  ANW99       0.1444
     25  HAC       10.8740    8.5430   10.3250 H      99  ANW99       0.0235
     26 HACA       11.8740    8.6590   11.7430 H      99  ANW99       0.0235
     27 HACB       10.3190    7.6850   11.7240 H      99  ANW99       0.0235
     28  HAD       10.0610   10.0040   12.8290 H      99  ANW99       0.0343
     29  HAE        8.7640    9.6320   10.1320 H      99  ANW99       0.0235
     30 HAEA        8.1710    8.9360   11.6110 H      99  ANW99       0.0235
     31 HAEB        8.1110   10.7440   11.2920 H      99  ANW99       0.0235
     32  HAG       11.5640   11.6110   13.0930 H      99  ANW99       0.0629
     33  HAJ       11.3970   12.4720    8.2130 H      99  ANW99       0.0654
     34  HAK       10.2020   10.5240    9.1700 H      99  ANW99       0.0622
     35  HAO       15.2500   14.8320   13.3270 H      99  ANW99       0.0597
@<TRIPOS>BOND
     1    33    10    1
     2    23     2    1
     3    34    11    1
     4    10    11   ar
     5    10     9   ar
     6    19     9   ar
     7    19    12   ar
     8    11     6   ar
     9     1    12    2
    10     1    13    2
    11     2    24    1
    12     2    13    1
    13     9     8   ar
    14    29     5    1
    15    25     3    1
    16    12    16   ar
    17    13    14    1
    18     6     4    1
    19     6     7   ar
    20     5    31    1
    21     5    30    1
    22     5     4    1
    23     3    27    1
    24     3    26    1
    25     3     4    1
    26     8     7   ar
    27     8    17   ar
    28    16    17   ar
    29    16    15    2
    30     4    28    1
    31    14    15    1
    32    14    18    1
    33     7    32    1
    34    22    18   ar
    35    17    20    2
    36    15    35    1
    37    18    21   ar
