@<TRIPOS>MOLECULE
2kqd_RIB_A_1.pdb
 18 18 0 0 0
SMALL
GASTEIGER

@<TRIPOS>ATOM
      1  O5'       -2.3430   15.0640    1.3740 O.3   1003  RIB1003    -0.3924
      2  C5'       -1.6120   13.8490    1.2310 C.3   1003  RIB1003     0.0729
      3  C4'       -1.5550   13.1160    2.5500 C.3   1003  RIB1003     0.1105
      4  O4'       -2.8340   13.2440    3.2260 O.3   1003  RIB1003    -0.3631
      5  C3'       -1.2870   11.6200    2.4610 C.3   1003  RIB1003     0.1117
      6  O3'        0.1070   11.3390    2.4960 O.3   1003  RIB1003    -0.3865
      7  C2'       -2.0080   11.0700    3.6860 C.3   1003  RIB1003     0.1121
      8  O2'       -1.2210   11.2420    4.8480 O.3   1003  RIB1003    -0.3865
      9  C1'       -3.2270   11.9900    3.7500 C.3   1003  RIB1003     0.1161
     10 HO5'       -3.1980   14.8410    1.7420 H     1003  RIB1003     0.2095
     11 H5'1       -0.5970   14.0640    0.8990 H     1003  RIB1003     0.0584
     12 H5'2       -2.0960   13.2090    0.4920 H     1003  RIB1003     0.0584
     13  H4'       -0.7290   13.5350    3.1350 H     1003  RIB1003     0.0646
     14  H3'       -1.6610   11.1960    1.5290 H     1003  RIB1003     0.0647
     15 HO3'        0.5230   12.0310    3.0100 H     1003  RIB1003     0.2100
     16  H2'       -2.2900   10.0290    3.5340 H     1003  RIB1003     0.0647
     17 HO2'       -1.7940   11.5900    5.5310 H     1003  RIB1003     0.2100
     18  H1'       -4.0520   11.6280    3.1360 H     1003  RIB1003     0.0650
@<TRIPOS>BOND
     1    12     2    1
     2    11     2    1
     3     2     1    1
     4     2     3    1
     5     1    10    1
     6    14     5    1
     7     5     6    1
     8     5     3    1
     9     5     7    1
    10     6    15    1
    11     3    13    1
    12     3     4    1
    13    18     9    1
    14     4     9    1
    15    16     7    1
    16     7     9    1
    17     7     8    1
    18     8    17    1
