@<TRIPOS>MOLECULE
2kqd_ADN_A_1.pdb
 31 33 0 0 0
SMALL
GASTEIGER

@<TRIPOS>ATOM
      1  O5'       -5.5990   12.5060    9.9020 O.3   1002  ADN1002    -0.3924
      2  C5'       -6.2750   12.3740    8.6540 C.3   1002  ADN1002     0.0730
      3  C4'       -5.2770   12.1780    7.5380 C.3   1002  ADN1002     0.1125
      4  O4'       -4.8960   10.7770    7.4870 O.3   1002  ADN1002    -0.3473
      5  C3'       -5.7950   12.4970    6.1410 C.3   1002  ADN1002     0.1166
      6  O3'       -5.6190   13.8650    5.7970 O.3   1002  ADN1002    -0.3863
      7  C2'       -4.9420   11.5900    5.2640 C.3   1002  ADN1002     0.1648
      8  O2'       -3.6480   12.1450    5.0910 O.3   1002  ADN1002    -0.2239
      9  C1'       -4.8530   10.3430    6.1390 C.3   1002  ADN1002     0.1650
     10  N9        -5.9110    9.3510    5.9190 N.pl3 1002  ADN1002    -0.2233
     11  C8        -7.0980    9.2040    6.6030 C.2   1002  ADN1002     0.1451
     12  N7        -7.8470    8.2170    6.1720 N.2   1002  ADN1002    -0.3871
     13  C5        -7.1090    7.6690    5.1350 C.2   1002  ADN1002     0.2211
     14  C6        -7.3430    6.5710    4.2440 C.2   1002  ADN1002     0.2227
     15  N6        -8.4420    5.8150    4.2810 N.pl3 1002  ADN1002    -0.3300
     16  N1        -6.3840    6.2840    3.3040 N.2   1002  ADN1002    -0.3296
     17  C2        -5.2600    7.0530    3.2590 C.1   1002  ADN1002     0.0930
     18  N3        -4.9340    8.1090    4.0470 N.2   1002  ADN1002    -0.3287
     19  C4        -5.9070    8.3630    4.9660 C.2   1002  ADN1002     0.2354
     20 HO5'       -5.9150   13.2920   10.3470 H     1002  ADN1002     0.2095
     21 H5'1       -6.8630   13.2700    8.4560 H     1002  ADN1002     0.0584
     22 H5'2       -6.9460   11.5150    8.6920 H     1002  ADN1002     0.0584
     23  H4'       -4.4370   12.8470    7.7220 H     1002  ADN1002     0.0646
     24  H3'       -6.8610   12.2830    6.0470 H     1002  ADN1002     0.0648
     25 HO3'       -5.8210   13.9540    4.8660 H     1002  ADN1002     0.2100
     26  H2'       -5.4360   11.3900    4.3150 H     1002  ADN1002     0.0699
     27  H1'       -3.8890    9.8430    6.0160 H     1002  ADN1002     0.0842
     28  H8        -7.3820    9.8440    7.4180 H     1002  ADN1002     0.1149
     29 HN61       -8.5510    5.0530    3.6270 H     1002  ADN1002     0.1448
     30 HN62       -9.1640    6.0030    4.9620 H     1002  ADN1002     0.1448
     31  H2        -4.5300    6.7850    2.4950 H     1002  ADN1002     0.1751
@<TRIPOS>BOND
     1    31    17    1
     2    17    16    2
     3    17    18    2
     4    16    14    2
     5    29    15    1
     6    18    19    2
     7    14    15    1
     8    14    13    1
     9    15    30    1
    10    26     7    1
    11    25     6    1
    12    19    13    1
    13    19    10    1
    14     8     7    1
    15    13    12    2
    16     7     9    1
    17     7     5    1
    18     6     5    1
    19    10     9    1
    20    10    11    1
    21    27     9    1
    22    24     5    1
    23     9     4    1
    24     5     3    1
    25    12    11    2
    26    11    28    1
    27     4     3    1
    28     3    23    1
    29     3     2    1
    30    21     2    1
    31     2    22    1
    32     2     1    1
    33     1    20    1
