@<TRIPOS>MOLECULE
2kqe_ADN_A_1.pdb
 31 33 0 0 0
SMALL
GASTEIGER

@<TRIPOS>ATOM
      1  O5'        7.5100    8.2450   11.2560 O.3   1002  ADN1002    -0.3924
      2  C5'        6.0950    8.1590   11.1200 C.3   1002  ADN1002     0.0730
      3  C4'        5.7200    7.9480    9.6730 C.3   1002  ADN1002     0.1125
      4  O4'        4.9480    6.7260    9.5600 O.3   1002  ADN1002    -0.3473
      5  C3'        4.8220    9.0210    9.0730 C.3   1002  ADN1002     0.1166
      6  O3'        5.5610   10.1280    8.5730 O.3   1002  ADN1002    -0.3863
      7  C2'        4.1160    8.2760    7.9440 C.3   1002  ADN1002     0.1648
      8  O2'        4.9340    8.2420    6.7800 O.3   1002  ADN1002    -0.2239
      9  C1'        3.9710    6.8730    8.5470 C.3   1002  ADN1002     0.1650
     10  N9         2.6490    6.5760    9.1040 N.pl3 1002  ADN1002    -0.2233
     11  C8         2.1760    6.8270   10.3680 C.2   1002  ADN1002     0.1451
     12  N7         0.9400    6.4380   10.5680 N.2   1002  ADN1002    -0.3871
     13  C5         0.5680    5.8910    9.3520 C.2   1002  ADN1002     0.2211
     14  C6        -0.6410    5.2840    8.8850 C.2   1002  ADN1002     0.2227
     15  N6        -1.7290    5.1330    9.6420 N.pl3 1002  ADN1002    -0.3300
     16  N1        -0.6770    4.8360    7.5890 N.2   1002  ADN1002    -0.3296
     17  C2         0.4310    4.9900    6.8120 C.1   1002  ADN1002     0.0930
     18  N3         1.6180    5.5420    7.1450 N.2   1002  ADN1002    -0.3287
     19  C4         1.6170    5.9730    8.4340 C.2   1002  ADN1002     0.2354
     20 HO5'        7.9200    7.6510   10.6270 H     1002  ADN1002     0.2095
     21 H5'1        5.6330    9.0780   11.4800 H     1002  ADN1002     0.0584
     22 H5'2        5.7210    7.3230   11.7140 H     1002  ADN1002     0.0584
     23  H4'        6.6400    7.9390    9.0880 H     1002  ADN1002     0.0646
     24  H3'        4.1220    9.4180    9.8090 H     1002  ADN1002     0.0648
     25 HO3'        5.0410   10.9140    8.7370 H     1002  ADN1002     0.2100
     26  H2'        3.1450    8.7260    7.7420 H     1002  ADN1002     0.0699
     27  H1'        4.1930    6.1060    7.8020 H     1002  ADN1002     0.0842
     28  H8         2.7670    7.2990   11.1210 H     1002  ADN1002     0.1149
     29 HN61       -2.5560    4.6970    9.2590 H     1002  ADN1002     0.1448
     30 HN62       -1.7270    5.4550   10.5990 H     1002  ADN1002     0.1448
     31  H2         0.3520    4.6210    5.7920 H     1002  ADN1002     0.1751
@<TRIPOS>BOND
     1    31    17    1
     2     8     7    1
     3    17    18    2
     4    17    16    2
     5    18    19    2
     6    16    14    2
     7    26     7    1
     8    27     9    1
     9     7     9    1
    10     7     5    1
    11    19    10    1
    12    19    13    1
    13     9    10    1
    14     9     4    1
    15     6    25    1
    16     6     5    1
    17    14    13    1
    18    14    15    1
    19     5     3    1
    20     5    24    1
    21    23     3    1
    22    10    11    1
    23    29    15    1
    24    13    12    2
    25     4     3    1
    26    15    30    1
    27     3     2    1
    28    11    12    2
    29    11    28    1
    30    20     1    1
    31     2     1    1
    32     2    21    1
    33     2    22    1
