@<TRIPOS>MOLECULE
2kqe_RIB_A_1.pdb
 18 18 0 0 0
SMALL
GASTEIGER

@<TRIPOS>ATOM
      1  O5'        3.0890   10.1180    2.5880 O.3   1003  RIB1003    -0.3924
      2  C5'        3.7810    8.8850    2.4100 C.3   1003  RIB1003     0.0729
      3  C4'        4.8610    8.7310    3.4620 C.3   1003  RIB1003     0.1105
      4  O4'        4.3820    9.2150    4.7410 O.3   1003  RIB1003    -0.3631
      5  C3'        5.3400    7.3100    3.7200 C.3   1003  RIB1003     0.1117
      6  O3'        6.7220    7.2940    4.0600 O.3   1003  RIB1003    -0.3865
      7  C2'        4.4670    6.8230    4.8770 C.3   1003  RIB1003     0.1121
      8  O2'        5.2270    5.9860    5.7240 O.3   1003  RIB1003    -0.3865
      9  C1'        4.1340    8.1250    5.6110 C.3   1003  RIB1003     0.1161
     10 HO5'        3.2880   10.6680    1.8310 H     1003  RIB1003     0.2095
     11 H5'1        4.2380    8.8550    1.4220 H     1003  RIB1003     0.0584
     12 H5'2        3.0830    8.0490    2.5010 H     1003  RIB1003     0.0584
     13  H4'        5.7410    9.2820    3.1150 H     1003  RIB1003     0.0646
     14  H3'        5.2410    6.6870    2.8300 H     1003  RIB1003     0.0647
     15 HO3'        6.8050    6.8180    4.8860 H     1003  RIB1003     0.2100
     16  H2'        3.5690    6.3250    4.5060 H     1003  RIB1003     0.0647
     17 HO2'        5.1760    5.0990    5.3680 H     1003  RIB1003     0.2100
     18  H1'        3.0780    8.1780    5.8830 H     1003  RIB1003     0.0650
@<TRIPOS>BOND
     1    11     2    1
     2    10     1    1
     3     2    12    1
     4     2     1    1
     5     2     3    1
     6    14     5    1
     7    13     3    1
     8     3     5    1
     9     3     4    1
    10     5     6    1
    11     5     7    1
    12     6    15    1
    13    16     7    1
    14     4     9    1
    15     7     9    1
    16     7     8    1
    17    17     8    1
    18     9    18    1
