@<TRIPOS>MOLECULE
2kr2_GLC_A_1.pdb
 22 22 0 0 0
SMALL
GASTEIGER

@<TRIPOS>ATOM
      1  C1       -18.6280    5.6970    3.9600 C.3   191  GLC191      0.1161
      2  C2       -17.0500    5.7040    3.8580 C.3   191  GLC191      0.1121
      3  C3       -16.4780    4.2430    4.1500 C.3   191  GLC191      0.1118
      4  C4       -17.0750    3.5930    5.4800 C.3   191  GLC191      0.1117
      5  C5       -18.6670    3.6480    5.4500 C.3   191  GLC191      0.1105
      6  C6       -19.3700    3.2280    6.7780 C.3   191  GLC191      0.0729
      7  O2       -16.6590    6.0560    2.5300 O.3   191  GLC191     -0.3865
      8  O3       -15.0580    4.3300    4.2790 O.3   191  GLC191     -0.3865
      9  O4       -16.6200    2.2410    5.5930 O.3   191  GLC191     -0.3865
     10  O5       -19.0020    5.0880    5.2620 O.3   191  GLC191     -0.3631
     11  O6       -20.4960    4.0120    7.1520 O.3   191  GLC191     -0.3924
     12  H1       -19.0090    6.7340    3.9790 H     191  GLC191      0.0650
     13  H2       -16.6480    6.4020    4.6110 H     191  GLC191      0.0647
     14  H3       -16.7470    3.5840    3.3080 H     191  GLC191      0.0647
     15  H4       -16.7230    4.2090    6.3240 H     191  GLC191      0.0647
     16  H5       -19.1940    3.2160    4.5830 H     191  GLC191      0.0646
     17  H61      -18.6310    3.1670    7.5760 H     191  GLC191      0.0584
     18  H62      -19.6850    2.1720    6.6400 H     191  GLC191      0.0584
     19  HO2      -15.7210    5.9000    2.4240 H     191  GLC191      0.2100
     20  HO3      -14.8230    4.2860    5.2050 H     191  GLC191      0.2100
     21  HO4      -17.3560    1.6800    5.8370 H     191  GLC191      0.2100
     22  HO6      -21.0370    4.1800    6.3810 H     191  GLC191      0.2095
@<TRIPOS>BOND
     1    19     7    1
     2     7     2    1
     3    14     3    1
     4     2     1    1
     5     2     3    1
     6     2    13    1
     7     1    12    1
     8     1    10    1
     9     3     8    1
    10     3     4    1
    11     8    20    1
    12    16     5    1
    13    10     5    1
    14     5     4    1
    15     5     6    1
    16     4     9    1
    17     4    15    1
    18     9    21    1
    19    22    11    1
    20    18     6    1
    21     6    11    1
    22     6    17    1
