@<TRIPOS>MOLECULE
2kr2_BGC_A_1.pdb
 23 23 0 0 0
SMALL
GASTEIGER

@<TRIPOS>ATOM
      1  C2       -21.4630    6.6590    0.0570 C.3   192  BGC192      0.1340
      2  C3       -20.1620    6.1420    0.8070 C.3   192  BGC192      0.1173
      3  C4       -20.4730    5.5490    2.2650 C.3   192  BGC192      0.1502
      4  C5       -21.6120    4.4310    2.1290 C.3   192  BGC192      0.1163
      5  C6       -22.1210    3.8410    3.4770 C.3   192  BGC192      0.0731
      6  C1       -22.5710    5.5620    0.1350 C.3   192  BGC192      0.1854
      7  O1       -23.7930    6.0380   -0.3280 O.3   192  BGC192     -0.3649
      8  O2       -21.1610    6.9440   -1.3100 O.3   192  BGC192     -0.3841
      9  O3       -19.2490    7.2290    0.9330 O.3   192  BGC192     -0.3863
     10  O4       -19.2390    4.9800    2.8610 O.3   192  BGC192     -0.2256
     11  O5       -22.7820    5.1330    1.5340 O.3   192  BGC192     -0.3406
     12  O6       -23.5280    3.6630    3.5850 O.3   192  BGC192     -0.3924
     13  H2       -21.8430    7.5520    0.5770 H     192  BGC192      0.0671
     14  H3       -19.7160    5.3280    0.2160 H     192  BGC192      0.0649
     15  H4       -20.8940    6.3700    2.8680 H     192  BGC192      0.0682
     16  H5       -21.4790    3.6230    1.3940 H     192  BGC192      0.0648
     17 H6C1      -21.7200    4.4270    4.2960 H     192  BGC192      0.0584
     18 H6C2      -21.6140    2.8580    3.5980 H     192  BGC192      0.0584
     19  H1       -22.3080    4.6720   -0.4650 H     192  BGC192      0.0935
     20  HA       -24.5000    5.5000    0.0290 H     192  BGC192      0.2126
     21  HB       -21.0110    6.1240   -1.7790 H     192  BGC192      0.2101
     22  HC       -18.3650    6.9260    0.7270 H     192  BGC192      0.2100
     23  H6       -23.9420    4.5090    3.7480 H     192  BGC192      0.2095
@<TRIPOS>BOND
     1    21     8    1
     2     8     1    1
     3    19     6    1
     4     7    20    1
     5     7     6    1
     6     1     6    1
     7     1    13    1
     8     1     2    1
     9     6    11    1
    10    14     2    1
    11    22     9    1
    12     2     9    1
    13     2     3    1
    14    16     4    1
    15    11     4    1
    16     4     3    1
    17     4     5    1
    18     3    10    1
    19     3    15    1
    20     5    12    1
    21     5    18    1
    22     5    17    1
    23    12    23    1
