@<TRIPOS>MOLECULE
2kr5_PNS_A_1.pdb
 42 41 0 0 0
SMALL
GASTEIGER

@<TRIPOS>ATOM
      1  O23       -0.4640   17.0390   -2.8380 O.3    90  PNS90      -0.1425
      2  P24       -1.6260   16.2200   -2.4080 P.3    90  PNS90       0.3935
      3  O26       -2.4980   16.7490   -1.3290 O.3    90  PNS90      -0.1425
      4  O27       -2.5360   15.9580   -3.6880 O.3    90  PNS90      -0.3080
      5  C28       -1.9040   15.3760   -4.8700 C.3    90  PNS90       0.0644
      6  C29       -2.7180   15.6850   -6.1290 C.3    90  PNS90       0.0234
      7  C30       -2.7520   17.1920   -6.2860 C.3    90  PNS90      -0.0549
      8  C31       -2.0280   15.0430   -7.3310 C.3    90  PNS90      -0.0549
      9  C32       -4.1710   15.1230   -5.9960 C.3    90  PNS90       0.1380
     10  O33       -4.7680   15.5600   -4.7650 O.3    90  PNS90      -0.3820
     11  C34       -5.0680   15.5640   -7.1650 C.2    90  PNS90       0.2423
     12  O35       -4.6660   15.5960   -8.3310 O.2    90  PNS90      -0.2730
     13  N36       -6.3090   15.8900   -6.8310 N.am   90  PNS90      -0.3127
     14  C37       -7.3250   16.3290   -7.7890 C.3    90  PNS90       0.0199
     15  C38       -8.7130   15.8260   -7.4240 C.3    90  PNS90       0.0395
     16  C39       -8.8590   14.3190   -7.5490 C.2    90  PNS90       0.2145
     17  O40       -8.0060   13.6200   -8.1010 O.2    90  PNS90      -0.2758
     18  N41       -9.9780   13.8390   -7.0300 N.am   90  PNS90      -0.3145
     19  C42      -10.3360   12.4270   -7.0360 C.3    90  PNS90       0.0204
     20  C43      -11.8120   12.2240   -6.7400 C.3    90  PNS90       0.0063
     21  S44      -12.3950   13.1110   -5.2830 S.3    90  PNS90      -0.1767
     22 H282       -0.9110   15.7900   -4.9670 H      90  PNS90       0.0571
     23 H281       -1.8360   14.3040   -4.7380 H      90  PNS90       0.0571
     24 H303       -3.3190   17.4490   -7.1680 H      90  PNS90       0.0237
     25 H302       -1.7430   17.5660   -6.3840 H      90  PNS90       0.0237
     26 H301       -3.2180   17.6310   -5.4200 H      90  PNS90       0.0237
     27 H313       -1.0490   15.4810   -7.4600 H      90  PNS90       0.0237
     28 H312       -2.6190   15.2120   -8.2190 H      90  PNS90       0.0237
     29 H311       -1.9280   13.9800   -7.1640 H      90  PNS90       0.0237
     30  H32       -4.1140   14.0460   -5.9860 H      90  PNS90       0.0696
     31  H33       -4.0580   15.7490   -4.1280 H      90  PNS90       0.2105
     32  H36       -6.5670   15.8350   -5.8850 H      90  PNS90       0.1488
     33 H372       -7.3440   17.4080   -7.8080 H      90  PNS90       0.0467
     34 H371       -7.0660   15.9560   -8.7710 H      90  PNS90       0.0467
     35 H382       -8.9310   16.1110   -6.4070 H      90  PNS90       0.0374
     36 H381       -9.4300   16.2930   -8.0850 H      90  PNS90       0.0374
     37  H41      -10.6060   14.4620   -6.6100 H      90  PNS90       0.1487
     38 H422      -10.1130   12.0080   -8.0080 H      90  PNS90       0.0470
     39 H421       -9.7580   11.9120   -6.2830 H      90  PNS90       0.0470
     40 H431      -11.9990   11.1720   -6.5850 H      90  PNS90       0.0389
     41 H432      -12.3880   12.5690   -7.5870 H      90  PNS90       0.0389
     42  H44      -11.7280   12.6480   -4.2290 H      90  PNS90       0.1017
@<TRIPOS>BOND
     1    34    14    1
     2    12    11    2
     3    28     8    1
     4    17    16    2
     5    36    15    1
     6    38    19    1
     7    33    14    1
     8    14    15    1
     9    14    13    1
    10    41    20    1
    11    16    15    1
    12    16    18   am
    13    27     8    1
    14    15    35    1
    15     8    29    1
    16     8     6    1
    17    24     7    1
    18    11    13   am
    19    11     9    1
    20    19    18    1
    21    19    20    1
    22    19    39    1
    23    18    37    1
    24    13    32    1
    25    20    40    1
    26    20    21    1
    27    25     7    1
    28     7     6    1
    29     7    26    1
    30     6     9    1
    31     6     5    1
    32     9    30    1
    33     9    10    1
    34    21    42    1
    35    22     5    1
    36     5    23    1
    37     5     4    1
    38    10    31    1
    39     4     2    1
    40     1     2    1
    41     2     3    1
