@<TRIPOS>MOLECULE
2krd_WW7_I_1.pdb
 44 45 0 0 0
SMALL
GASTEIGER

@<TRIPOS>ATOM
      1  S1        59.5310    5.8960   -0.9240 S.O2   91  WW791       0.0590
      2  O1        60.3370    5.2540    0.0620 O.2    91  WW791      -0.1530
      3  O2        58.1420    6.1170   -0.5960 O.2    91  WW791      -0.1530
      4  N1        60.2250    7.4850   -1.2470 N.3    91  WW791      -0.1899
      5  C4        59.7490    3.5190   -5.0800 C.ar   91  WW791      -0.0525
      6  C3        60.2280    4.9140   -4.9380 C.ar   91  WW791      -0.0593
      7  C2        60.1500    5.6290   -3.6390 C.ar   91  WW791      -0.0347
      8  C1        59.5900    4.9720   -2.4380 C.ar   91  WW791       0.1129
      9  C9        59.0950    3.5680   -2.5310 C.ar   91  WW791       0.0098
     10  C10       59.1780    2.8150   -3.9010 C.ar   91  WW791       0.0023
     11 CL1        58.7110    0.4660   -5.4370 Cl     91  WW791      -0.0829
     12  C5        58.6750    1.4040   -3.9820 C.ar   91  WW791       0.0487
     13  C6        58.1140    0.7480   -2.7780 C.ar   91  WW791      -0.0428
     14  C7        58.0430    1.4800   -1.4790 C.ar   91  WW791      -0.0597
     15  C8        58.5300    2.8810   -1.3570 C.ar   91  WW791      -0.0521
     16  C11       61.2210    8.0660   -0.3220 C.3    91  WW791       0.0174
     17  C12       62.4560    7.1750   -0.0690 C.3    91  WW791      -0.0388
     18  C14       63.7040    8.1490   -2.0910 C.3    91  WW791      -0.0547
     19  C13       63.2000    6.8610   -1.3940 C.3    91  WW791      -0.0519
     20  C15       64.4410    7.7820   -3.4140 C.3    91  WW791      -0.0689
     21  C16       63.4880    7.0400   -4.3920 C.3    91  WW791      -0.0963
     22  N2        62.3140    7.8350   -4.7460 N.4    91  WW791       0.3781
     23  HN1       59.4620    8.1310   -1.2450 H      91  WW791       0.1480
     24  H4        59.8120    3.0540   -5.9620 H      91  WW791       0.0624
     25  H3        60.6090    5.3810   -5.7240 H      91  WW791       0.0618
     26  H2        60.4820    6.5680   -3.5750 H      91  WW791       0.0637
     27  H6        57.7800   -0.1950   -2.8360 H      91  WW791       0.0632
     28  H7        57.6610    1.0210   -0.6770 H      91  WW791       0.0618
     29  H8        58.4750    3.3580   -0.4870 H      91  WW791       0.0624
     30 H111       60.7700    8.2480    0.5490 H      91  WW791       0.0441
     31 H112       61.5340    8.9290   -0.7270 H      91  WW791       0.0441
     32 H121       62.1550    6.3170    0.3390 H      91  WW791       0.0278
     33 H122       63.0710    7.6580    0.5730 H      91  WW791       0.0278
     34 H141       64.3230    8.6300   -1.4760 H      91  WW791       0.0265
     35 H142       62.9130    8.7370   -2.2940 H      91  WW791       0.0265
     36 H131       62.5810    6.3850   -2.0120 H      91  WW791       0.0266
     37 H132       63.9920    6.2780   -1.1920 H      91  WW791       0.0266
     38 H151       65.2240    7.2020   -3.2050 H      91  WW791       0.0247
     39 H152       64.7590    8.6360   -3.8440 H      91  WW791       0.0247
     40 H161       63.1750    6.1860   -3.9560 H      91  WW791       0.0049
     41 H162       63.9970    6.8140   -5.2310 H      91  WW791       0.0049
     42 HN21       61.7240    7.3250   -5.3720 H      91  WW791      -0.0901
     43 HN22       62.6200    8.6850   -5.1760 H      91  WW791      -0.0901
     44  HAB       61.7900    8.0710   -3.9270 H      91  WW791      -0.0901
@<TRIPOS>BOND
     1    24     5    1
     2    25     6    1
     3    11    12    1
     4    42    22    1
     5    41    21    1
     6    43    22    1
     7     5     6   ar
     8     5    10   ar
     9     6     7   ar
    10    22    21    1
    11    22    44    1
    12    21    40    1
    13    21    20    1
    14    12    10   ar
    15    12    13   ar
    16    10     9   ar
    17    39    20    1
    18     7    26    1
    19     7     8   ar
    20    20    38    1
    21    20    18    1
    22    27    13    1
    23    13    14   ar
    24     9     8   ar
    25     9    15   ar
    26     8     1    1
    27    35    18    1
    28    18    34    1
    29    18    19    1
    30    36    19    1
    31    14    15   ar
    32    14    28    1
    33    19    37    1
    34    19    17    1
    35    15    29    1
    36     4    23    1
    37     4     1    1
    38     4    16    1
    39     1     3    2
    40     1     2    2
    41    31    16    1
    42    16    17    1
    43    16    30    1
    44    17    32    1
    45    17    33    1
