@<TRIPOS>MOLECULE
2ksq_GTP_A_1.pdb
 43 45 0 0 0
SMALL
GASTEIGER

@<TRIPOS>ATOM
      1  PG         2.4430   13.5670    5.0400 P.3   187  GTP187      0.5373
      2  O1G        0.9030   13.3140    5.3600 O.2   187  GTP187     -0.2221
      3  O2G        2.8950   15.0500    5.4070 O.3   187  GTP187     -0.1143
      4  O3G        3.3890   12.4650    5.6930 O.3   187  GTP187     -0.1143
      5  O3B        2.6300   13.4300    3.4480 O.3   187  GTP187     -0.2258
      6  PB         1.4850   12.7590    2.5410 P.3   187  GTP187      0.2277
      7  O1B        2.1710   11.7000    1.5680 O.2   187  GTP187     -0.5168
      8  O2B        0.3560   12.1340    3.4760 O.3   187  GTP187     -0.4368
      9  O3A        0.8310   13.9190    1.6430 O.3   187  GTP187     -0.2700
     10  PA        -0.6410   14.4660    1.9810 P.3   187  GTP187      0.2185
     11  O1A       -0.6220   15.1860    3.4010 O.3   187  GTP187     -0.4371
     12  O2A       -1.6810   13.2660    1.8570 O.2   187  GTP187     -0.5170
     13  O5'       -0.9510   15.5470    0.8530 O.3   187  GTP187     -0.3185
     14  C5'       -1.3620   16.8670    1.1970 C.3   187  GTP187      0.1234
     15  C4'       -1.0510   17.8190    0.0670 C.3   187  GTP187      0.1184
     16  O4'       -0.8330   17.0450   -1.1450 O.3   187  GTP187     -0.3470
     17  C3'       -2.1660   18.8030   -0.2740 C.3   187  GTP187      0.1137
     18  O3'       -1.6440   20.0440   -0.7320 O.3   187  GTP187     -0.3864
     19  C2'       -2.9420   18.0700   -1.3600 C.3   187  GTP187      0.1266
     20  O2'       -3.5830   18.9780   -2.2350 O.3   187  GTP187     -0.3849
     21  C1'       -1.8050   17.3870   -2.1140 C.3   187  GTP187      0.1617
     22  N9        -2.2030   16.1710   -2.8160 N.pl3 187  GTP187     -0.2241
     23  C8        -2.0330   14.8750   -2.3940 C.2   187  GTP187      0.1451
     24  N7        -2.4900   13.9930   -3.2380 N.2   187  GTP187     -0.3865
     25  C5        -2.9950   14.7520   -4.2870 C.2   187  GTP187      0.2296
     26  C6        -3.6170   14.3490   -5.4930 C.2   187  GTP187      0.2859
     27  O6        -3.8580   13.2030   -5.8920 O.2   187  GTP187     -0.2668
     28  N1        -3.9770   15.4460   -6.2750 N.am  187  GTP187     -0.2418
     29  C2        -3.7650   16.7590   -5.9340 C.2   187  GTP187      0.2395
     30  N2        -4.1890   17.6770   -6.8170 N.pl3 187  GTP187     -0.3206
     31  N3        -3.1810   17.1470   -4.8120 N.2   187  GTP187     -0.3551
     32  C4        -2.8240   16.0990   -4.0410 C.2   187  GTP187      0.2272
     33  H5'       -2.4340   16.8810    1.3860 H     187  GTP187      0.0654
     34  H4'       -0.1870   18.4140    0.3670 H     187  GTP187      0.0651
     35  H3'       -2.7800   19.0350    0.5960 H     187  GTP187      0.0647
     36 HO3'       -2.1900   20.3280   -1.4650 H     187  GTP187      0.2100
     37  H2'       -3.6290   17.3440   -0.9220 H     187  GTP187      0.0663
     38 HO2'       -4.1700   19.5170   -1.7070 H     187  GTP187      0.2101
     39  H1'       -1.3240   18.0550   -2.8300 H     187  GTP187      0.0841
     40  H8        -1.5680   14.6120   -1.4550 H     187  GTP187      0.1149
     41  HN1       -4.4300   15.2590   -7.1550 H     187  GTP187      0.1589
     42 HN21       -4.0610   18.6600   -6.6250 H     187  GTP187      0.1459
     43 HN22       -4.6350   17.3840   -7.6740 H     187  GTP187      0.1459
@<TRIPOS>BOND
     1    43    30    1
     2    41    28    1
     3    30    42    1
     4    30    29    1
     5    28    29    1
     6    28    26   am
     7    29    31    2
     8    27    26    2
     9    26    25    1
    10    31    32    2
    11    25    32    1
    12    25    24    2
    13    32    22    1
    14    24    23    2
    15    39    21    1
    16    22    23    1
    17    22    21    1
    18    23    40    1
    19    20    38    1
    20    20    19    1
    21    21    19    1
    22    21    16    1
    23    36    18    1
    24    19    37    1
    25    19    17    1
    26    16    15    1
    27    18    17    1
    28    17    15    1
    29    17    35    1
    30    15    34    1
    31    15    14    1
    32    13    14    1
    33    13    10    1
    34    14    33    1
    35     7     6    2
    36     9    10    1
    37     9     6    1
    38    12    10    2
    39    10    11    1
    40     6     5    1
    41     6     8    1
    42     5     1    1
    43     1     2    2
    44     1     3    1
    45     1     4    1
