@<TRIPOS>MOLECULE
2ksq_MTN_A_1.pdb
 27 27 0 0 0
SMALL
GASTEIGER

@<TRIPOS>ATOM
      1  O1        15.3280  -12.6810    6.4780 O.3   185  MTN185     -0.1183
      2  N1        14.6390  -12.8800    7.5850 N.4   185  MTN185     -0.1421
      3  C1        14.8100  -11.7090    8.4450 C.3   185  MTN185      0.0487
      4  C2        13.5320  -10.9240    8.3080 C.3   185  MTN185     -0.0068
      5  C3        12.5960  -11.6690    7.7110 C.3   185  MTN185      0.0140
      6  C4        11.4170  -11.1500    6.8870 C.3   185  MTN185      0.0122
      7  S1        11.7850   -9.5150    6.1530 S.3   185  MTN185     -0.0925
      8  C5        13.1870  -13.0330    7.4210 C.3   185  MTN185      0.0522
      9  C6        12.7050  -14.0750    8.4310 C.3   185  MTN185     -0.0440
     10  C7        12.7770  -13.4720    6.0140 C.3   185  MTN185     -0.0440
     11  C8        15.9780  -10.8070    8.0370 C.3   185  MTN185     -0.0443
     12  C9        14.9950  -12.1680    9.8930 C.3   185  MTN185     -0.0443
     13  H2        13.3970   -9.9560    8.5220 H     185  MTN185      0.0329
     14  H41       11.1970  -11.8430    6.0850 H     185  MTN185      0.0391
     15  H42       10.5570  -11.0530    7.5290 H     185  MTN185      0.0391
     16  H61       12.2200  -14.8870    7.9090 H     185  MTN185      0.0248
     17  H62       12.0040  -13.6180    9.1140 H     185  MTN185      0.0248
     18  H63       13.5490  -14.4580    8.9860 H     185  MTN185      0.0248
     19  H71       13.6280  -13.4010    5.3530 H     185  MTN185      0.0248
     20  H72       11.9870  -12.8310    5.6530 H     185  MTN185      0.0248
     21  H73       12.4280  -14.4940    6.0430 H     185  MTN185      0.0248
     22  H81       15.7500  -10.3300    7.0970 H     185  MTN185      0.0248
     23  H82       16.8720  -11.4030    7.9330 H     185  MTN185      0.0248
     24  H83       16.1320  -10.0540    8.7950 H     185  MTN185      0.0248
     25  H91       14.0280  -12.3350   10.3450 H     185  MTN185      0.0248
     26  H92       15.5250  -11.4080   10.4480 H     185  MTN185      0.0248
     27  H93       15.5630  -13.0870    9.9090 H     185  MTN185      0.0248
@<TRIPOS>BOND
     1    19    10    1
     2    20    10    1
     3    10    21    1
     4    10     8    1
     5    14     6    1
     6     7     6    1
     7     1     2    1
     8     6    15    1
     9     6     5    1
    10    22    11    1
    11     8     2    1
    12     8     5    1
    13     8     9    1
    14     2     3    1
    15     5     4    1
    16    16     9    1
    17    23    11    1
    18    11     3    1
    19    11    24    1
    20     4     3    1
    21     4    13    1
    22     9    18    1
    23     9    17    1
    24     3    12    1
    25    12    27    1
    26    12    25    1
    27    12    26    1
