@<TRIPOS>MOLECULE
2ksu_HEM_A_1.pdb
 43 50 0 0 0
SMALL
GASTEIGER

@<TRIPOS>ATOM
      1  CHA        4.7190    2.8160   -7.5260 C.2   233  HEM233      0.0000
      2  CHB        3.2510    6.8250   -9.8700 C.2   233  HEM233      0.0000
      3  CHC       -0.6530    7.1200   -6.9740 C.2   233  HEM233      0.0000
      4  CHD        0.6620    2.9040   -4.8330 C.2   233  HEM233      0.0000
      5  C1A        4.6690    3.9110   -8.3820 C.ar  233  HEM233      0.0000
      6  C2A        5.7170    4.2620   -9.3120 C.ar  233  HEM233      0.0000
      7  C3A        5.3130    5.3730   -9.9630 C.ar  233  HEM233      0.0000
      8  C4A        4.0120    5.7210   -9.4440 C.ar  233  HEM233      0.0000
      9  CMA        6.0440    6.1350  -11.0300 C.3   233  HEM233      0.0000
     10  CAA        7.0000    3.5030   -9.4870 C.3   233  HEM233      0.0000
     11  CBA        8.0700    3.8470   -8.4550 C.3   233  HEM233      0.0000
     12  CGA        7.4450    4.3850   -7.1750 C.2   233  HEM233      0.0000
     13  O1A        7.2730    5.6210   -7.1040 O.co2 233  HEM233      0.0000
     14  O2A        7.1510    3.5500   -6.2930 O.co2 233  HEM233      0.0000
     15  C1B        2.0880    7.2680   -9.2500 C.2   233  HEM233      0.0000
     16  C2B        1.4200    8.5080   -9.5690 C.2   233  HEM233      0.0000
     17  C3B        0.3370    8.5930   -8.7680 C.2   233  HEM233      0.0000
     18  C4B        0.3240    7.4060   -7.9450 C.2   233  HEM233      0.0000
     19  CMB        1.8810    9.4900  -10.6070 C.3   233  HEM233      0.0000
     20  CAB       -0.6850    9.6910   -8.7080 C.3   233  HEM233      0.0000
     21  CBB       -1.3450    9.9970  -10.0500 C.3   233  HEM233      0.0000
     22  C1C       -0.6410    5.9590   -6.1330 C.ar  233  HEM233      0.0000
     23  C2C       -1.5710    5.7190   -5.0540 C.ar  233  HEM233      0.0000
     24  C3C       -1.1960    4.5690   -4.4550 C.ar  233  HEM233      0.0000
     25  C4C       -0.0310    4.0850   -5.1560 C.ar  233  HEM233      0.0000
     26  CMC       -2.7250    6.6120   -4.7010 C.3   233  HEM233      0.0000
     27  CAC       -1.8370    3.8870   -3.2810 C.3   233  HEM233      0.0000
     28  CBC       -3.3460    3.7060   -3.4170 C.3   233  HEM233      0.0000
     29  C1D        1.8880    2.5350   -5.3750 C.2   233  HEM233      0.0000
     30  C2D        2.6400    1.3720   -4.9660 C.2   233  HEM233      0.0000
     31  C3D        3.7660    1.3450   -5.7100 C.2   233  HEM233      0.0000
     32  C4D        3.7210    2.4900   -6.5890 C.2   233  HEM233      0.0000
     33  CMD        2.2110    0.4020   -3.9040 C.3   233  HEM233      0.0000
     34  CAD        4.8770    0.3370   -5.6690 C.3   233  HEM233      0.0000
     35  CBD        4.9080   -0.5000   -4.3930 C.3   233  HEM233      0.0000
     36  CGD        6.3010   -1.0560   -4.1360 C.2   233  HEM233      0.0000
     37  O1D        7.1890   -0.7700   -4.9690 O.co2 233  HEM233      0.0000
     38  O2D        6.4530   -1.7570   -3.1130 O.co2 233  HEM233      0.0000
     39  NA         3.6250    4.8140   -8.4720 N.ar  233  HEM233      0.0000
     40  NB         1.4050    6.5980   -8.2500 N.2   233  HEM233      0.0000
     41  NC         0.3020    4.9470   -6.1870 N.ar  233  HEM233      0.0000
     42  ND         2.5620    3.2160   -6.3740 N.2   233  HEM233      0.0000
     43 FE          1.9350    4.9450   -7.2580 Fe    233  HEM233      0.0000
@<TRIPOS>BOND
     1     9     7    1
     2    19    16    1
     3    21    20    1
     4     7     8   ar
     5     7     6   ar
     6     2     8    2
     7     2    15    1
     8    16    15    1
     9    16    17    2
    10    10     6    1
    11    10    11    1
    12     8    39   ar
    13     6     5   ar
    14    15    40    2
    15    17    20    1
    16    17    18    1
    17    39     5   ar
    18    39    43    1
    19    11    12    1
    20     5     1    2
    21    40    18    1
    22    40    43    1
    23    18     3    2
    24     1    32    1
    25    43    42    1
    26    43    41    1
    27    12    13   ar
    28    12    14   ar
    29     3    22    1
    30    32    42    2
    31    32    31    1
    32    42    29    1
    33    41    22   ar
    34    41    25   ar
    35    22    23   ar
    36    31    34    1
    37    31    30    2
    38    34    35    1
    39    29    30    1
    40    29     4    2
    41    25     4    1
    42    25    24   ar
    43    23    26    1
    44    23    24   ar
    45    37    36   ar
    46    30    33    1
    47    24    27    1
    48    35    36    1
    49    36    38   ar
    50    28    27    1
