@<TRIPOS>MOLECULE
2ktq_DCT_A_1.pdb
 27 28 0 0 0
SMALL
GASTEIGER

@<TRIPOS>ATOM
      1  N1        -7.0340   26.4580   -7.9320 N.am  113  DCT113     -0.1803
      2  C2        -7.3040   26.5760   -9.2940 C.1   113  DCT113      0.2756
      3  N3        -6.3180   26.3300  -10.1870 N.2   113  DCT113     -0.3024
      4  C4        -5.1020   25.9870   -9.7590 C.2   113  DCT113      0.2346
      5  C5        -4.7970   25.8700   -8.3760 C.2   113  DCT113      0.0687
      6  C6        -5.7810   26.1120   -7.5070 C.2   113  DCT113      0.0835
      7  O2        -8.4410   26.9080   -9.6520 O.2   113  DCT113     -0.1925
      8  N4        -4.1620   25.7530  -10.6720 N.pl3 113  DCT113     -0.0921
      9  C1'       -8.1310   26.7010   -6.9730 C.3   113  DCT113      0.2063
     10  C2'       -8.8490   25.4210   -6.5440 C.3   113  DCT113      0.0545
     11  C3'       -8.0470   25.0220   -5.3130 C.3   113  DCT113      0.0366
     12  C4'       -7.7140   26.3690   -4.6870 C.3   113  DCT113      0.1472
     13  O4'       -7.5920   27.2880   -5.8050 O.3   113  DCT113     -0.3366
     14  C5'       -6.4180   26.3990   -3.9190 C.3   113  DCT113      0.1785
     15  O5'       -5.3140   26.1140   -4.8000 O.3   113  DCT113     -0.3113
     16  PA        -3.9230   25.5730   -4.2460 P.3   113  DCT113      0.2189
     17  O1A       -2.9000   25.7300   -5.3130 O.2   113  DCT113     -0.5170
     18  O2A       -3.6810   26.1550   -2.9090 O.3   113  DCT113     -0.4371
     19  O3A       -4.2760   24.0080   -4.1400 O.3   113  DCT113     -0.2700
     20  PB        -5.0930   23.0670   -3.1070 P.3   113  DCT113      0.2277
     21  O1B       -5.3880   21.8040   -3.8330 O.2   113  DCT113     -0.5168
     22  O2B       -6.2150   23.8510   -2.5250 O.3   113  DCT113     -0.4368
     23  O3B       -4.1430   22.6680   -1.8610 O.3   113  DCT113     -0.2258
     24  PG        -2.5850   22.2650   -1.7680 P.3   113  DCT113      0.5373
     25  O1G       -1.8380   23.4390   -1.2500 O.3   113  DCT113     -0.1143
     26  O2G       -2.4800   20.9600   -1.0650 O.3   113  DCT113     -0.1143
     27  O3G       -2.1500   22.0450   -3.3030 O.2   113  DCT113     -0.2221
@<TRIPOS>BOND
     1     8     4    1
     2     3     4    2
     3     3     2    2
     4     4     5    1
     5     7     2    2
     6     2     1   am
     7     5     6    2
     8     1     6    1
     9     1     9    1
    10     9    10    1
    11     9    13    1
    12    10    11    1
    13    13    12    1
    14    11    12    1
    15    17    16    2
    16    15    16    1
    17    15    14    1
    18    12    14    1
    19    16    19    1
    20    16    18    1
    21    19    20    1
    22    21    20    2
    23    27    24    2
    24    20    22    1
    25    20    23    1
    26    23    24    1
    27    24    25    1
    28    24    26    1
