@<TRIPOS>MOLECULE
2kwi_GNP_A_1.pdb
 45 47 0 0 0
SMALL
GASTEIGER

@<TRIPOS>ATOM
      1  PG         1.9090  -10.5440    9.2770 P.3   500  GNP500      0.4710
      2  O1G        3.1260  -11.2860    9.6940 O.3   500  GNP500     -0.1250
      3  O2G        2.2820   -9.3260    8.3200 O.2   500  GNP500     -0.2347
      4  O3G        1.0690  -10.0770   10.5500 O.3   500  GNP500     -0.1250
      5  N3B        0.8900  -11.5260    8.3760 N.3   500  GNP500     -0.1200
      6  PB        -0.6650  -10.9020    8.2510 P.3   500  GNP500      0.4495
      7  O1B       -1.2240  -10.6990    9.6130 O.3   500  GNP500     -0.1263
      8  O2B       -0.6660   -9.7680    7.2840 O.2   500  GNP500     -0.2367
      9  O3A       -1.4370  -12.1260    7.5710 O.3   500  GNP500     -0.2370
     10  PA        -2.9910  -12.3730    7.8360 P.3   500  GNP500      0.2213
     11  O1A       -3.1490  -13.5960    8.6620 O.3   500  GNP500     -0.4371
     12  O2A       -3.6140  -11.1060    8.2940 O.2   500  GNP500     -0.5170
     13  O5'       -3.5320  -12.6840    6.3700 O.3   500  GNP500     -0.3245
     14  C5'       -3.1420  -13.8630    5.6690 C.3   500  GNP500      0.0836
     15  C4'       -3.4410  -13.7080    4.1960 C.3   500  GNP500      0.1131
     16  O4'       -4.2120  -14.8560    3.7580 O.3   500  GNP500     -0.3474
     17  C3'       -4.2700  -12.4790    3.8290 C.3   500  GNP500      0.1133
     18  O3'       -3.5680  -11.6410    2.9210 O.3   500  GNP500     -0.3864
     19  C2'       -5.5570  -13.0230    3.2050 C.3   500  GNP500      0.1266
     20  O2'       -5.9290  -12.2920    2.0530 O.3   500  GNP500     -0.3849
     21  C1'       -5.1400  -14.4280    2.7880 C.3   500  GNP500      0.1617
     22  N9        -6.2470  -15.3840    2.7380 N.pl3 500  GNP500     -0.2241
     23  C8        -6.2740  -16.6420    3.2870 C.2   500  GNP500      0.1451
     24  N7        -7.3950  -17.2740    3.0790 N.2   500  GNP500     -0.3865
     25  C5        -8.1630  -16.3750    2.3490 C.2   500  GNP500      0.2296
     26  C6        -9.4780  -16.5040    1.8350 C.2   500  GNP500      0.2859
     27  O6       -10.2510  -17.4640    1.9340 O.2   500  GNP500     -0.2668
     28  N1        -9.8830  -15.3600    1.1530 N.am  500  GNP500     -0.2418
     29  C2        -9.1080  -14.2360    0.9920 C.2   500  GNP500      0.2395
     30  N2        -9.6780  -13.2160    0.3300 N.pl3 500  GNP500     -0.3206
     31  N3        -7.8790  -14.1020    1.4620 N.2   500  GNP500     -0.3551
     32  C4        -7.4700  -15.2040    2.1290 C.2   500  GNP500      0.2272
     33 HNB3        0.8510  -12.4180    8.7920 H     500  GNP500      0.1458
     34 H5'2       -3.6900  -14.7210    6.0560 H     500  GNP500      0.0591
     35 H5'1       -2.0750  -14.0360    5.7980 H     500  GNP500      0.0591
     36  H4'       -2.4860  -13.6030    3.6800 H     500  GNP500      0.0647
     37  H3'       -4.4680  -11.8580    4.7020 H     500  GNP500      0.0647
     38 HO3'       -4.1240  -11.5510    2.1450 H     500  GNP500      0.2100
     39  H2'       -6.3530  -13.0530    3.9510 H     500  GNP500      0.0663
     40 HO2'       -6.4480  -12.8790    1.5030 H     500  GNP500      0.2101
     41  H1'       -4.6280  -14.4450    1.8250 H     500  GNP500      0.0841
     42  H8        -5.4460  -17.0690    3.8370 H     500  GNP500      0.1149
     43  HN1      -10.8110  -15.3600    0.7490 H     500  GNP500      0.1589
     44 HN21       -9.1720  -12.3520    0.1970 H     500  GNP500      0.1459
     45 HN22      -10.6170  -13.3130   -0.0320 H     500  GNP500      0.1459
@<TRIPOS>BOND
     1    45    30    1
     2    44    30    1
     3    30    29    1
     4    43    28    1
     5    29    28    1
     6    29    31    2
     7    28    26   am
     8    31    32    2
     9    40    20    1
    10    41    21    1
    11    26    27    2
    12    26    25    1
    13    20    19    1
    14    32    25    1
    15    32    22    1
    16    38    18    1
    17    25    24    2
    18    22    21    1
    19    22    23    1
    20    21    19    1
    21    21    16    1
    22    18    17    1
    23    24    23    2
    24    19    17    1
    25    19    39    1
    26    23    42    1
    27    36    15    1
    28    16    15    1
    29    17    15    1
    30    17    37    1
    31    15    14    1
    32    14    35    1
    33    14    34    1
    34    14    13    1
    35    13    10    1
    36     8     6    2
    37     9    10    1
    38     9     6    1
    39    10    12    2
    40    10    11    1
    41     6     5    1
    42     6     7    1
    43     3     1    2
    44     5    33    1
    45     5     1    1
    46     1     2    1
    47     1     4    1
