@<TRIPOS>MOLECULE
2kzm_NUC_B_1.pdb
 42 46 0 0 0
SMALL
GASTEIGER

@<TRIPOS>ATOM
      1  O3'       64.7570   24.1530   88.8310 O.3   1006  DC1006     -0.1145
      2  P         65.4000   24.8350   88.0390 P.3   1007  DG1007      0.5327
      3  OP1       65.1140   24.7280   86.6340 O.2   1007  DG1007     -0.2224
      4  OP2       66.7450   25.0020   88.5920 O.3   1007  DG1007     -0.1145
      5  O5'       64.4710   26.0580   88.7420 O.3   1007  DG1007     -0.2675
      6  C5'       63.2420   26.4830   88.1420 C.3   1007  DG1007      0.1857
      7  C4'       62.4080   27.4710   89.0110 C.3   1007  DG1007      0.1746
      8  O4'       61.7350   26.8110   90.0760 O.3   1007  DG1007     -0.3348
      9  C3'       63.3120   28.6140   89.5120 C.3   1007  DG1007      0.1555
     10  O3'       63.1350   29.5710   88.5040 O.3   1007  DG1007     -0.3139
     11  C2'       62.5460   28.8980   90.8520 C.3   1007  DG1007      0.0836
     12  C1'       61.9510   27.2530   91.2790 C.3   1007  DG1007      0.1980
     13  N9        63.0320   26.6820   92.0710 N.pl3 1007  DG1007     -0.2374
     14  C8        64.3730   26.5090   91.9010 C.3   1007  DG1007      0.2245
     15  N7        64.9970   26.0790   92.9570 N.2   1007  DG1007     -0.2322
     16  C5        63.9990   25.9600   93.8240 C.2   1007  DG1007      0.2182
     17  C6        64.1600   25.5650   95.0790 C.1   1007  DG1007      0.2372
     18  O6        65.2520   25.3380   95.6570 O.2   1007  DG1007     -0.2069
     19  N1        62.8930   25.5740   95.7140 N.2   1007  DG1007     -0.2485
     20  C2        61.6380   25.9680   95.1170 C.1   1007  DG1007      0.2531
     21  N2        60.5020   25.9030   95.9260 N.pl3 1007  DG1007     -0.0226
     22  N3        61.5430   26.3630   93.8370 N.2   1007  DG1007     -0.3074
     23  C4        62.7700   26.3070   93.2990 C.2   1007  DG1007      0.2299
     24  P         63.8530   30.9260   88.3210 P.3   1008  DC1008      0.2141
     25  OP1       63.2210   31.5890   87.1840 O.2   1008  DC1008     -0.5172
     26  OP2       65.2800   30.5900   88.2380 O.3   1008  DC1008     -0.4373
     27  O5'       63.6000   31.8360   89.5850 O.3   1008  DC1008     -0.3114
     28  C5'       62.3340   32.3870   89.8640 C.3   1008  DC1008      0.1812
     29  C4'       62.3990   33.0450   91.2460 C.3   1008  DC1008      0.1773
     30  O4'       62.6440   32.0680   92.2870 O.3   1008  DC1008     -0.3339
     31  C3'       63.6040   34.0080   91.3510 C.3   1008  DC1008      0.1857
     32  O3'       63.2700   35.2120   90.6360 O.3   1008  DC1008     -0.2203
     33  C2'       63.6260   34.1280   92.8750 C.3   1008  DC1008      0.0874
     34  C1'       63.5160   32.6570   93.2930 C.3   1008  DC1008      0.2090
     35  N1        64.8710   31.9470   93.3020 N.am  1008  DC1008     -0.1802
     36  C2        65.6780   32.0980   94.4260 C.1   1008  DC1008      0.2756
     37  O2        65.3180   32.7950   95.3490 O.2   1008  DC1008     -0.1925
     38  N3        66.8880   31.5330   94.6080 N.2   1008  DC1008     -0.3024
     39  C4        67.3420   30.7870   93.6530 C.2   1008  DC1008      0.2346
     40  N4        68.5260   30.2270   93.8080 N.pl3 1008  DC1008     -0.0921
     41  C5        66.5680   30.5680   92.4430 C.2   1008  DC1008      0.0687
     42  C6        65.3590   31.1510   92.2960 C.2   1008  DC1008      0.0835
@<TRIPOS>BOND
     1     3     2    2
     2    25    24    2
     3     2     4    1
     4     2     5    1
     5     2     1    1
     6     6     5    1
     7     6     7    1
     8    26    24    1
     9    24    10    1
    10    24    27    1
    11    10     9    1
    12     7     9    1
    13     7     8    1
    14     9    11    1
    15    27    28    1
    16    28    29    1
    17     8    12    1
    18    32    31    1
    19    11    12    1
    20    29    31    1
    21    29    30    1
    22    12    13    1
    23    31    33    1
    24    14    13    1
    25    14    15    1
    26    13    23    1
    27    30    34    1
    28    42    41    2
    29    42    35    1
    30    41    39    1
    31    33    34    1
    32    15    16    2
    33    34    35    1
    34    23    16    1
    35    23    22    2
    36    35    36   am
    37    39    40    1
    38    39    38    2
    39    16    17    1
    40    22    20    2
    41    36    38    2
    42    36    37    2
    43    17    18    2
    44    17    19    2
    45    20    19    2
    46    20    21    1
