@<TRIPOS>MOLECULE
2kzz_NUC_B_1.pdb
 42 46 0 0 0
SMALL
GASTEIGER

@<TRIPOS>ATOM
      1  O3'       63.9220   23.2770   88.4660 O.3   1005  DA1005     -0.1145
      2  P         64.7630   24.6410   88.2900 P.3   1006  DC1006      0.5327
      3  OP1       65.1620   24.8700   86.8820 O.2   1006  DC1006     -0.2224
      4  OP2       65.8400   24.6680   89.3040 O.3   1006  DC1006     -0.1145
      5  O5'       63.7390   25.8480   88.7350 O.3   1006  DC1006     -0.2675
      6  C5'       62.4340   26.1600   88.2280 C.3   1006  DC1006      0.1857
      7  C4'       61.6480   27.0650   89.2160 C.3   1006  DC1006      0.1746
      8  O4'       61.3060   26.3490   90.4260 O.3   1006  DC1006     -0.3340
      9  C3'       62.5120   28.2940   89.6680 C.3   1006  DC1006      0.1556
     10  O3'       62.4570   29.3750   88.7250 O.3   1006  DC1006     -0.3139
     11  C2'       61.6940   28.6520   90.9120 C.3   1006  DC1006      0.0845
     12  C1'       61.3680   27.2860   91.4930 C.3   1006  DC1006      0.2089
     13  N1        62.3970   26.8030   92.4640 N.am  1006  DC1006     -0.1802
     14  C2        61.8990   26.0360   93.5080 C.1   1006  DC1006      0.2756
     15  O2        60.6830   25.7920   93.5590 O.2   1006  DC1006     -0.1925
     16  N3        62.8050   25.5850   94.4470 N.2   1006  DC1006     -0.3024
     17  C4        64.1300   25.8980   94.3990 C.2   1006  DC1006      0.2346
     18  N4        64.9400   25.4420   95.3370 N.pl3 1006  DC1006     -0.0921
     19  C5        64.6670   26.6810   93.3130 C.2   1006  DC1006      0.0687
     20  C6        63.7660   27.1120   92.3960 C.2   1006  DC1006      0.0835
     21  P         63.2270   30.6810   88.5720 P.3   1007  DG1007      0.2141
     22  OP1       62.6140   31.4200   87.4990 O.2   1007  DG1007     -0.5172
     23  OP2       64.6590   30.4680   88.4260 O.3   1007  DG1007     -0.4373
     24  O5'       62.9550   31.4370   89.9500 O.3   1007  DG1007     -0.3114
     25  C5'       61.7140   32.0590   90.2820 C.3   1007  DG1007      0.1812
     26  C4'       61.8640   32.7850   91.6270 C.3   1007  DG1007      0.1772
     27  O4'       62.1410   31.8520   92.6990 O.3   1007  DG1007     -0.3347
     28  C3'       63.0840   33.6850   91.6660 C.3   1007  DG1007      0.1857
     29  O3'       62.8050   34.8870   90.9810 O.3   1007  DG1007     -0.2203
     30  C2'       63.1250   33.8560   93.1930 C.3   1007  DG1007      0.0865
     31  C1'       63.0590   32.4290   93.6190 C.3   1007  DG1007      0.1981
     32  N9        64.2960   31.6850   93.4470 N.pl3 1007  DG1007     -0.2374
     33  C8        64.8080   30.8980   92.4010 C.3   1007  DG1007      0.2245
     34  N7        65.9890   30.3470   92.6020 N.2   1007  DG1007     -0.2322
     35  C5        66.2690   30.8160   93.8820 C.2   1007  DG1007      0.2182
     36  C6        67.3870   30.5460   94.7060 C.1   1007  DG1007      0.2372
     37  O6        68.3800   29.9020   94.4290 O.2   1007  DG1007     -0.2069
     38  N1        67.2820   31.1210   95.9490 N.2   1007  DG1007     -0.2485
     39  C2        66.2050   31.8860   96.3670 C.1   1007  DG1007      0.2531
     40  N2        66.2620   32.3190   97.6170 N.pl3 1007  DG1007     -0.0226
     41  N3        65.1380   32.1890   95.5970 N.2   1007  DG1007     -0.3074
     42  C4        65.2440   31.6140   94.3810 C.2   1007  DG1007      0.2299
@<TRIPOS>BOND
     1     3     2    2
     2    22    21    2
     3     6     5    1
     4     6     7    1
     5     2     1    1
     6     2     5    1
     7     2     4    1
     8    23    21    1
     9    21    10    1
    10    21    24    1
    11    10     9    1
    12     7     9    1
    13     7     8    1
    14     9    11    1
    15    24    25    1
    16    25    26    1
    17     8    12    1
    18    11    12    1
    19    29    28    1
    20    12    13    1
    21    26    28    1
    22    26    27    1
    23    28    30    1
    24    20    13    1
    25    20    19    2
    26    33    34    1
    27    33    32    1
    28    13    14   am
    29    34    35    2
    30    27    31    1
    31    30    31    1
    32    19    17    1
    33    32    31    1
    34    32    42    1
    35    14    15    2
    36    14    16    2
    37    35    42    1
    38    35    36    1
    39    42    41    2
    40    17    16    2
    41    17    18    1
    42    37    36    2
    43    36    38    2
    44    41    39    2
    45    38    39    2
    46    39    40    1
