@<TRIPOS>MOLECULE
2l0x_GDP_A_1.pdb
 40 42 0 0 0
SMALL
GASTEIGER

@<TRIPOS>ATOM
      1  PB        12.5370   -1.6630   -6.5190 P.3   186  GDP186      0.5373
      2  O1B       11.2890   -2.1310   -7.1800 O.3   186  GDP186     -0.1143
      3  O2B       12.1590   -0.5330   -5.4550 O.3   186  GDP186     -0.1143
      4  O3B       13.5430   -0.9420   -7.5400 O.2   186  GDP186     -0.2221
      5  O3A       13.3440   -2.7230   -5.6900 O.3   186  GDP186     -0.2261
      6  PA        13.4280   -4.1370   -6.3940 P.3   186  GDP186      0.2224
      7  O1A       12.4360   -5.0350   -5.7640 O.3   186  GDP186     -0.4370
      8  O2A       13.1330   -3.9760   -7.9610 O.2   186  GDP186     -0.5170
      9  O5'       14.9560   -4.6550   -6.2700 O.3   186  GDP186     -0.3245
     10  C5'       16.0190   -3.7820   -5.8250 C.3   186  GDP186      0.0836
     11  C4'       16.5170   -4.1370   -4.4150 C.3   186  GDP186      0.1131
     12  O4'       15.4130   -4.4550   -3.5470 O.3   186  GDP186     -0.3474
     13  C3'       17.4470   -5.3620   -4.3760 C.3   186  GDP186      0.1133
     14  O3'       18.7360   -4.9450   -3.8970 O.3   186  GDP186     -0.3864
     15  C2'       16.7740   -6.2850   -3.3560 C.3   186  GDP186      0.1266
     16  O2'       17.7180   -6.9020   -2.4700 O.3   186  GDP186     -0.3849
     17  C1'       15.9620   -5.3010   -2.5370 C.3   186  GDP186      0.1617
     18  N9        14.9320   -5.9940   -1.7220 N.pl3 186  GDP186     -0.2241
     19  C8        13.6950   -6.3090   -2.1160 C.2   186  GDP186      0.1451
     20  N7        12.9950   -6.7550   -1.0690 N.2   186  GDP186     -0.3865
     21  C5        13.8300   -6.8890   -0.0500 C.2   186  GDP186      0.2296
     22  C6        13.7010   -7.3790    1.2470 C.2   186  GDP186      0.2859
     23  O6        12.6320   -7.8340    1.6610 O.2   186  GDP186     -0.2668
     24  N1        14.8050   -7.3570    2.1110 N.am  186  GDP186     -0.2418
     25  C2        16.0420   -6.8660    1.6390 C.2   186  GDP186      0.2395
     26  N2        17.0980   -6.8320    2.4380 N.pl3 186  GDP186     -0.3206
     27  N3        16.1460   -6.4290    0.3650 N.2   186  GDP186     -0.3551
     28  C4        15.0760   -6.4110   -0.4620 C.2   186  GDP186      0.2272
     29  H5'       15.6850   -2.8410   -5.8250 H     186  GDP186      0.0591
     30 H5''       16.7830   -3.8580   -6.4700 H     186  GDP186      0.0591
     31  H4'       17.0210   -3.3230   -4.1280 H     186  GDP186      0.0647
     32  H3'       17.5560   -5.8370   -5.2530 H     186  GDP186      0.0647
     33 HO3'       18.6140   -4.3410   -3.1030 H     186  GDP186      0.2100
     34  H2'       16.2430   -7.0120   -3.7970 H     186  GDP186      0.0663
     35 HO2'       18.0910   -7.7190   -2.8860 H     186  GDP186      0.2101
     36  H1'       16.5380   -4.7570   -1.8940 H     186  GDP186      0.0841
     37  H8        13.3470   -6.2220   -3.0490 H     186  GDP186      0.1149
     38  HN1       14.7210   -7.6820    3.0460 H     186  GDP186      0.1589
     39 HN21       17.0320   -7.1530    3.3800 H     186  GDP186      0.1459
     40 HN22       17.9690   -6.4820    2.0960 H     186  GDP186      0.1459
@<TRIPOS>BOND
     1     8     6    2
     2     4     1    2
     3     2     1    1
     4     1     5    1
     5     1     3    1
     6    30    10    1
     7     6     9    1
     8     6     7    1
     9     6     5    1
    10     9    10    1
    11    10    29    1
    12    10    11    1
    13    32    13    1
    14    11    13    1
    15    11    31    1
    16    11    12    1
    17    13    14    1
    18    13    15    1
    19    14    33    1
    20    34    15    1
    21    12    17    1
    22    15    17    1
    23    15    16    1
    24    37    19    1
    25    35    16    1
    26    17    36    1
    27    17    18    1
    28    19    18    1
    29    19    20    2
    30    18    28    1
    31    20    21    2
    32    28    21    1
    33    28    27    2
    34    21    22    1
    35    27    25    2
    36    22    23    2
    37    22    24   am
    38    25    24    1
    39    25    26    1
    40    40    26    1
    41    24    38    1
    42    26    39    1
