@<TRIPOS>MOLECULE
2l1r_SXK_A_1.pdb
 28 29 0 0 0
SMALL
GASTEIGER

@<TRIPOS>ATOM
      1  OAA       59.7710   11.3050   -1.3200 O.co2  91  SXK91      -0.2425
      2  OAB       60.0150    9.4230   -0.1670 O.co2  91  SXK91      -0.2425
      3  CAE       56.2250    1.1560   -0.4550 C.ar   91  SXK91      -0.0257
      4  CAF       57.0950    6.5680   -2.9860 C.ar   91  SXK91      -0.0193
      5  CAG       58.1650    6.5560   -0.7640 C.ar   91  SXK91      -0.0193
      6  CAH       56.8890    5.1730   -2.8990 C.ar   91  SXK91      -0.0505
      7  CAI       57.9650    5.1630   -0.6690 C.ar   91  SXK91      -0.0505
      8  CAJ       56.4110    2.5580   -0.5510 C.ar   91  SXK91      -0.0486
      9  CAK       57.4520    0.8170   -2.5460 C.ar   91  SXK91       0.0094
     10  CAL       59.1620    9.2310   -2.3760 C.3    91  SXK91       0.1900
     11  OAM       57.8790    8.6070   -2.1270 O.3    91  SXK91      -0.4806
     12  CAN       59.6920   10.0570   -1.1920 C.2    91  SXK91       0.3927
     13  CAO       56.7450    0.3080   -1.4500 C.ar   91  SXK91       0.1262
     14  CAP       57.7330    7.2570   -1.9150 C.ar   91  SXK91       0.1213
     15  CAQ       57.6440    2.2160   -2.6510 C.ar   91  SXK91       0.1338
     16  CAR       57.3270    4.4690   -1.7380 C.ar   91  SXK91      -0.0149
     17  CAS       57.1240    3.0800   -1.6490 C.ar   91  SXK91       0.0175
     18  FCC       56.5580   -1.0350   -1.3410 F      91  SXK91      -0.2054
     19  FDD       58.3370    2.6900   -3.7320 F      91  SXK91      -0.2048
     20  HAE       55.6790    0.7330    0.3880 H      91  SXK91       0.0646
     21  HAF       56.7670    7.1190   -3.8720 H      91  SXK91       0.0654
     22  HAG       58.6570    7.0790    0.0600 H      91  SXK91       0.0654
     23  HAH       56.4010    4.6410   -3.7150 H      91  SXK91       0.0625
     24  HAI       58.2970    4.6250    0.2220 H      91  SXK91       0.0625
     25  HAJ       56.0080    3.2140    0.2200 H      91  SXK91       0.0625
     26  HAK       57.8520    0.1490   -3.3140 H      91  SXK91       0.0675
     27  HAL       59.9000    8.4510   -2.5950 H      91  SXK91       0.0817
     28 HALA       59.0380    9.9250   -3.2020 H      91  SXK91       0.0817
@<TRIPOS>BOND
     1    21     4    1
     2    19    15    1
     3    23     6    1
     4    26     9    1
     5    28    10    1
     6     4     6   ar
     7     4    14   ar
     8     6    16   ar
     9    15     9   ar
    10    15    17   ar
    11    27    10    1
    12     9    13   ar
    13    10    11    1
    14    10    12    1
    15    11    14    1
    16    14     5   ar
    17    16    17    1
    18    16     7   ar
    19    17     8   ar
    20    13    18    1
    21    13     3   ar
    22     1    12   ar
    23    12     2   ar
    24     5     7   ar
    25     5    22    1
    26     7    24    1
    27     8     3   ar
    28     8    25    1
    29     3    20    1
