@<TRIPOS>MOLECULE
2l2s_L2S_A_1.pdb
 36 37 0 0 0
SMALL
GASTEIGER

@<TRIPOS>ATOM
      1  C1        -5.2630   32.1880   -9.8700 C.3   130  L2S130     -0.0502
      2  N1        -5.5790   34.5610   -8.2350 N.am  130  L2S130     -0.3008
      3  O1        -4.8510   36.6040   -7.5220 O.2   130  L2S130     -0.2747
      4  S1        -7.0480   37.6240   -6.0250 S.3   130  L2S130     -0.1159
      5  C2        -4.3660   33.4000  -10.1050 C.3   130  L2S130     -0.0371
      6  C3        -4.2430   34.2270   -8.8110 C.3   130  L2S130      0.0147
      7  C4        -6.5670   33.4500   -8.1250 C.3   130  L2S130      0.0147
      8  C5        -6.6620   32.6280   -9.4190 C.3   130  L2S130     -0.0371
      9  C6        -5.7550   35.7710   -7.6430 C.2   130  L2S130      0.2258
     10  C7        -7.1500   36.1490   -7.1260 C.3   130  L2S130      0.0750
     11  C8        -7.6990   37.0830   -4.4860 C.ar  130  L2S130      0.0084
     12  C9        -6.8310   36.3400   -3.6520 C.ar  130  L2S130     -0.0481
     13  C10       -7.3370   35.7110   -2.4980 C.ar  130  L2S130     -0.0578
     14  C11       -8.7150   35.8460   -2.1910 C.ar  130  L2S130     -0.0504
     15  C12       -9.5840   36.5840   -3.0160 C.ar  130  L2S130     -0.0578
     16  C13       -9.0780   37.2130   -4.1700 C.ar  130  L2S130     -0.0481
     17  C14       -9.2190   35.2220   -1.0460 C.3   130  L2S130     -0.0397
     18  H11       -4.8190   31.5600   -9.0980 H     130  L2S130      0.0266
     19  H21       -5.3840   31.6910  -10.8330 H     130  L2S130      0.0266
     20  H12       -4.8680   34.0310  -10.8380 H     130  L2S130      0.0280
     21  H22       -3.3760   33.0620  -10.4110 H     130  L2S130      0.0280
     22  H13       -3.7310   33.5940   -8.0870 H     130  L2S130      0.0464
     23  H23       -3.7140   35.1540   -9.0340 H     130  L2S130      0.0464
     24  H14       -6.2640   32.7900   -7.3120 H     130  L2S130      0.0464
     25  H24       -7.5460   33.9070   -7.9760 H     130  L2S130      0.0464
     26  H15       -7.2770   31.7460   -9.2410 H     130  L2S130      0.0280
     27  H25       -7.0490   33.2940  -10.1900 H     130  L2S130      0.0280
     28  H17       -7.7410   36.4810   -7.9790 H     130  L2S130      0.0474
     29  H27       -7.5650   35.3110   -6.5650 H     130  L2S130      0.0474
     30  H9        -5.7710   36.2520   -3.9040 H     130  L2S130      0.0629
     31  H10       -6.6680   35.1350   -1.8600 H     130  L2S130      0.0621
     32 H112      -10.6490   36.6880   -2.7680 H     130  L2S130      0.0621
     33 H113       -9.7480   37.7530   -4.8280 H     130  L2S130      0.0629
     34 H114      -10.2170   34.8330   -1.2530 H     130  L2S130      0.0278
     35 H214       -9.2740   35.9450   -0.2320 H     130  L2S130      0.0278
     36 H314       -8.5250   34.4160   -0.8070 H     130  L2S130      0.0278
@<TRIPOS>BOND
     1    20     5    1
     2    19     1    1
     3    21     5    1
     4    27     8    1
     5     5     1    1
     6     5     6    1
     7     1     8    1
     8     1    18    1
     9     8    26    1
    10     8     7    1
    11    23     6    1
    12     6     2    1
    13     6    22    1
    14     2     7    1
    15     2     9   am
    16     7    25    1
    17     7    24    1
    18    28    10    1
    19     9     3    2
    20     9    10    1
    21    10    29    1
    22    10     4    1
    23     4    11    1
    24    33    16    1
    25    11    16   ar
    26    11    12   ar
    27    16    15   ar
    28    30    12    1
    29    12    13   ar
    30    15    32    1
    31    15    14   ar
    32    13    14   ar
    33    13    31    1
    34    14    17    1
    35    34    17    1
    36    17    36    1
    37    17    35    1
